# generated using pymatgen
data_Pr2H17C24N5O18
_symmetry_space_group_name_H-M   'P 1'
_cell_length_a   8.64990365
_cell_length_b   11.00390084
_cell_length_c   33.74329781
_cell_angle_alpha   89.99861846
_cell_angle_beta   90.00017308
_cell_angle_gamma   90.00050355
_symmetry_Int_Tables_number   1
_chemical_formula_structural   Pr2H17C24N5O18
_chemical_formula_sum   'Pr8 H68 C96 N20 O72'
_cell_volume   3211.77758585
_cell_formula_units_Z   4
loop_
 _symmetry_equiv_pos_site_id
 _symmetry_equiv_pos_as_xyz
  1  'x, y, z'
loop_
 _atom_site_type_symbol
 _atom_site_label
 _atom_site_symmetry_multiplicity
 _atom_site_fract_x
 _atom_site_fract_y
 _atom_site_fract_z
 _atom_site_occupancy
 _atom_site_pbe_bader_charge
 _atom_site_pbe_bader_spin_density
 _atom_site_pbe_cm5_charge
 _atom_site_pbe_ddec_charge
 _atom_site_pbe_ddec_spin_density
 _atom_site_pbe_ddec_sum_bond_order
 _atom_site_pbe_magmom
Pr  Pr0  1  0.88770480  0.81232341  0.11137376  1  2.273577  0  1.491891  2.114258  0  2.125203  0
Pr  Pr1  1  0.61230968  0.31233664  0.88862279  1  2.273756  0  1.491882  2.11401  0  2.12581  0
Pr  Pr2  1  0.11228569  0.18767264  0.61137647  1  2.273813  0  1.491916  2.114118  0  2.125587  0
Pr  Pr3  1  0.38769299  0.68767195  0.38862215  1  2.27368  0  1.491824  2.113979  0  2.125899  0
Pr  Pr4  1  0.11229814  0.18767164  0.88862382  1  2.273663  0  1.491884  2.114115  0  2.125642  0
Pr  Pr5  1  0.38771060  0.68766841  0.11137450  1  2.273427  0  1.491912  2.114232  0  2.125654  0
Pr  Pr6  1  0.88770800  0.81232604  0.38862171  1  2.273748  0  1.491884  2.114142  0  2.125551  0
Pr  Pr7  1  0.61226486  0.31233673  0.61137958  1  2.273683  0  1.491901  2.114139  0  2.125889  0
H  H8  1  0.83527802  0.56329047  0.18609602  1  0.085465  0  0.107939  0.114932  0  1.016659  0
H  H9  1  0.42418958  0.04465230  0.11731139  1  0.123305  0  0.129518  0.155315  0  0.968469  0
H  H10  1  0.60179190  0.24230531  0.01602685  1  0.129792  0  0.114855  0.13066  0  1.020994  0
H  H11  1  0.19318852  0.02447981  0.00381838  1  0.106976  0  0.121229  0.138955  0  0.974801  0
H  H12  1  0.60987005  0.50426126  0.22459616  1  0.447698  0  0.296496  0.2993  0  0.974868  0
H  H13  1  0.58272655  0.25483152  0.11848432  1  0.512054  0  0.316926  0.313961  0  0.945125  0
H  H14  1  0.71009904  0.14028695  0.10867743  1  0.542077  0  0.313928  0.316708  0  0.963468  0
H  H15  1  0.70454561  0.26942556  0.08004519  1  0.457408  0  0.320513  0.298068  0  0.927922  0
H  H16  1  0.66472876  0.06326350  0.81389800  1  0.085676  0  0.107991  0.115079  0  1.016421  0
H  H17  1  0.07583572  0.54464100  0.88269572  1  0.122988  0  0.129568  0.155483  0  0.968547  0
H  H18  1  0.89824187  0.74228805  0.98397242  1  0.130006  0  0.114813  0.130614  0  1.021054  0
H  H19  1  0.30685252  0.52446236  0.99618874  1  0.105995  0  0.121254  0.139011  0  0.974614  0
H  H20  1  0.89012390  0.00422276  0.77538898  1  0.447983  0  0.296554  0.299422  0  0.975173  0
H  H21  1  0.91728205  0.75484021  0.88151723  1  0.512014  0  0.316837  0.313815  0  0.945313  0
H  H22  1  0.78992212  0.64025785  0.89132078  1  0.542026  0  0.313882  0.31679  0  0.96311  0
H  H23  1  0.79544482  0.76939766  0.91995977  1  0.45735  0  0.320428  0.29813  0  0.92803  0
H  H24  1  0.16471517  0.43672400  0.68610285  1  0.085774  0  0.107962  0.115018  0  1.016594  0
H  H25  1  0.57579854  0.95536274  0.61730550  1  0.123433  0  0.129502  0.15531  0  0.968674  0
H  H26  1  0.39823078  0.75768222  0.51602626  1  0.129978  0  0.114788  0.130613  0  1.021006  0
H  H27  1  0.80681463  0.97553513  0.50381595  1  0.106336  0  0.121253  0.138985  0  0.974953  0
H  H28  1  0.39012159  0.49577848  0.72460349  1  0.448001  0  0.296536  0.299386  0  0.975061  0
H  H29  1  0.41728814  0.74517914  0.61848504  1  0.511997  0  0.316966  0.313907  0  0.945163  0
H  H30  1  0.28991113  0.85972145  0.60867380  1  0.541995  0  0.313966  0.316739  0  0.963463  0
H  H31  1  0.29546254  0.73057801  0.58004727  1  0.45751  0  0.320517  0.298075  0  0.928118  0
H  H32  1  0.33529201  0.93673577  0.31389948  1  0.085629  0  0.107919  0.114917  0  1.016479  0
H  H33  1  0.92416816  0.45534769  0.38269413  1  0.12303  0  0.129587  0.155518  0  0.968429  0
H  H34  1  0.10174478  0.25769363  0.48397854  1  0.130122  0  0.114878  0.130765  0  1.02097  0
H  H35  1  0.69315713  0.47553280  0.49618455  1  0.106156  0  0.121246  0.139011  0  0.974758  0
H  H36  1  0.10989496  0.99577396  0.27539588  1  0.448059  0  0.29653  0.299353  0  0.975149  0
H  H37  1  0.08271144  0.24516195  0.38151925  1  0.511993  0  0.316837  0.313792  0  0.945326  0
H  H38  1  0.21006664  0.35973566  0.39132257  1  0.542125  0  0.313875  0.31677  0  0.96322  0
H  H39  1  0.20454828  0.23059433  0.41995954  1  0.457475  0  0.320446  0.298123  0  0.928044  0
H  H40  1  0.16472261  0.43673003  0.81390008  1  0.085616  0  0.107951  0.114981  0  1.016599  0
H  H41  1  0.57583417  0.95537092  0.88269272  1  0.123596  0  0.12954  0.155419  0  0.968532  0
H  H42  1  0.39821451  0.75772882  0.98397252  1  0.130111  0  0.114861  0.130683  0  1.02089  0
H  H43  1  0.80684563  0.97553251  0.99618632  1  0.106175  0  0.121231  0.139013  0  0.974641  0
H  H44  1  0.39012480  0.49578469  0.77539579  1  0.447787  0  0.296532  0.299374  0  0.975129  0
H  H45  1  0.41728100  0.74517534  0.88151890  1  0.512094  0  0.316891  0.313952  0  0.945086  0
H  H46  1  0.28990736  0.85974627  0.89131956  1  0.541882  0  0.31388  0.316737  0  0.963362  0
H  H47  1  0.29543999  0.73060948  0.91996099  1  0.457501  0  0.320414  0.298153  0  0.92811  0
H  H48  1  0.33528920  0.93675337  0.18609929  1  0.085491  0  0.107914  0.11498  0  1.016395  0
H  H49  1  0.92417993  0.45536495  0.11730483  1  0.12346  0  0.129527  0.155395  0  0.968615  0
H  H50  1  0.10177609  0.25769428  0.01603169  1  0.129776  0  0.114922  0.13067  0  1.021059  0
H  H51  1  0.69316891  0.47550816  0.00381003  1  0.106769  0  0.121262  0.139074  0  0.974624  0
H  H52  1  0.10988829  0.99579502  0.22460683  1  0.448254  0  0.296578  0.29941  0  0.975139  0
H  H53  1  0.08272897  0.24516484  0.11848657  1  0.512016  0  0.316884  0.313932  0  0.945086  0
H  H54  1  0.21009353  0.35973175  0.10867948  1  0.542004  0  0.313935  0.316746  0  0.96325  0
H  H55  1  0.20455580  0.23059285  0.08004493  1  0.457478  0  0.320365  0.29799  0  0.928161  0
H  H56  1  0.83526811  0.56329468  0.31389355  1  0.085997  0  0.107968  0.114943  0  1.016553  0
H  H57  1  0.42419053  0.04463777  0.38269476  1  0.123491  0  0.129504  0.155357  0  0.968641  0
H  H58  1  0.60178371  0.24228830  0.48397400  1  0.129895  0  0.114833  0.130622  0  1.021056  0
H  H59  1  0.19315825  0.02447537  0.49618519  1  0.106714  0  0.121205  0.139028  0  0.974706  0
H  H60  1  0.60986169  0.50424202  0.27538758  1  0.447939  0  0.296476  0.299347  0  0.975048  0
H  H61  1  0.58273792  0.25482046  0.38151581  1  0.512154  0  0.316852  0.313946  0  0.945108  0
H  H62  1  0.71011262  0.14026179  0.39132526  1  0.541745  0  0.313893  0.316727  0  0.963279  0
H  H63  1  0.70456583  0.26940886  0.41995832  1  0.457339  0  0.320417  0.298036  0  0.92804  0
H  H64  1  0.66470399  0.06324475  0.68609840  1  0.085521  0  0.107945  0.115032  0  1.016301  0
H  H65  1  0.07582321  0.54463555  0.61730968  1  0.123289  0  0.129545  0.1554  0  0.968488  0
H  H66  1  0.89820381  0.74228325  0.51602912  1  0.129717  0  0.114904  0.130648  0  1.021066  0
H  H67  1  0.30682731  0.52447952  0.50381630  1  0.106909  0  0.121205  0.138964  0  0.974652  0
H  H68  1  0.89009757  0.00421473  0.72459963  1  0.448266  0  0.296573  0.299369  0  0.974998  0
H  H69  1  0.91724641  0.75483401  0.61847981  1  0.512229  0  0.316877  0.314041  0  0.944973  0
H  H70  1  0.78989352  0.64025939  0.60867857  1  0.541878  0  0.31388  0.316697  0  0.963456  0
H  H71  1  0.79542575  0.76938891  0.58003508  1  0.457203  0  0.320399  0.297967  0  0.928211  0
H  H72  1  0.23696485  0.68717168  0.24999357  1  0.130205  0  0.10648  0.123326  0  1.018309  0
H  H73  1  0.26304041  0.18715055  0.75000180  1  0.130331  0  0.1065  0.123408  0  1.018431  0
H  H74  1  0.76304849  0.31279520  0.75000372  1  0.130387  0  0.106478  0.12317  0  1.018319  0
H  H75  1  0.73695444  0.81283088  0.24999815  1  0.130284  0  0.106489  0.123368  0  1.018399  0
C  C76  1  0.11962605  0.65925742  0.17631020  1  1.54888  0  0.223991  0.628443  0  4.174925  0
C  C77  1  0.04365702  0.62617719  0.21435076  1  0.053892  0  -0.021782  -0.032792  0  4.021475  0
C  C78  1  0.89410759  0.57778182  0.21425553  1  -0.063318  0  -0.085666  -0.186659  0  3.888854  0
C  C79  1  0.16963718  0.95084199  0.08023876  1  1.560593  0  0.212627  0.6074  0  4.212912  0
C  C80  1  0.29520904  0.02730104  0.06257323  1  -0.088191  0  -0.005017  -0.012138  0  3.981764  0
C  C81  1  0.41474484  0.07240579  0.08635933  1  0.012397  0  -0.069745  -0.18696  0  3.887469  0
C  C82  1  0.52024409  0.15322782  0.06947961  1  0.205842  0  0.085194  0.240345  0  3.952877  0
C  C83  1  0.51655555  0.18210756  0.02946144  1  -0.027677  0  -0.077446  -0.179427  0  3.911752  0
C  C84  1  0.40037927  0.13222176  0.00551598  1  -0.043312  0  -0.008928  -0.016756  0  3.962235  0
C  C85  1  0.28666383  0.05877076  0.02239973  1  0.060676  0  -0.070841  -0.122572  0  3.920921  0
C  C86  1  0.40034573  0.15761010  0.96158546  1  1.637503  0  0.232119  0.63512  0  4.185852  0
C  C87  1  0.38037976  0.15925551  0.82368188  1  1.547978  0  0.223839  0.628266  0  4.174967  0
C  C88  1  0.45634576  0.12615648  0.78564350  1  0.053888  0  -0.021854  -0.03272  0  4.021595  0
C  C89  1  0.60588679  0.07775460  0.78573775  1  -0.064247  0  -0.085531  -0.186577  0  3.888527  0
C  C90  1  0.33037030  0.45083687  0.91976197  1  1.560723  0  0.2125  0.607073  0  4.213114  0
C  C91  1  0.20480894  0.52729276  0.93742699  1  -0.088226  0  -0.004976  -0.012187  0  3.981858  0
C  C92  1  0.08527296  0.57240237  0.91364338  1  0.01218  0  -0.069912  -0.187141  0  3.887676  0
C  C93  1  0.97979238  0.65321508  0.93052383  1  0.206281  0  0.085374  0.240449  0  3.953385  0
C  C94  1  0.98346999  0.68210576  0.97053964  1  -0.027662  0  -0.077426  -0.179392  0  3.912216  0
C  C95  1  0.09963058  0.63222125  0.99448521  1  -0.043469  0  -0.008999  -0.016598  0  3.961811  0
C  C96  1  0.21335946  0.55876435  0.97760161  1  0.061319  0  -0.070883  -0.122708  0  3.920297  0
C  C97  1  0.09966929  0.65759128  0.03841822  1  1.637232  0  0.231855  0.634602  0  4.186477  0
C  C98  1  0.88038111  0.34074117  0.67631827  1  1.547943  0  0.223903  0.628601  0  4.174832  0
C  C99  1  0.95635322  0.37381207  0.71435622  1  0.053868  0  -0.021869  -0.032866  0  4.021271  0
C  C100  1  0.10589456  0.42222652  0.71426297  1  -0.063518  0  -0.085593  -0.186647  0  3.888772  0
C  C101  1  0.83032472  0.04918252  0.58023659  1  1.560653  0  0.212307  0.606947  0  4.213751  0
C  C102  1  0.70477963  0.97272377  0.56256829  1  -0.08804  0  -0.00506  -0.012016  0  3.98122  0
C  C103  1  0.58524590  0.92760773  0.58635400  1  0.012071  0  -0.069645  -0.186826  0  3.887133  0
C  C104  1  0.47976070  0.84677067  0.56947650  1  0.206405  0  0.085189  0.240326  0  3.952984  0
C  C105  1  0.48346353  0.81788272  0.52945951  1  -0.027725  0  -0.07743  -0.179502  0  3.912014  0
C  C106  1  0.59964005  0.86777432  0.50551369  1  -0.0435  0  -0.008903  -0.016624  0  3.962232  0
C  C107  1  0.71334144  0.94123855  0.52239635  1  0.061072  0  -0.070824  -0.122611  0  3.920938  0
C  C108  1  0.59966312  0.84239395  0.46158268  1  1.637303  0  0.231897  0.634776  0  4.186357  0
C  C109  1  0.61963860  0.84073782  0.32367949  1  1.54842  0  0.223772  0.628252  0  4.175059  0
C  C110  1  0.54366490  0.87382982  0.28564143  1  0.054241  0  -0.021714  -0.032532  0  4.021273  0
C  C111  1  0.39412387  0.92224172  0.28573684  1  -0.063994  0  -0.085567  -0.186506  0  3.888226  0
C  C112  1  0.66963551  0.54915872  0.41976171  1  1.560679  0  0.212606  0.607283  0  4.213031  0
C  C113  1  0.79519669  0.47270071  0.43742607  1  -0.088052  0  -0.005028  -0.012106  0  3.981988  0
C  C114  1  0.91472367  0.42759420  0.41364291  1  0.011713  0  -0.069853  -0.187175  0  3.887542  0
C  C115  1  0.02020985  0.34677472  0.43052649  1  0.206759  0  0.085311  0.240525  0  3.95308  0
C  C116  1  0.01652953  0.31788407  0.47054257  1  -0.02782  0  -0.077473  -0.179642  0  3.912049  0
C  C117  1  0.90034788  0.36777368  0.49448652  1  -0.043387  0  -0.008997  -0.016573  0  3.961826  0
C  C118  1  0.78663998  0.44123099  0.47760104  1  0.061075  0  -0.070825  -0.122745  0  3.920742  0
C  C119  1  0.90029651  0.34239387  0.53841859  1  1.637177  0  0.231852  0.634705  0  4.186728  0
C  C120  1  0.88038267  0.34073582  0.82368680  1  1.548867  0  0.223964  0.62829  0  4.175391  0
C  C121  1  0.95636326  0.37381150  0.78564712  1  0.053592  0  -0.021862  -0.032675  0  4.021008  0
C  C122  1  0.10589766  0.42222960  0.78573998  1  -0.063627  0  -0.085617  -0.186638  0  3.888703  0
C  C123  1  0.83036113  0.04917306  0.91976238  1  1.560573  0  0.212525  0.607093  0  4.213037  0
C  C124  1  0.70479158  0.97271946  0.93742584  1  -0.088434  0  -0.005005  -0.011958  0  3.981417  0
C  C125  1  0.58525809  0.92761471  0.91364211  1  0.012599  0  -0.069799  -0.187186  0  3.887533  0
C  C126  1  0.47977503  0.84680268  0.93052242  1  0.206216  0  0.085311  0.240623  0  3.953511  0
C  C127  1  0.48344045  0.81791021  0.97053733  1  -0.028594  0  -0.077555  -0.179497  0  3.912278  0
C  C128  1  0.59960864  0.86778056  0.99448427  1  -0.043035  0  -0.008923  -0.016802  0  3.962015  0
C  C129  1  0.71334257  0.94123974  0.97760082  1  0.060991  0  -0.070839  -0.122751  0  3.920324  0
C  C130  1  0.59964680  0.84239132  0.03841539  1  1.636701  0  0.231989  0.635153  0  4.185608  0
C  C131  1  0.61964514  0.84075044  0.17631601  1  1.54878  0  0.223631  0.627983  0  4.175221  0
C  C132  1  0.54365948  0.87384130  0.21435557  1  0.053927  0  -0.02179  -0.032677  0  4.021385  0
C  C133  1  0.39411846  0.92225409  0.21426102  1  -0.064082  0  -0.085547  -0.18653  0  3.888422  0
C  C134  1  0.66964188  0.54915727  0.08023355  1  1.560966  0  0.212653  0.607525  0  4.212793  0
C  C135  1  0.79520671  0.47270321  0.06257148  1  -0.088074  0  -0.005131  -0.012327  0  3.981765  0
C  C136  1  0.91474269  0.42759813  0.08635599  1  0.012319  0  -0.069764  -0.186996  0  3.887671  0
C  C137  1  0.02022905  0.34677816  0.06947849  1  0.205903  0  0.085192  0.240294  0  3.953327  0
C  C138  1  0.01654913  0.31787930  0.02946387  1  -0.027702  0  -0.077547  -0.179445  0  3.912021  0
C  C139  1  0.90037814  0.36775654  0.00551623  1  -0.043348  0  -0.008984  -0.016679  0  3.962029  0
C  C140  1  0.78665619  0.44121616  0.02239686  1  0.060624  0  -0.070747  -0.122656  0  3.920581  0
C  C141  1  0.90034058  0.34236742  0.96158647  1  1.63767  0  0.23211  0.635134  0  4.185921  0
C  C142  1  0.11961951  0.65926115  0.32367961  1  1.549102  0  0.224014  0.628828  0  4.174861  0
C  C143  1  0.04365203  0.62618207  0.28563958  1  0.053109  0  -0.021772  -0.032709  0  4.021198  0
C  C144  1  0.89409913  0.57778308  0.28573224  1  -0.063049  0  -0.085578  -0.186517  0  3.888619  0
C  C145  1  0.16965509  0.95082253  0.41976307  1  1.560833  0  0.212496  0.607012  0  4.213513  0
C  C146  1  0.29521868  0.02728310  0.43742811  1  -0.087814  0  -0.004967  -0.011913  0  3.981361  0
C  C147  1  0.41476166  0.07239368  0.41364447  1  0.012375  0  -0.069723  -0.186949  0  3.887717  0
C  C148  1  0.52023761  0.15320802  0.43052435  1  0.205854  0  0.085216  0.240242  0  3.95364  0
C  C149  1  0.51655444  0.18210688  0.47053926  1  -0.027721  0  -0.077458  -0.179347  0  3.912074  0
C  C150  1  0.40038601  0.13223799  0.49448419  1  -0.043491  0  -0.008918  -0.016587  0  3.961899  0
C  C151  1  0.28665687  0.05877105  0.47760124  1  0.060745  0  -0.070886  -0.122942  0  3.920427  0
C  C152  1  0.40031322  0.15761564  0.53841550  1  1.637688  0  0.231944  0.634929  0  4.185806  0
C  C153  1  0.38035624  0.15924269  0.67631839  1  1.549025  0  0.223712  0.628124  0  4.175483  0
C  C154  1  0.45633226  0.12615069  0.71435705  1  0.053453  0  -0.021859  -0.032699  0  4.021385  0
C  C155  1  0.60587560  0.07774061  0.71426134  1  -0.064308  0  -0.08544  -0.186394  0  3.888139  0
C  C156  1  0.33036742  0.45084905  0.58023914  1  1.560704  0  0.212678  0.607607  0  4.212458  0
C  C157  1  0.20479468  0.52729707  0.56257477  1  -0.088105  0  -0.005061  -0.012284  0  3.981971  0
C  C158  1  0.08525383  0.57239358  0.58635913  1  0.012575  0  -0.069784  -0.187091  0  3.887538  0
C  C159  1  0.97976071  0.65320670  0.56947969  1  0.206458  0  0.085288  0.24045  0  3.953315  0
C  C160  1  0.98343641  0.68209735  0.52946361  1  -0.028301  0  -0.077647  -0.179536  0  3.912338  0
C  C161  1  0.09960419  0.63222410  0.50551729  1  -0.04317  0  -0.00887  -0.016757  0  3.962345  0
C  C162  1  0.21333290  0.55877043  0.52240070  1  0.060413  0  -0.070822  -0.122548  0  3.92066  0
C  C163  1  0.09963706  0.65762299  0.46158581  1  1.637031  0  0.23218  0.635171  0  4.185507  0
C  C164  1  0.12116083  0.64869894  0.24999640  1  -0.115748  0  -0.091468  -0.1309  0  3.931536  0
C  C165  1  0.81729470  0.55099193  0.24999450  1  0.427299  0  0.099133  0.304546  0  4.105778  0
C  C166  1  0.37883203  0.14867604  0.75000103  1  -0.115688  0  -0.091528  -0.131198  0  3.9319  0
C  C167  1  0.68269216  0.05094258  0.74999930  1  0.429197  0  0.098994  0.304372  0  4.105836  0
C  C168  1  0.87885598  0.35127794  0.75000178  1  -0.115707  0  -0.09135  -0.130644  0  3.931028  0
C  C169  1  0.18269436  0.44902766  0.75000012  1  0.427375  0  0.099081  0.304488  0  4.105953  0
C  C170  1  0.62116743  0.85130720  0.24999774  1  -0.116697  0  -0.091517  -0.131115  0  3.931779  0
C  C171  1  0.31730846  0.94905065  0.24999888  1  0.429019  0  0.099079  0.304407  0  4.105927  0
N  N172  1  0.92437333  0.07303717  0.14783135  1  0.834412  0  0.101014  0.710382  0  4.431824  0
N  N173  1  0.63698573  0.20804562  0.09518742  1  -1.147013  0  -0.577677  -0.460975  0  3.40363  0
N  N174  1  0.57567181  0.57307531  0.85217482  1  0.83468  0  0.101288  0.711007  0  4.432424  0
N  N175  1  0.86304961  0.70803567  0.90481999  1  -1.146525  0  -0.577504  -0.460983  0  3.40362  0
N  N176  1  0.07563643  0.92695115  0.64782254  1  0.833932  0  0.101041  0.710619  0  4.431866  0
N  N177  1  0.36301417  0.79195639  0.59518809  1  -1.146892  0  -0.57772  -0.460883  0  3.403734  0
N  N178  1  0.42434510  0.42693465  0.35217476  1  0.83496  0  0.10106  0.71043  0  4.433083  0
N  N179  1  0.13695405  0.29195969  0.40481953  1  -1.146737  0  -0.577497  -0.460917  0  3.403708  0
N  N180  1  0.07564348  0.92696606  0.85217098  1  0.834103  0  0.10089  0.710124  0  4.432255  0
N  N181  1  0.36303454  0.79197851  0.90481816  1  -1.146832  0  -0.57748  -0.461111  0  3.403843  0
N  N182  1  0.42436349  0.42696882  0.14783047  1  0.834767  0  0.100964  0.710112  0  4.432312  0
N  N183  1  0.13697298  0.29196393  0.09518560  1  -1.146999  0  -0.577435  -0.460808  0  3.403477  0
N  N184  1  0.92436997  0.07300846  0.35216793  1  0.833905  0  0.100748  0.710212  0  4.432432  0
N  N185  1  0.63698183  0.20802685  0.40481869  1  -1.146838  0  -0.577411  -0.460814  0  3.40359  0
N  N186  1  0.57566246  0.57305041  0.64783172  1  0.833953  0  0.100983  0.710136  0  4.432376  0
N  N187  1  0.86301189  0.70802809  0.59518073  1  -1.147023  0  -0.577432  -0.460837  0  3.403733  0
N  N188  1  0.67225090  0.49920844  0.24999246  1  -1.228168  0  -0.599306  -0.619578  0  3.307606  0
N  N189  1  0.82772830  0.99916454  0.74999695  1  -1.228898  0  -0.599445  -0.619746  0  3.308117  0
N  N190  1  0.32773353  0.50082024  0.74999979  1  -1.228326  0  -0.599373  -0.619667  0  3.307992  0
N  N191  1  0.17227463  0.00082688  0.25000094  1  -1.229111  0  -0.599384  -0.619617  0  3.308287  0
O  O192  1  0.20286189  0.85986849  0.10223447  1  -1.206353  0  -0.397024  -0.709204  0  2.359006  0
O  O193  1  0.03176551  0.98266927  0.07305329  1  -1.163269  0  -0.36511  -0.616638  0  2.180624  0
O  O194  1  0.03879642  0.65986952  0.14411289  1  -1.231535  0  -0.428801  -0.738548  0  2.325364  0
O  O195  1  0.26254238  0.68624606  0.17628031  1  -1.196091  0  -0.392507  -0.647494  0  2.278054  0
O  O196  1  0.51728297  0.21386291  0.94832136  1  -1.205571  0  -0.393919  -0.654243  0  2.310577  0
O  O197  1  0.28616728  0.11979029  0.94156059  1  -1.20231  0  -0.390521  -0.656635  0  2.289494  0
O  O198  1  0.80043984  0.03469227  0.13031187  1  -0.599045  0  -0.212151  -0.483574  0  2.103431  0
O  O199  1  0.01877545  0.99472366  0.15977105  1  -0.4992  0  -0.151514  -0.420679  0  1.993962  0
O  O200  1  0.94615512  0.18540666  0.15138564  1  -0.526544  0  -0.177085  -0.417381  0  1.937826  0
O  O201  1  0.29712744  0.35988670  0.89775894  1  -1.206348  0  -0.397012  -0.709122  0  2.359008  0
O  O202  1  0.46825191  0.48265702  0.92694706  1  -1.163363  0  -0.364975  -0.616374  0  2.180541  0
O  O203  1  0.46120825  0.15989842  0.85588154  1  -1.231111  0  -0.428734  -0.738388  0  2.325326  0
O  O204  1  0.23746285  0.18622865  0.82371480  1  -1.195956  0  -0.392378  -0.647405  0  2.2781  0
O  O205  1  0.98272128  0.71382790  0.05167995  1  -1.205476  0  -0.393666  -0.653932  0  2.310906  0
O  O206  1  0.21385271  0.61976882  0.05844216  1  -1.202077  0  -0.390502  -0.656558  0  2.289713  0
O  O207  1  0.69961373  0.53468924  0.86968509  1  -0.599121  0  -0.212356  -0.483871  0  2.103623  0
O  O208  1  0.48124685  0.49479405  0.84022893  1  -0.499026  0  -0.151391  -0.420547  0  1.994311  0
O  O209  1  0.55392598  0.68545521  0.84864024  1  -0.526865  0  -0.177196  -0.417775  0  1.938372  0
O  O210  1  0.79708244  0.14012722  0.60224221  1  -1.206733  0  -0.396875  -0.70902  0  2.359119  0
O  O211  1  0.96820225  0.01738697  0.57304617  1  -1.163381  0  -0.364977  -0.616499  0  2.181311  0
O  O212  1  0.96120876  0.34011830  0.64412087  1  -1.231075  0  -0.428794  -0.73859  0  2.325569  0
O  O213  1  0.73745900  0.31377161  0.67628444  1  -1.1958  0  -0.392369  -0.647508  0  2.277772  0
O  O214  1  0.48271677  0.78616205  0.44831588  1  -1.20505  0  -0.393832  -0.654102  0  2.31067  0
O  O215  1  0.71384641  0.88021919  0.44156226  1  -1.202554  0  -0.390394  -0.656495  0  2.289657  0
O  O216  1  0.19956780  0.96531001  0.63030781  1  -0.598762  0  -0.21228  -0.483815  0  2.103511  0
O  O217  1  0.98121916  0.00525176  0.65976196  1  -0.498721  0  -0.151423  -0.420542  0  1.993998  0
O  O218  1  0.05386039  0.81457851  0.65137278  1  -0.526615  0  -0.177099  -0.417583  0  1.937963  0
O  O219  1  0.70286357  0.64012133  0.39776282  1  -1.206347  0  -0.397068  -0.709209  0  2.359083  0
O  O220  1  0.53175383  0.51733865  0.42694776  1  -1.163419  0  -0.365074  -0.616505  0  2.180413  0
O  O221  1  0.53881903  0.84009387  0.35588077  1  -1.2315  0  -0.428828  -0.738668  0  2.325473  0
O  O222  1  0.76255551  0.81377105  0.32370821  1  -1.195859  0  -0.39228  -0.647231  0  2.27821  0
O  O223  1  0.01721779  0.28614179  0.55168450  1  -1.204862  0  -0.393657  -0.653893  0  2.311502  0
O  O224  1  0.78610942  0.38023180  0.55844053  1  -1.202707  0  -0.390516  -0.656597  0  2.289404  0
O  O225  1  0.30040069  0.46530949  0.36968240  1  -0.598962  0  -0.212101  -0.483585  0  2.103655  0
O  O226  1  0.51877018  0.50522427  0.34023204  1  -0.499531  0  -0.151405  -0.420427  0  1.994534  0
O  O227  1  0.44610253  0.31456063  0.34863682  1  -0.526765  0  -0.177209  -0.417639  0  1.938409  0
O  O228  1  0.79713642  0.14012293  0.89775956  1  -1.20659  0  -0.397021  -0.709048  0  2.35919  0
O  O229  1  0.96824089  0.01734851  0.92694963  1  -1.163094  0  -0.365033  -0.616501  0  2.180528  0
O  O230  1  0.96120189  0.34012281  0.85588559  1  -1.231533  0  -0.428736  -0.738442  0  2.325615  0
O  O231  1  0.73746633  0.31376354  0.82371609  1  -1.196169  0  -0.392509  -0.647475  0  2.278221  0
O  O232  1  0.48266100  0.78616395  0.05167415  1  -1.204791  0  -0.393852  -0.654326  0  2.310085  0
O  O233  1  0.71382410  0.88017386  0.05844203  1  -1.202255  0  -0.390537  -0.656712  0  2.289934  0
O  O234  1  0.19958507  0.96532550  0.86968542  1  -0.59882  0  -0.212168  -0.483627  0  2.103735  0
O  O235  1  0.98123211  0.00527049  0.84023187  1  -0.498913  0  -0.151375  -0.420454  0  1.994043  0
O  O236  1  0.05387210  0.81459475  0.84862173  1  -0.526624  0  -0.177048  -0.417207  0  1.93802  0
O  O237  1  0.70286624  0.64010472  0.10223480  1  -1.206461  0  -0.397091  -0.709362  0  2.359221  0
O  O238  1  0.53176143  0.51733167  0.07304608  1  -1.16329  0  -0.365074  -0.616632  0  2.180258  0
O  O239  1  0.53881549  0.84010481  0.14411546  1  -1.2316  0  -0.428687  -0.738538  0  2.325314  0
O  O240  1  0.76255973  0.81378186  0.17628605  1  -1.195802  0  -0.392235  -0.647053  0  2.278144  0
O  O241  1  0.01729090  0.28611808  0.94832593  1  -1.205762  0  -0.393982  -0.654273  0  2.310477  0
O  O242  1  0.78617219  0.38018625  0.94156076  1  -1.202321  0  -0.390454  -0.656647  0  2.289837  0
O  O243  1  0.30041695  0.46531581  0.13031457  1  -0.598808  0  -0.212118  -0.483505  0  2.103556  0
O  O244  1  0.51876417  0.50528734  0.15976954  1  -0.499219  0  -0.151478  -0.42053  0  1.994106  0
O  O245  1  0.44615326  0.31459891  0.15138224  1  -0.527009  0  -0.177089  -0.417276  0  1.938145  0
O  O246  1  0.20289043  0.85987692  0.39775982  1  -1.207022  0  -0.396978  -0.709011  0  2.359336  0
O  O247  1  0.03177641  0.98263989  0.42695201  1  -1.163189  0  -0.365015  -0.616471  0  2.180698  0
O  O248  1  0.03879302  0.65987766  0.35587820  1  -1.23177  0  -0.428874  -0.738837  0  2.325602  0
O  O249  1  0.26253353  0.68624071  0.32371226  1  -1.196345  0  -0.392422  -0.647597  0  2.278172  0
O  O250  1  0.51727460  0.21386663  0.55167904  1  -1.205328  0  -0.393891  -0.654202  0  2.310301  0
O  O251  1  0.28614381  0.11980494  0.55843740  1  -1.20279  0  -0.390444  -0.656608  0  2.289723  0
O  O252  1  0.80042936  0.03467322  0.36968741  1  -0.59879  0  -0.212238  -0.483596  0  2.103315  0
O  O253  1  0.01875950  0.99468331  0.34023178  1  -0.498997  0  -0.151318  -0.420498  0  1.994522  0
O  O254  1  0.94616913  0.18537201  0.34860969  1  -0.526299  0  -0.17697  -0.417301  0  1.938193  0
O  O255  1  0.29715786  0.35987190  0.60223092  1  -1.2062  0  -0.397259  -0.70942  0  2.359289  0
O  O256  1  0.46824679  0.48270275  0.57305990  1  -1.163604  0  -0.364997  -0.616637  0  2.17993  0
O  O257  1  0.46118275  0.15989028  0.64411652  1  -1.231561  0  -0.428767  -0.738558  0  2.325466  0
O  O258  1  0.23744743  0.18621855  0.67628848  1  -1.196106  0  -0.392222  -0.647109  0  2.278252  0
O  O259  1  0.98267069  0.71385599  0.44832850  1  -1.205188  0  -0.393871  -0.654154  0  2.3103  0
O  O260  1  0.21381722  0.61982414  0.44156002  1  -1.202156  0  -0.390641  -0.656788  0  2.289446  0
O  O261  1  0.69960224  0.53468102  0.63032022  1  -0.598864  0  -0.212155  -0.483503  0  2.103672  0
O  O262  1  0.48123160  0.49475351  0.65976999  1  -0.498719  0  -0.151267  -0.42031  0  1.994097  0
O  O263  1  0.55390272  0.68542534  0.65137648  1  -0.526645  0  -0.17721  -0.417463  0  1.938251  0
