# generated using pymatgen
data_LiH5C5SO4
_symmetry_space_group_name_H-M   'P 1'
_cell_length_a   7.80319972
_cell_length_b   7.96936119
_cell_length_c   10.91267937
_cell_angle_alpha   104.45387858
_cell_angle_beta   90.00001699
_cell_angle_gamma   90.00006954
_symmetry_Int_Tables_number   1
_chemical_formula_structural   LiH5C5SO4
_chemical_formula_sum   'Li4 H20 C20 S4 O16'
_cell_volume   657.14238745
_cell_formula_units_Z   4
loop_
 _symmetry_equiv_pos_site_id
 _symmetry_equiv_pos_as_xyz
  1  'x, y, z'
loop_
 _atom_site_type_symbol
 _atom_site_label
 _atom_site_symmetry_multiplicity
 _atom_site_fract_x
 _atom_site_fract_y
 _atom_site_fract_z
 _atom_site_occupancy
 _atom_site_pbe_bader_spin_density
 _atom_site_pbe_cm5_charge
 _atom_site_pbe_ddec_charge
 _atom_site_pbe_ddec_spin_density
 _atom_site_pbe_ddec_sum_bond_order
 _atom_site_pbe_magmom
Li  Li0  1  0.64580751  0.74742254  0.91016640  1  0  0.532958  0.832615  0  0.485945  0
Li  Li1  1  0.14580606  0.75257752  0.08983402  1  0  0.532939  0.832599  0  0.485965  0
Li  Li2  1  0.35419206  0.25257639  0.08983345  1  0  0.532968  0.832627  0  0.485922  0
Li  Li3  1  0.85419351  0.24742270  0.91016515  1  0  0.532953  0.832613  0  0.485938  0
H  H4  1  0.54388629  0.42642699  0.86550099  1  0  0.305502  0.396085  0  0.939102  0
H  H5  1  0.04388591  0.07357299  0.13449953  1  0  0.305502  0.396076  0  0.939124  0
H  H6  1  0.45611456  0.57357065  0.13449771  1  0  0.305532  0.396092  0  0.939074  0
H  H7  1  0.95611237  0.92642724  0.86550056  1  0  0.305506  0.396082  0  0.939112  0
H  H8  1  0.38729292  0.55657693  0.88142351  1  0  0.30832  0.401617  0  0.926589  0
H  H9  1  0.88729303  0.94342346  0.11857611  1  0  0.308323  0.401624  0  0.926579  0
H  H10  1  0.61270664  0.44342200  0.11857451  1  0  0.308331  0.401647  0  0.926575  0
H  H11  1  0.11270654  0.05657677  0.88142398  1  0  0.30833  0.401621  0  0.926584  0
H  H12  1  0.32734192  0.68448253  0.72821883  1  0  0.114524  0.119928  0  1.040759  0
H  H13  1  0.82734193  0.81552167  0.27178239  1  0  0.114514  0.119917  0  1.040756  0
H  H14  1  0.67265892  0.31551770  0.27178126  1  0  0.114526  0.119925  0  1.040788  0
H  H15  1  0.17265635  0.18447986  0.72821977  1  0  0.114515  0.119935  0  1.040744  0
H  H16  1  0.74987485  0.45570091  0.67314381  1  0  0.116472  0.116488  0  1.030355  0
H  H17  1  0.24987579  0.04430063  0.32685614  1  0  0.116464  0.116483  0  1.030355  0
H  H18  1  0.25012215  0.54430061  0.32685652  1  0  0.116475  0.116504  0  1.030337  0
H  H19  1  0.75012378  0.95569959  0.67314487  1  0  0.116473  0.116467  0  1.030342  0
H  H20  1  0.43220014  0.66412092  0.51094199  1  0  0.104884  0.105004  0  1.012589  0
H  H21  1  0.93220154  0.83588083  0.48905789  1  0  0.104889  0.10498  0  1.012633  0
H  H22  1  0.56779943  0.33587931  0.48905718  1  0  0.104899  0.105011  0  1.012562  0
H  H23  1  0.06779931  0.16411811  0.51094197  1  0  0.104918  0.105028  0  1.01259  0
C  C24  1  0.08232569  0.57198245  0.66655428  1  0  -0.013839  -0.146719  0  3.932663  0
C  C25  1  0.58232842  0.92802141  0.33344499  1  0  -0.013903  -0.146863  0  3.932583  0
C  C26  1  0.91767260  0.42801648  0.33344466  1  0  -0.013866  -0.146817  0  3.93253  0
C  C27  1  0.41767627  0.07198141  0.66655557  1  0  -0.013889  -0.146829  0  3.932757  0
C  C28  1  0.24419521  0.63089953  0.64811784  1  0  -0.079011  -0.081899  0  3.977284  0
C  C29  1  0.74419789  0.86910066  0.35188264  1  0  -0.078953  -0.08178  0  3.977119  0
C  C30  1  0.75580435  0.36909811  0.35188178  1  0  -0.078955  -0.08182  0  3.977196  0
C  C31  1  0.25580425  0.13089697  0.64811790  1  0  -0.079018  -0.081936  0  3.977219  0
C  C32  1  0.96870688  0.50456159  0.56293439  1  0  0.0027  0.061563  0  3.965268  0
C  C33  1  0.46870843  0.99544021  0.43706367  1  0  0.002732  0.061569  0  3.965286  0
C  C34  1  0.03129268  0.49543864  0.43706478  1  0  0.002704  0.061585  0  3.965259  0
C  C35  1  0.53129242  0.00456002  0.56293917  1  0  0.00279  0.061726  0  3.965225  0
C  C36  1  0.79958136  0.44716242  0.57874519  1  0  -0.074983  -0.116185  0  3.935679  0
C  C37  1  0.29958107  0.05283530  0.42125407  1  0  -0.075  -0.116201  0  3.93569  0
C  C38  1  0.20041693  0.55283651  0.42125375  1  0  -0.074975  -0.116188  0  3.93567  0
C  C39  1  0.70041722  0.94716492  0.57874694  1  0  -0.074998  -0.11622  0  3.935711  0
C  C40  1  0.30322481  0.61975515  0.52435799  1  0  -0.081963  -0.058763  0  3.988647  0
C  C41  1  0.80322627  0.88024771  0.47564206  1  0  -0.081967  -0.058748  0  3.988708  0
C  C42  1  0.69677347  0.38024637  0.47564142  1  0  -0.081954  -0.058722  0  3.988647  0
C  C43  1  0.19677202  0.11975252  0.52435803  1  0  -0.081976  -0.058738  0  3.988594  0
S  S44  1  0.01736007  0.58149041  0.82447414  1  0  0.562349  1.24609  0  6.127991  0
S  S45  1  0.51735760  0.91850948  0.17552531  1  0  0.562404  1.246238  0  6.12783  0
S  S46  1  0.98264206  0.41850852  0.17552480  1  0  0.562375  1.246176  0  6.127844  0
S  S47  1  0.48264196  0.08149205  0.82447594  1  0  0.562435  1.246255  0  6.12778  0
O  O48  1  0.87899003  0.71230042  0.85422766  1  0  -0.385176  -0.683654  0  2.265796  0
O  O49  1  0.37899120  0.78769866  0.14577172  1  0  -0.385167  -0.683692  0  2.265795  0
O  O50  1  0.12100954  0.28769851  0.14577219  1  0  -0.385177  -0.683679  0  2.265778  0
O  O51  1  0.62100965  0.21230157  0.85422745  1  0  -0.38517  -0.683665  0  2.265739  0
O  O52  1  0.95873533  0.40830872  0.82703996  1  0  -0.379474  -0.655337  0  2.232505  0
O  O53  1  0.45873114  0.09169182  0.17295985  1  0  -0.379519  -0.655389  0  2.232404  0
O  O54  1  0.04126809  0.59169410  0.17296061  1  0  -0.379499  -0.655369  0  2.232463  0
O  O55  1  0.54126971  0.90830582  0.82704069  1  0  -0.379525  -0.655396  0  2.232429  0
O  O56  1  0.16778046  0.63979687  0.90599448  1  0  -0.368579  -0.676005  0  2.258291  0
O  O57  1  0.66777918  0.86020841  0.09400782  1  0  -0.368602  -0.676042  0  2.25833  0
O  O58  1  0.83222167  0.36020595  0.09400700  1  0  -0.368601  -0.676049  0  2.25834  0
O  O59  1  0.33222167  0.13979312  0.90599251  1  0  -0.368611  -0.676039  0  2.258308  0
O  O60  1  0.51082557  0.54499467  0.86374300  1  0  -0.664707  -0.860853  0  1.949401  0
O  O61  1  0.01082438  0.95500650  0.13625668  1  0  -0.664699  -0.860843  0  1.949436  0
O  O62  1  0.48917400  0.45500296  0.13624929  1  0  -0.664742  -0.860896  0  1.949368  0
O  O63  1  0.98917390  0.04499373  0.86374249  1  0  -0.664714  -0.860837  0  1.949396  0
