# generated using pymatgen
data_K2H14RuC16(N2O)3
_symmetry_space_group_name_H-M   'P 1'
_cell_length_a   6.89521177
_cell_length_b   10.20472542
_cell_length_c   15.48701026
_cell_angle_alpha   70.74097481
_cell_angle_beta   85.27677164
_cell_angle_gamma   75.53640720
_symmetry_Int_Tables_number   1
_chemical_formula_structural   K2H14RuC16(N2O)3
_chemical_formula_sum   'K4 H28 Ru2 C32 N12 O6'
_cell_volume   996.13554220
_cell_formula_units_Z   2
loop_
 _symmetry_equiv_pos_site_id
 _symmetry_equiv_pos_as_xyz
  1  'x, y, z'
loop_
 _atom_site_type_symbol
 _atom_site_label
 _atom_site_symmetry_multiplicity
 _atom_site_fract_x
 _atom_site_fract_y
 _atom_site_fract_z
 _atom_site_occupancy
 _atom_site_hle17_bader_spin_density
 _atom_site_hle17_ddec_charge
 _atom_site_hle17_ddec_spin_density
 _atom_site_hle17_ddec_sum_bond_order
 _atom_site_hle17_magmom
 _atom_site_hse06_10hf_bader_spin_density
 _atom_site_hse06_10hf_ddec_charge
 _atom_site_hse06_10hf_ddec_spin_density
 _atom_site_hse06_10hf_ddec_sum_bond_order
 _atom_site_hse06_10hf_magmom
 _atom_site_hse06_bader_spin_density
 _atom_site_hse06_ddec_charge
 _atom_site_hse06_ddec_spin_density
 _atom_site_hse06_ddec_sum_bond_order
 _atom_site_hse06_magmom
 _atom_site_pbe_bader_spin_density
 _atom_site_pbe_cm5_charge
 _atom_site_pbe_ddec_charge
 _atom_site_pbe_ddec_spin_density
 _atom_site_pbe_ddec_sum_bond_order
 _atom_site_pbe_magmom
K  K0  1  0.84086428  0.12372007  0.92587146  1  0  0.913414  0  0.475248  0  0  0.865903  0  0.660094  0  0  0.876967  0  0.641367  0  0  0.795857  0.857361  0  0.673865  0
K  K1  1  0.34140430  0.04886571  0.07438981  1  0  0.913182  0  0.475237  0  0  0.865834  0  0.659802  0  0  0.876912  0  0.641062  0  0  0.795732  0.857271  0  0.673596  0
K  K2  1  0.39717488  0.48533618  0.93329423  1  0  0.90509  0  0.530525  0  0  0.855485  0  0.729735  0  0  0.866281  0  0.712311  0  0  0.856546  0.847233  0  0.74229  0
K  K3  1  0.89716965  0.41902687  0.06655208  1  0  0.905408  0  0.53061  0  0  0.855897  0  0.729787  0  0  0.866688  0  0.712355  0  0  0.857142  0.847655  0  0.742335  0
H  H4  1  0.57509553  0.29247312  0.69215142  1  0  0.09559  0  0.932295  0  0  0.103875  0  0.995302  0  0  0.10617  0  0.993513  0  0  0.127331  0.102075  0  0.996685  0
H  H5  1  0.07516687  0.98462762  0.30782956  1  0  0.095903  0  0.932274  0  0  0.104429  0  0.995156  0  0  0.106797  0  0.993315  0  0  0.127353  0.102609  0  0.996553  0
H  H6  1  0.77052715  0.30570603  0.55057908  1  0  0.105777  0  0.956893  0  0  0.117253  0  1.01642  0  0  0.119559  0  1.01687  0  0  0.108668  0.115489  0  1.016655  0
H  H7  1  0.27061333  0.85613434  0.44940625  1  0  0.105822  0  0.957214  0  0  0.117114  0  1.016967  0  0  0.119482  0  1.017342  0  0  0.108497  0.115354  0  1.0172  0
H  H8  1  0.60438630  0.45007257  0.39665972  1  0  0.113802  0  0.949593  0  0  0.124319  0  1.010233  0  0  0.127202  0  1.008245  0  0  0.108261  0.122286  0  1.011446  0
H  H9  1  0.10459727  0.84666802  0.60332124  1  0  0.114266  0  0.949354  0  0  0.124492  0  1.010453  0  0  0.127464  0  1.008342  0  0  0.107909  0.1224  0  1.011747  0
H  H10  1  0.28865518  0.60873215  0.31219479  1  0  0.104162  0  0.938428  0  0  0.116652  0  0.995674  0  0  0.119939  0  0.993888  0  0  0.110135  0.114166  0  0.997229  0
H  H11  1  0.78898604  0.92086132  0.68777475  1  0  0.103809  0  0.938418  0  0  0.116702  0  0.995201  0  0  0.12006  0  0.993342  0  0  0.110093  0.114167  0  0.99682  0
H  H12  1  0.92241439  0.71599161  0.31574931  1  0  0.114792  0  0.939089  0  0  0.126639  0  0.995475  0  0  0.129723  0  0.994426  0  0  0.111986  0.124309  0  0.996422  0
H  H13  1  0.42270645  0.03160863  0.68421929  1  0  0.114761  0  0.939348  0  0  0.125834  0  0.996492  0  0  0.128963  0  0.995389  0  0  0.111705  0.123507  0  0.997439  0
H  H14  1  0.60930462  0.76458561  0.40823984  1  0  0.117798  0  0.961478  0  0  0.127974  0  1.022471  0  0  0.130958  0  1.020411  0  0  0.108105  0.125772  0  1.023867  0
H  H15  1  0.10956030  0.17254434  0.59179269  1  0  0.118193  0  0.960791  0  0  0.128515  0  1.021642  0  0  0.131569  0  1.0195  0  0  0.108553  0.126307  0  1.023043  0
H  H16  1  0.45474139  0.73609030  0.56633244  1  0  0.103162  0  0.957122  0  0  0.115188  0  1.016213  0  0  0.117463  0  1.016809  0  0  0.10734  0.113473  0  1.016341  0
H  H17  1  0.95473702  0.30209978  0.43374119  1  0  0.103247  0  0.956809  0  0  0.115034  0  1.016181  0  0  0.117377  0  1.016682  0  0  0.107213  0.113286  0  1.016333  0
H  H18  1  0.66342746  0.59458321  0.70329743  1  0  0.086108  0  0.944052  0  0  0.095271  0  1.008366  0  0  0.09749  0  1.006561  0  0  0.122791  0.093497  0  1.00988  0
H  H19  1  0.16326587  0.29756451  0.29671984  1  0  0.085642  0  0.944589  0  0  0.095115  0  1.008735  0  0  0.097222  0  1.007077  0  0  0.12258  0.093355  0  1.010239  0
H  H20  1  0.61286107  0.77511933  0.80170796  1  0  0.414531  0  0.83392  0  0  0.398136  0  0.887612  0  0  0.404987  0  0.880309  0  0  0.320131  0.393259  0  0.892907  0
H  H21  1  0.11274812  0.57647279  0.19834607  1  0  0.413896  0  0.834762  0  0  0.397744  0  0.888043  0  0  0.404576  0  0.880782  0  0  0.319987  0.392883  0  0.893308  0
H  H22  1  0.38881745  0.76626099  0.80071439  1  0  0.414164  0  0.901318  0  0  0.372255  0  0.983137  0  0  0.384052  0  0.966141  0  0  0.279467  0.364003  0  0.994942  0
H  H23  1  0.88866838  0.56659851  0.19933819  1  0  0.415594  0  0.899585  0  0  0.373323  0  0.98183  0  0  0.385133  0  0.964839  0  0  0.280364  0.365074  0  0.993615  0
H  H24  1  0.96649801  0.73419763  0.95264401  1  0  0.423099  0  0.827807  0  0  0.408863  0  0.876611  0  0  0.416659  0  0.867963  0  0  0.330453  0.403112  0  0.883227  0
H  H25  1  0.46621921  0.68640991  0.04740939  1  0  0.421999  0  0.829247  0  0  0.408163  0  0.877535  0  0  0.415908  0  0.868995  0  0  0.330239  0.40244  0  0.884099  0
H  H26  1  0.04358416  0.66299734  0.05400515  1  0  0.419227  0  0.890612  0  0  0.387012  0  0.957127  0  0  0.397877  0  0.941187  0  0  0.287359  0.379297  0  0.96846  0
H  H27  1  0.54326344  0.71721307  0.94599315  1  0  0.419843  0  0.889795  0  0  0.387504  0  0.956511  0  0  0.398396  0  0.940522  0  0  0.28802  0.379787  0  0.967848  0
H  H28  1  0.79438504  0.84489099  0.10047264  1  0  0.435572  0  0.831893  0  0  0.415347  0  0.884755  0  0  0.423401  0  0.873102  0  0  0.313599  0.409364  0  0.893507  0
H  H29  1  0.29374444  0.94607756  0.89950219  1  0  0.436174  0  0.83129  0  0  0.416015  0  0.883858  0  0  0.424053  0  0.872232  0  0  0.313965  0.410036  0  0.892607  0
H  H30  1  0.67551892  0.80752309  0.03413675  1  0  0.40486  0  0.905335  0  0  0.377487  0  0.96431  0  0  0.387926  0  0.948714  0  0  0.28598  0.370013  0  0.975521  0
H  H31  1  0.17539891  0.84192732  0.96583128  1  0  0.40481  0  0.905  0  0  0.377482  0  0.964009  0  0  0.387914  0  0.948417  0  0  0.285954  0.370031  0  0.975183  0
Ru  Ru32  1  0.11919998  0.42159576  0.74126458  1  0  0.211391  0  4.826178  0  0  0.229929  0  5.355445  0  0  0.201479  0  5.372905  0  0  0.696251  0.252855  0  5.337461  0
Ru  Ru33  1  0.61916958  0.16271944  0.25870668  1  0  0.212427  0  4.821834  0  0  0.230833  0  5.3507  0  0  0.202539  0  5.368019  0  0  0.696071  0.25375  0  5.332741  0
C  C34  1  0.50431771  0.35382012  0.62598678  1  0  0.129215  0  3.647223  0  0  0.094619  0  3.908909  0  0  0.103392  0  3.922685  0  0  0.059336  0.089024  0  3.899896  0
C  C35  1  0.00439192  0.97978906  0.37399099  1  0  0.129196  0  3.649081  0  0  0.093892  0  3.911251  0  0  0.102593  0  3.925058  0  0  0.059511  0.08834  0  3.902266  0
C  C36  1  0.61372679  0.36260086  0.54469746  1  0  -0.111457  0  3.747162  0  0  -0.128713  0  4.009559  0  0  -0.134989  0  4.030527  0  0  -0.084591  -0.125131  0  3.996874  0
C  C37  1  0.11384402  0.90720321  0.45527213  1  0  -0.111127  0  3.748927  0  0  -0.127966  0  4.011267  0  0  -0.134306  0  4.032269  0  0  -0.083883  -0.124373  0  3.99856  0
C  C38  1  0.52272353  0.44127804  0.46100744  1  0  -0.055312  0  3.66826  0  0  -0.083058  0  3.92083  0  0  -0.079263  0  3.936786  0  0  -0.06834  -0.085167  0  3.910284  0
C  C39  1  0.02294811  0.90221523  0.53895864  1  0  -0.055729  0  3.670356  0  0  -0.083077  0  3.923033  0  0  -0.079336  0  3.938992  0  0  -0.068174  -0.085152  0  3.912483  0
C  C40  1  0.31774659  0.51119444  0.45924342  1  0  0.032603  0  3.79373  0  0  0.051049  0  4.023585  0  0  0.04847  0  4.047859  0  0  -0.0  0.05216  0  4.008032  0
C  C41  1  0.81793085  0.97032405  0.54071804  1  0  0.031563  0  3.794281  0  0  0.049379  0  4.025485  0  0  0.046745  0  4.049857  0  0  -0.00011  0.050533  0  4.00984  0
C  C42  1  0.21712646  0.49634787  0.54425511  1  0  0.114003  0  3.722961  0  0  0.104315  0  3.966125  0  0  0.108989  0  3.985056  0  0  0.110017  0.101205  0  3.953846  0
C  C43  1  0.71724329  0.04050316  0.45570671  1  0  0.114999  0  3.724318  0  0  0.104845  0  3.968704  0  0  0.109546  0  3.987658  0  0  0.110103  0.101765  0  3.956407  0
C  C44  1  0.00906533  0.56299558  0.54660022  1  0  0.113553  0  3.726438  0  0  0.104414  0  3.968523  0  0  0.109272  0  3.987468  0  0  0.110551  0.101157  0  3.95628  0
C  C45  1  0.50915093  0.10937685  0.45337518  1  0  0.111658  0  3.728346  0  0  0.102361  0  3.970492  0  0  0.107255  0  3.989502  0  0  0.109905  0.099129  0  3.958132  0
C  C46  1  0.20671034  0.59366082  0.37674332  1  0  -0.100709  0  3.73556  0  0  -0.123912  0  3.990979  0  0  -0.126947  0  4.012893  0  0  -0.079379  -0.122121  0  3.977348  0
C  C47  1  0.70694952  0.97025911  0.62323773  1  0  -0.100651  0  3.733762  0  0  -0.123889  0  3.98917  0  0  -0.12698  0  4.011131  0  0  -0.080273  -0.122068  0  3.975544  0
C  C48  1  0.00610038  0.65416336  0.37882441  1  0  -0.097325  0  3.723348  0  0  -0.118723  0  3.974046  0  0  -0.121582  0  3.996372  0  0  -0.079245  -0.11708  0  3.960158  0
C  C49  1  0.50635051  0.03280428  0.62116186  1  0  -0.096175  0  3.722326  0  0  -0.116901  0  3.972849  0  0  -0.119801  0  3.995137  0  0  -0.077924  -0.115264  0  3.958973  0
C  C50  1  0.90130754  0.64079021  0.46407312  1  0  0.032604  0  3.789052  0  0  0.050791  0  4.018537  0  0  0.048002  0  4.042604  0  0  0.000575  0.052098  0  4.003056  0
C  C51  1  0.40150942  0.10462982  0.53591158  1  0  0.03281  0  3.791502  0  0  0.051492  0  4.020156  0  0  0.048716  0  4.04424  0  0  0.000868  0.05279  0  4.004666  0
C  C52  1  0.69618048  0.70478010  0.47080587  1  0  -0.054951  0  3.66225  0  0  -0.08345  0  3.915177  0  0  -0.079301  0  3.930967  0  0  -0.068641  -0.085707  0  3.904767  0
C  C53  1  0.19634381  0.17525284  0.52920772  1  0  -0.055701  0  3.662955  0  0  -0.084535  0  3.915698  0  0  -0.080435  0  3.931485  0  0  -0.069367  -0.086801  0  3.905288  0
C  C54  1  0.61165900  0.68921615  0.55676646  1  0  -0.11342  0  3.754938  0  0  -0.131068  0  4.019083  0  0  -0.137621  0  4.040098  0  0  -0.085839  -0.127343  0  4.006336  0
C  C55  1  0.11166147  0.24563519  0.44326209  1  0  -0.113106  0  3.755144  0  0  -0.130527  0  4.019495  0  0  -0.137096  0  4.040381  0  0  -0.085291  -0.12678  0  4.006852  0
C  C56  1  0.72806980  0.61007766  0.63512402  1  0  0.122077  0  3.661782  0  0  0.086707  0  3.923745  0  0  0.09532  0  3.937863  0  0  0.053711  0.08113  0  3.914583  0
C  C57  1  0.22798333  0.24489605  0.36488523  1  0  0.121965  0  3.662769  0  0  0.08605  0  3.924771  0  0  0.094787  0  3.938993  0  0  0.053412  0.080392  0  3.915602  0
C  C58  1  0.20144203  0.59460837  0.74785061  1  0  -0.005285  0  3.608251  0  0  -0.047311  0  3.956465  0  0  -0.029814  0  3.967046  0  0  -0.048465  -0.05908  0  3.947238  0
C  C59  1  0.70111603  0.34243550  0.25202384  1  0  -0.003994  0  3.606305  0  0  -0.046036  0  3.954375  0  0  -0.028552  0  3.964955  0  0  -0.047705  -0.057794  0  3.945132  0
C  C60  1  0.03077838  0.24728593  0.73818219  1  0  -0.031751  0  3.623543  0  0  -0.060124  0  3.96856  0  0  -0.047478  0  3.982875  0  0  -0.053636  -0.068683  0  3.956867  0
C  C61  1  0.53091765  0.98518774  0.26188145  1  0  -0.032627  0  3.624002  0  0  -0.061056  0  3.968985  0  0  -0.048421  0  3.983258  0  0  -0.054267  -0.069602  0  3.957292  0
C  C62  1  0.31518255  0.29410692  0.83558481  1  0  0.010027  0  3.761499  0  0  -0.018306  0  4.106087  0  0  -0.001879  0  4.118064  0  0  -0.047554  -0.02995  0  4.09662  0
C  C63  1  0.81542613  0.12975379  0.16445590  1  0  0.009261  0  3.761552  0  0  -0.019108  0  4.106179  0  0  -0.002728  0  4.118216  0  0  -0.04792  -0.030729  0  4.096678  0
C  C64  1  0.92027561  0.43971110  0.83593560  1  0  0.024596  0  3.787035  0  0  -0.003053  0  4.131312  0  0  0.014539  0  4.142059  0  0  -0.038129  -0.015475  0  4.122648  0
C  C65  1  0.42017299  0.27541799  0.16403136  1  0  0.024867  0  3.788955  0  0  -0.002698  0  4.133297  0  0  0.014886  0  4.144072  0  0  -0.038232  -0.01512  0  4.124606  0
N  N66  1  0.31033655  0.41892622  0.62639865  1  0  -0.226642  0  3.365986  0  0  -0.171947  0  3.632293  0  0  -0.182586  0  3.651416  0  0  -0.329474  -0.165131  0  3.618715  0
N  N67  1  0.81041207  0.04529297  0.37357827  1  0  -0.226735  0  3.367578  0  0  -0.171488  0  3.63396  0  0  -0.182166  0  3.653177  0  0  -0.329926  -0.164796  0  3.620529  0
N  N68  1  0.97215053  0.14764157  0.73878675  1  0  -0.518632  0  2.779009  0  0  -0.475875  0  3.033633  0  0  -0.491587  0  3.044871  0  0  -0.464998  -0.464056  0  3.024938  0
N  N69  1  0.47229385  0.88612574  0.26132792  1  0  -0.51858  0  2.781699  0  0  -0.475823  0  3.036441  0  0  -0.491525  0  3.047665  0  0  -0.465281  -0.464  0  3.027743  0
N  N70  1  0.25043647  0.69359458  0.75524724  1  0  -0.532968  0  2.919383  0  0  -0.469728  0  3.183628  0  0  -0.489022  0  3.191763  0  0  -0.448478  -0.455693  0  3.176868  0
N  N71  1  0.75012358  0.44878198  0.24469238  1  0  -0.533846  0  2.919344  0  0  -0.470538  0  3.183645  0  0  -0.48981  0  3.191792  0  0  -0.448946  -0.456521  0  3.176881  0
N  N72  1  0.92237717  0.54828181  0.63081037  1  0  -0.221575  0  3.38219  0  0  -0.16525  0  3.645248  0  0  -0.175959  0  3.664948  0  0  -0.332158  -0.15836  0  3.631332  0
N  N73  1  0.42231724  0.17884138  0.36917552  1  0  -0.22027  0  3.380917  0  0  -0.163336  0  3.643337  0  0  -0.174236  0  3.663168  0  0  -0.331278  -0.156329  0  3.62933  0
N  N74  1  0.43025534  0.21907112  0.89461038  1  0  -0.635267  0  2.889299  0  0  -0.58792  0  3.166214  0  0  -0.605369  0  3.175738  0  0  -0.619455  -0.575362  0  3.159494  0
N  N75  1  0.93068025  0.11380867  0.10549393  1  0  -0.634741  0  2.889324  0  0  -0.587476  0  3.16621  0  0  -0.604919  0  3.1758  0  0  -0.618789  -0.574929  0  3.159453  0
N  N76  1  0.79613109  0.44912519  0.89276161  1  0  -0.665958  0  2.936038  0  0  -0.62121  0  3.225961  0  0  -0.638761  0  3.234633  0  0  -0.648947  -0.608596  0  3.219646  0
N  N77  1  0.29598050  0.34172511  0.10721196  1  0  -0.666407  0  2.937955  0  0  -0.621898  0  3.228181  0  0  -0.639455  0  3.236891  0  0  -0.648098  -0.609269  0  3.221839  0
O  O78  1  0.48676658  0.79352999  0.83383246  1  0  -0.83616  0  1.820105  0  0  -0.779399  0  1.984257  0  0  -0.798005  0  1.957778  0  0  -0.577288  -0.766177  0  2.003205  0
O  O79  1  0.98668318  0.62698137  0.16617487  1  0  -0.837132  0  1.818815  0  0  -0.780265  0  1.983775  0  0  -0.798859  0  1.957196  0  0  -0.578232  -0.767061  0  2.002744  0
O  O80  1  0.08767563  0.68168696  0.98832691  1  0  -0.863222  0  1.826749  0  0  -0.814141  0  1.990544  0  0  -0.832466  0  1.964357  0  0  -0.633349  -0.801139  0  2.009239  0
O  O81  1  0.58743214  0.67012184  0.01167013  1  0  -0.862461  0  1.82729  0  0  -0.813835  0  1.99094  0  0  -0.832128  0  1.964814  0  0  -0.633463  -0.800853  0  2.009584  0
O  O82  1  0.71853283  0.88763674  0.04329786  1  0  -0.891153  0  1.784865  0  0  -0.846721  0  1.942812  0  0  -0.863913  0  1.9144  0  0  -0.697211  -0.834533  0  1.963381  0
O  O83  1  0.21781023  0.93142112  0.95664878  1  0  -0.891446  0  1.784954  0  0  -0.847179  0  1.942487  0  0  -0.864404  0  1.914181  0  0  -0.697289  -0.834978  0  1.962974  0
