# generated using pymatgen
data_MnH44C16(Se3N2)2
_symmetry_space_group_name_H-M   'P 1'
_cell_length_a   12.55568307
_cell_length_b   16.23082824
_cell_length_c   17.03352847
_cell_angle_alpha   70.70312647
_cell_angle_beta   86.66955640
_cell_angle_gamma   83.34395406
_symmetry_Int_Tables_number   1
_chemical_formula_structural   MnH44C16(Se3N2)2
_chemical_formula_sum   'Mn4 H176 C64 Se24 N16'
_cell_volume   3253.42231012
_cell_formula_units_Z   4
loop_
 _symmetry_equiv_pos_site_id
 _symmetry_equiv_pos_as_xyz
  1  'x, y, z'
loop_
 _atom_site_type_symbol
 _atom_site_label
 _atom_site_symmetry_multiplicity
 _atom_site_fract_x
 _atom_site_fract_y
 _atom_site_fract_z
 _atom_site_occupancy
 _atom_site_pbe_bader_charge
 _atom_site_pbe_bader_spin_density
 _atom_site_pbe_cm5_charge
 _atom_site_pbe_ddec_charge
 _atom_site_pbe_ddec_spin_density
 _atom_site_pbe_ddec_sum_bond_order
 _atom_site_pbe_magmom
Mn  Mn0  1  0.98592879  0.25681201  0.25397196  1  1.280893  4.451108  0.454569  0.666266  4.549284  2.531252  4.335
Mn  Mn1  1  0.01408170  0.74318431  0.74602684  1  1.280857  4.451172  0.454597  0.666294  4.549435  2.531073  4.335
Mn  Mn2  1  0.50422043  0.76332332  0.76508732  1  1.277698  4.428123  0.451101  0.657364  4.528306  2.584659  4.316
Mn  Mn3  1  0.49577918  0.23667749  0.23491825  1  1.277685  4.428122  0.451121  0.657332  4.528244  2.584769  4.316
H  H4  1  0.79390829  0.35794016  0.20444557  1  0.404659  0.002731  0.265363  0.250808  0.001473  1.008119  0.002
H  H5  1  0.20610020  0.64205343  0.79556179  1  0.404131  0.002732  0.265371  0.250776  0.001473  1.008128  0.002
H  H6  1  0.79789225  0.32961178  0.30468805  1  0.40487  0.003951  0.266927  0.251008  0.002752  1.0175  0.002
H  H7  1  0.20211849  0.67037656  0.69532139  1  0.4052  0.00395  0.26695  0.251108  0.002752  1.017469  0.002
H  H8  1  0.90566990  0.47118211  0.18124252  1  0.061062  0.000322  0.080546  0.051244  2e-06  1.06246  0.0
H  H9  1  0.09433383  0.52881144  0.81876859  1  0.061274  0.000323  0.080531  0.051287  2e-06  1.062343  0.0
H  H10  1  0.93574826  0.43558342  0.28702423  1  0.01769  0.001298  0.092171  0.058541  0.000713  1.00569  0.0
H  H11  1  0.06425618  0.56441079  0.71298606  1  0.017739  0.001299  0.092197  0.058571  0.000714  1.00568  0.0
H  H12  1  0.75259049  0.48478182  0.32467811  1  -0.006003  0.000209  0.083959  0.078162  -2.8e-05  0.980129  0.0
H  H13  1  0.24741273  0.51521570  0.67532888  1  -0.006405  0.000209  0.083913  0.078106  -2.8e-05  0.980169  0.0
H  H14  1  0.70850439  0.50505463  0.22264937  1  0.007071  0.000349  0.083164  0.077737  5.1e-05  1.035724  0.0
H  H15  1  0.29150283  0.49493634  0.77735885  1  0.007036  0.000349  0.083192  0.077801  5.1e-05  1.035642  0.0
H  H16  1  0.74193368  0.64295073  0.25008327  1  0.033334  0.000362  0.08605  0.073994  0.000226  0.992622  0.0
H  H17  1  0.25806741  0.35704427  0.74991755  1  0.033249  0.000362  0.086071  0.073992  0.000226  0.992555  0.0
H  H18  1  0.81431626  0.62691812  0.16375161  1  -0.008532  4.5e-05  0.083142  0.07361  -3.5e-05  0.997509  0.0
H  H19  1  0.18568532  0.37307294  0.83625038  1  -0.008374  4.5e-05  0.083138  0.073578  -3.5e-05  0.997534  0.0
H  H20  1  0.98259327  0.57944084  0.24278160  1  0.022981  0.00011  0.079122  0.108508  -3.2e-05  1.035399  0.0
H  H21  1  0.01741106  0.42056660  0.75721645  1  0.023146  0.00011  0.07913  0.10851  -3.2e-05  1.03538  0.0
H  H22  1  0.91351161  0.58003672  0.33650519  1  -0.015381  3e-05  0.081578  0.105747  -1e-05  1.007323  0.0
H  H23  1  0.08649600  0.41997006  0.66349290  1  -0.015409  3e-05  0.081574  0.105756  -1e-05  1.007222  0.0
H  H24  1  0.92553086  0.67990571  0.25394606  1  0.000752  7e-05  0.084208  0.107333  4.5e-05  1.039397  0.0
H  H25  1  0.07446251  0.32009983  0.74604896  1  0.000741  7e-05  0.084191  0.107305  4.5e-05  1.039282  0.0
H  H26  1  0.04928811  0.18457458  0.41635795  1  0.425937  0.001885  0.264067  0.238982  0.001383  1.038602  0.001
H  H27  1  0.95072724  0.81542109  0.58363965  1  0.425907  0.001886  0.264091  0.239044  0.001384  1.038333  0.001
H  H28  1  0.05333259  0.29055912  0.38925470  1  0.391075  0.002296  0.284135  0.264933  0.001227  0.962326  0.001
H  H29  1  0.94668460  0.70943459  0.61074282  1  0.391151  0.002297  0.284172  0.264965  0.001228  0.962298  0.001
H  H30  1  0.85540652  0.20269605  0.44335852  1  0.035176  0.001918  0.089323  0.063995  0.001162  1.022844  0.0
H  H31  1  0.14460498  0.79730436  0.55662724  1  0.034727  0.001919  0.08931  0.063981  0.001162  1.022823  0.0
H  H32  1  0.86774640  0.31484859  0.42454794  1  0.031486  0.000325  0.099775  0.069496  -0.000225  0.975786  0.0
H  H33  1  0.13227158  0.68515113  0.57544008  1  0.03129  0.000325  0.099725  0.069448  -0.000224  0.975908  0.0
H  H34  1  0.99317426  0.27518955  0.54383844  1  -0.008518  0.000306  0.085448  0.081473  6.8e-05  0.989809  0.0
H  H35  1  0.00683569  0.72480426  0.45615234  1  -0.008732  0.000306  0.085443  0.081502  6.8e-05  0.989593  0.0
H  H36  1  0.98495593  0.16262128  0.56038373  1  0.036199  0.000312  0.075334  0.067626  7.6e-05  1.038482  0.0
H  H37  1  0.01504819  0.83737450  0.43960731  1  0.036116  0.000312  0.075341  0.067624  7.6e-05  1.038549  0.0
H  H38  1  0.79742064  0.29608104  0.57685760  1  0.010325  8.8e-05  0.083957  0.072738  -4e-06  0.975747  0.0
H  H39  1  0.20258692  0.70392531  0.42312419  1  0.010338  8.8e-05  0.083939  0.072714  -4e-06  0.975811  0.0
H  H40  1  0.78433825  0.18661477  0.58513041  1  0.019777  0.000622  0.074652  0.059841  0.000421  1.049032  0.0
H  H41  1  0.21566746  0.81338756  0.41485915  1  0.019621  0.000622  0.074629  0.059908  0.000421  1.049064  0.0
H  H42  1  0.90885324  0.13278298  0.70733042  1  0.021755  0.000137  0.076277  0.105837  2.7e-05  1.031846  0.0
H  H43  1  0.09115478  0.86722653  0.29265978  1  0.021693  0.000137  0.076263  0.105833  2.7e-05  1.031809  0.0
H  H44  1  0.79522643  0.19950307  0.72691575  1  0.020084  0.000174  0.085199  0.11354  8.9e-05  1.021306  0.0
H  H45  1  0.20478253  0.80051170  0.27307163  1  0.020098  0.000174  0.085251  0.113494  8.9e-05  1.021407  0.0
H  H46  1  0.92051574  0.24298019  0.70018592  1  0.024566  2.3e-05  0.08262  0.108482  -6e-06  1.02135  0.0
H  H47  1  0.07949810  0.75703337  0.29979397  1  0.024267  2.3e-05  0.082501  0.108332  -6e-06  1.021639  0.0
H  H48  1  0.93207530  0.09371462  0.34170177  1  0.416891  0.002134  0.259516  0.233943  0.001666  1.043823  0.002
H  H49  1  0.06793717  0.90628498  0.65829535  1  0.416836  0.002137  0.259417  0.233796  0.001666  1.043844  0.002
H  H50  1  0.81724832  0.15159597  0.30689513  1  0.424436  0.003113  0.252239  0.24288  0.001988  1.040801  0.002
H  H51  1  0.18275589  0.84840018  0.69311693  1  0.424781  0.003113  0.252251  0.242885  0.001988  1.040893  0.002
H  H52  1  0.98325188  0.09126434  0.20197661  1  0.051984  0.001545  0.088218  0.054738  0.000829  1.032292  0.001
H  H53  1  0.01673448  0.90873989  0.79801913  1  0.052127  0.001546  0.088162  0.054623  0.00083  1.032289  0.001
H  H54  1  0.85166645  0.14072062  0.17209887  1  0.051831  0.001296  0.088076  0.058778  0.000424  1.033364  0.0
H  H55  1  0.14831616  0.85928216  0.82790747  1  0.051888  0.001296  0.088096  0.058733  0.000424  1.03345  0.0
H  H56  1  0.90605042  0.95984157  0.30236433  1  0.0042  0.000152  0.080175  0.076167  -0.00011  1.011435  0.0
H  H57  1  0.09394971  0.04016126  0.69763707  1  0.003732  0.000152  0.080168  0.076068  -0.00011  1.01149  0.0
H  H58  1  0.77527900  0.00843399  0.27204824  1  0.009639  0.000795  0.079386  0.073265  0.000266  1.014018  0.0
H  H59  1  0.22471626  0.99156351  0.72796147  1  0.009255  0.000795  0.079379  0.073205  0.000266  1.013944  0.0
H  H60  1  0.95451912  0.96680915  0.15540736  1  0.018768  5.7e-05  0.08672  0.074692  -2.8e-05  0.981124  0.0
H  H61  1  0.04546879  0.03319567  0.84459284  1  0.018536  5.8e-05  0.086667  0.07459  -2.8e-05  0.981232  0.0
H  H62  1  0.82551314  0.01747552  0.12309204  1  0.01482  0.000118  0.084947  0.071943  1.2e-05  0.981026  0.0
H  H63  1  0.17447012  0.98252203  0.87691469  1  0.014953  0.000118  0.084951  0.071938  1.2e-05  0.981135  0.0
H  H64  1  0.87383293  0.83095798  0.24783864  1  0.009428  1.6e-05  0.085292  0.112246  -1e-06  1.029422  0.0
H  H65  1  0.12617086  0.16904146  0.75217126  1  0.009512  1.6e-05  0.085291  0.112277  -1e-06  1.029388  0.0
H  H66  1  0.83992390  0.85656460  0.14211781  1  0.01406  0.000227  0.083162  0.106577  0.000143  1.029306  0.0
H  H67  1  0.16006929  0.14343028  0.85789221  1  0.0139  0.000227  0.083221  0.106685  0.000143  1.029274  0.0
H  H68  1  0.74426220  0.88135804  0.21405332  1  0.02962  7.2e-05  0.080435  0.102847  3e-05  1.034657  0.0
H  H69  1  0.25573517  0.11863546  0.78596163  1  0.029445  7.2e-05  0.080433  0.102808  3e-05  1.034715  0.0
H  H70  1  0.88954140  0.27182083  0.10949761  1  0.403123  0.004376  0.267925  0.246391  0.003363  1.019472  0.002
H  H71  1  0.11046838  0.72816881  0.89051147  1  0.403359  0.004375  0.267902  0.246284  0.003363  1.019398  0.002
H  H72  1  0.95270263  0.35840947  0.09089337  1  0.425956  0.002162  0.263988  0.238693  0.001723  1.030083  0.002
H  H73  1  0.04730926  0.64158220  0.90911030  1  0.425891  0.002161  0.263965  0.238664  0.001723  1.030047  0.002
H  H74  1  0.06851889  0.18602739  0.10460580  1  0.019726  0.000819  0.087545  0.054915  0.000286  1.0294  0.0
H  H75  1  0.93148288  0.81396178  0.89539030  1  0.019852  0.000819  0.087525  0.054901  0.000286  1.029332  0.0
H  H76  1  0.11945981  0.28890558  0.07142011  1  0.024964  0.000593  0.082459  0.048197  -2.8e-05  1.062547  0.0
H  H77  1  0.88054912  0.71107762  0.92858217  1  0.025659  0.000593  0.082431  0.048235  -2.8e-05  1.062561  0.0
H  H78  1  0.00304940  0.33768337  0.94552980  1  0.019947  0.000323  0.073231  0.071796  7.1e-05  1.038367  0.0
H  H79  1  0.99695658  0.66231746  0.05447430  1  0.020141  0.000323  0.073238  0.071845  7.1e-05  1.038293  0.0
H  H80  1  0.09357321  0.24465702  0.95030818  1  -0.007076  0.001014  0.087358  0.084011  0.000548  0.992548  0.0
H  H81  1  0.90642274  0.75534064  0.04968854  1  -0.007154  0.001013  0.087319  0.083992  0.000548  0.992517  0.0
H  H82  1  0.94522260  0.14741826  0.01283718  1  0.012723  7.4e-05  0.082988  0.071358  -6.2e-05  0.982431  0.0
H  H83  1  0.05476603  0.85258720  0.98716396  1  0.012741  7.4e-05  0.082989  0.071314  -6.2e-05  0.982447  0.0
H  H84  1  0.85422682  0.24198583  0.00063967  1  0.014818  0.001417  0.074862  0.060269  0.000912  1.03267  0.0
H  H85  1  0.14576837  0.75802485  0.99936192  1  0.014468  0.001416  0.074909  0.060233  0.000911  1.032753  0.0
H  H86  1  0.89401898  0.29200021  0.84535364  1  0.07589  0.000149  0.082029  0.107448  9.6e-05  1.038686  0.0
H  H87  1  0.10597835  0.70800590  0.15464690  1  0.07551  0.000149  0.082065  0.107452  9.6e-05  1.03873  0.0
H  H88  1  0.83895223  0.19002463  0.88036236  1  0.032451  8.3e-05  0.082974  0.110277  2.4e-05  1.006458  0.0
H  H89  1  0.16103872  0.80998149  0.11963788  1  0.031486  8.3e-05  0.082953  0.110242  2.4e-05  1.006522  0.0
H  H90  1  0.97852006  0.19342386  0.85824496  1  0.01287  0.000103  0.080908  0.104279  5.5e-05  1.044815  0.0
H  H91  1  0.02147187  0.80658092  0.14175800  1  0.012857  0.000103  0.081008  0.104364  5.5e-05  1.044641  0.0
H  H92  1  0.63936904  0.61322521  0.78597856  1  0.389545  0.00461  0.266427  0.246926  0.003506  1.021947  0.002
H  H93  1  0.36063835  0.38678350  0.21402248  1  0.389801  0.00461  0.26648  0.247012  0.003505  1.021766  0.002
H  H94  1  0.55660207  0.59412220  0.86604167  1  0.392522  0.00224  0.26512  0.236209  0.001684  1.029988  0.002
H  H95  1  0.44340100  0.40587607  0.13395805  1  0.392529  0.002239  0.265066  0.236158  0.001684  1.030099  0.002
H  H96  1  0.41601895  0.57022945  0.79541408  1  0.036682  0.000795  0.082839  0.048278  0.000151  1.057503  0.0
H  H97  1  0.58398472  0.42978273  0.20457139  1  0.036564  0.000794  0.082915  0.048337  0.000151  1.057619  0.0
H  H98  1  0.48883822  0.60225041  0.70073369  1  0.038735  0.00087  0.089323  0.059262  0.000328  1.022755  0.0
H  H99  1  0.51117961  0.39776367  0.29925584  1  0.038953  0.00087  0.089263  0.059204  0.000327  1.022614  0.0
H  H100  1  0.48669613  0.43937987  0.76156520  1  0.011353  0.001081  0.088932  0.087422  0.000585  0.985885  0.0
H  H101  1  0.51330542  0.56063031  0.23842392  1  0.011339  0.001081  0.088921  0.08744  0.000585  0.985873  0.0
H  H102  1  0.55099802  0.43915832  0.85092319  1  0.038283  0.000551  0.072819  0.072327  0.000273  1.041781  0.0
H  H103  1  0.44900831  0.56085187  0.14906512  1  0.038516  0.000552  0.072838  0.072374  0.000273  1.041824  0.0
H  H104  1  0.64515735  0.49631803  0.67269657  1  0.006777  0.000123  0.082723  0.072189  -2.5e-05  0.975044  0.0
H  H105  1  0.35484787  0.50368170  0.32729205  1  0.007111  0.000123  0.082696  0.072229  -2.5e-05  0.974986  0.0
H  H106  1  0.71104524  0.49828364  0.76074427  1  0.012312  0.00133  0.070586  0.055008  0.00083  1.05587  0.0
H  H107  1  0.28895865  0.50172662  0.23923884  1  0.01237  0.001331  0.070621  0.055013  0.000831  1.056087  0.0
H  H108  1  0.70802373  0.33593595  0.82634800  1  0.037818  0.000258  0.080227  0.105786  0.000177  1.034851  0.0
H  H109  1  0.29197829  0.66407737  0.17365071  1  0.037793  0.000258  0.080194  0.105748  0.000177  1.03491  0.0
H  H110  1  0.77579761  0.36140941  0.72826079  1  0.022505  5.4e-05  0.083301  0.11221  4e-06  1.015637  0.0
H  H111  1  0.22420460  0.63858949  0.27174054  1  0.022572  5.4e-05  0.083295  0.112238  4e-06  1.015528  0.0
H  H112  1  0.64280357  0.33134648  0.73849320  1  -0.005276  0.000161  0.080436  0.104355  8.3e-05  1.033778  0.0
H  H113  1  0.35719914  0.66865501  0.26151026  1  -0.005389  0.000161  0.080408  0.104355  8.3e-05  1.033708  0.0
H  H114  1  0.57833336  0.85170032  0.61172694  1  0.4151  0.00216  0.261274  0.233166  0.001771  1.039733  0.002
H  H115  1  0.42166938  0.14830058  0.38827140  1  0.415184  0.00216  0.261237  0.233122  0.001772  1.039869  0.002
H  H116  1  0.68583478  0.81603104  0.66886630  1  0.418823  0.003159  0.250427  0.238654  0.002055  1.047753  0.002
H  H117  1  0.31415829  0.18396455  0.33113999  1  0.418742  0.00316  0.25041  0.238569  0.002055  1.0478  0.002
H  H118  1  0.56680342  0.70390518  0.60716863  1  0.045194  0.001456  0.087593  0.055146  0.000709  1.026665  0.0
H  H119  1  0.43319680  0.29609045  0.39283380  1  0.045556  0.001456  0.087604  0.055144  0.000708  1.02668  0.0
H  H120  1  0.69318332  0.67506214  0.65638081  1  0.034383  0.001321  0.086798  0.062138  0.00043  1.034086  0.0
H  H121  1  0.30681549  0.32493867  0.34362480  1  0.034437  0.001322  0.086764  0.062094  0.00043  1.03408  0.0
H  H122  1  0.64488138  0.81601423  0.48767292  1  0.011007  0.000169  0.073974  0.071668  -0.000128  1.035725  0.0
H  H123  1  0.35511990  0.18398595  0.51233159  1  0.010938  0.000169  0.074006  0.071668  -0.000128  1.035673  0.0
H  H124  1  0.77078398  0.79213498  0.53546808  1  0.003545  0.000776  0.076837  0.074742  0.000191  1.016566  0.0
H  H125  1  0.22921972  0.20785863  0.46453832  1  0.003563  0.000776  0.076817  0.074687  0.000191  1.016629  0.0
H  H126  1  0.65559521  0.65835291  0.48852070  1  -0.015349  4.5e-05  0.085194  0.072956  -3.1e-05  0.983106  0.0
H  H127  1  0.34439560  0.34164794  0.51148291  1  -0.014968  4.5e-05  0.085199  0.073003  -3.1e-05  0.983172  0.0
H  H128  1  0.78596312  0.64027928  0.52804039  1  -0.015861  0.000197  0.082518  0.067978  6.5e-05  0.983303  0.0
H  H129  1  0.21402691  0.35971501  0.47196526  1  -0.015922  0.000197  0.082536  0.068001  6.5e-05  0.983316  0.0
H  H130  1  0.71264537  0.77833648  0.36158883  1  0.020067  1.6e-05  0.082816  0.109433  -1.9e-05  1.030788  0.0
H  H131  1  0.28735447  0.22166240  0.63841497  1  0.02003  1.6e-05  0.082831  0.109516  -1.8e-05  1.030752  0.0
H  H132  1  0.79316029  0.67816542  0.37186130  1  0.012312  0.00014  0.083046  0.111699  8.2e-05  1.044282  0.0
H  H133  1  0.20683365  0.32182952  0.62814455  1  0.013128  0.00014  0.083058  0.111729  8.2e-05  1.044265  0.0
H  H134  1  0.84393858  0.76181528  0.40011550  1  0.003734  4.9e-05  0.081123  0.105971  8e-06  1.035119  0.0
H  H135  1  0.15606224  0.23817571  0.59989124  1  0.004054  4.9e-05  0.081124  0.105977  8e-06  1.035153  0.0
H  H136  1  0.41344385  0.93012504  0.68728612  1  0.422856  0.001825  0.267355  0.242465  0.001334  1.030582  0.001
H  H137  1  0.58655678  0.06987385  0.31271705  1  0.422794  0.001824  0.267343  0.242459  0.001333  1.030553  0.001
H  H138  1  0.39833485  0.91469491  0.78674530  1  0.404057  0.002148  0.287426  0.267102  0.001153  0.956796  0.001
H  H139  1  0.60166930  0.08530787  0.21325945  1  0.404095  0.002147  0.287448  0.267094  0.001152  0.956827  0.001
H  H140  1  0.59983102  0.96340423  0.69280460  1  0.046178  0.001747  0.092765  0.068831  0.001006  1.008699  0.0
H  H141  1  0.40016899  0.03660584  0.30719284  1  0.046068  0.001748  0.092765  0.068846  0.001006  1.008658  0.0
H  H142  1  0.56940350  0.95993359  0.79601805  1  -0.00067  0.00039  0.099507  0.069949  -0.000126  0.97589  0.0
H  H143  1  0.43059620  0.04007910  0.20397919  1  -0.000588  0.00039  0.099546  0.069992  -0.000126  0.975842  0.0
H  H144  1  0.45299411  0.08441133  0.64113605  1  0.021586  0.000506  0.077128  0.071323  0.000256  1.034064  0.0
H  H145  1  0.54699595  0.91559546  0.35886285  1  0.021684  0.000507  0.077102  0.071314  0.000256  1.033991  0.0
H  H146  1  0.42160486  0.08360954  0.74384767  1  -0.00596  0.00032  0.082837  0.073822  7.5e-05  1.005246  0.0
H  H147  1  0.57839014  0.91639594  0.25615140  1  -0.005963  0.00032  0.082849  0.073866  7.5e-05  1.00522  0.0
H  H148  1  0.60144182  0.12708042  0.75670943  1  0.028192  7.7e-05  0.083971  0.072669  -1e-05  0.977133  0.0
H  H149  1  0.39854892  0.87293363  0.24328489  1  0.028921  7.7e-05  0.083908  0.072646  -1e-05  0.977132  0.0
H  H150  1  0.64327885  0.11520684  0.66014270  1  0.023135  0.000588  0.076403  0.06145  0.00039  1.046988  0.0
H  H151  1  0.35671181  0.88480785  0.33985201  1  0.023049  0.000589  0.076377  0.061417  0.00039  1.047181  0.0
H  H152  1  0.50642039  0.23905462  0.58671656  1  0.005434  0.00021  0.078523  0.110904  6.4e-05  1.029212  0.0
H  H153  1  0.49356804  0.76095876  0.41327865  1  0.005604  0.00021  0.078518  0.110942  6.4e-05  1.029215  0.0
H  H154  1  0.59557954  0.27380192  0.64353376  1  0.00044  0.000192  0.084385  0.112975  9.9e-05  1.025893  0.0
H  H155  1  0.40441078  0.72620889  0.35645862  1  0.000312  0.000192  0.084376  0.112882  9.9e-05  1.025947  0.0
H  H156  1  0.46374316  0.25296473  0.68304475  1  -0.002508  4.7e-05  0.080768  0.104564  1.4e-05  1.028401  0.0
H  H157  1  0.53625140  0.74705062  0.31694899  1  -0.00244  4.7e-05  0.080781  0.104547  1.4e-05  1.02841  0.0
H  H158  1  0.67690812  0.71294448  0.86678422  1  0.410151  0.00264  0.272703  0.253911  0.001478  0.993502  0.002
H  H159  1  0.32308992  0.28704977  0.13322342  1  0.410201  0.002641  0.2727  0.253905  0.001479  0.993575  0.002
H  H160  1  0.67247847  0.81795183  0.82263260  1  0.414075  0.004073  0.263469  0.247296  0.002892  1.024413  0.002
H  H161  1  0.32752755  0.18204239  0.17737644  1  0.414297  0.004072  0.263428  0.247257  0.002893  1.024454  0.002
H  H162  1  0.53687936  0.72825131  0.96603063  1  0.042936  0.000549  0.085952  0.057305  0.000209  1.045628  0.0
H  H163  1  0.46311647  0.27174758  0.03397217  1  0.043016  0.000549  0.085902  0.057226  0.000209  1.045581  0.0
H  H164  1  0.53038888  0.84286061  0.91876499  1  0.031485  0.000594  0.096498  0.062831  4.1e-05  0.983407  0.0
H  H165  1  0.46961593  0.15713692  0.08124133  1  0.031492  0.000594  0.09647  0.062783  4.1e-05  0.983438  0.0
H  H166  1  0.72534146  0.72252452  0.00657371  1  0.005247  0.0003  0.082423  0.078336  4.7e-05  1.015066  0.0
H  H167  1  0.27465111  0.27746247  0.99343992  1  0.004922  0.0003  0.082402  0.078269  4.7e-05  1.015026  0.0
H  H168  1  0.72670434  0.83608904  0.95353048  1  0.00207  0.000437  0.088198  0.085664  7.8e-05  0.984182  0.0
H  H169  1  0.27330099  0.16389797  0.04648079  1  0.001765  0.000437  0.088099  0.085494  7.8e-05  0.984264  0.0
H  H170  1  0.58851507  0.87049088  0.05239655  1  -0.028328  4.5e-05  0.082451  0.068307  -2.4e-05  0.97826  0.0
H  H171  1  0.41147884  0.12950411  0.94760518  1  -0.028425  4.5e-05  0.082455  0.068283  -2.4e-05  0.97819  0.0
H  H172  1  0.70235447  0.80691743  0.10448513  1  0.022779  0.000346  0.084597  0.069096  0.000217  1.021025  0.0
H  H173  1  0.29763359  0.19308009  0.89552374  1  0.022652  0.000346  0.084578  0.069073  0.000217  1.02098  0.0
H  H174  1  0.54435265  0.74571269  0.18440256  1  0.015313  8.1e-05  0.082383  0.107394  4.8e-05  1.032862  0.0
H  H175  1  0.45563186  0.25428752  0.81560096  1  0.015817  8.1e-05  0.082438  0.107373  4.8e-05  1.032885  0.0
H  H176  1  0.60328805  0.66959295  0.13587489  1  -0.003221  6.4e-05  0.081916  0.107436  2e-06  1.039077  0.0
H  H177  1  0.39669834  0.33040522  0.86413445  1  -0.002826  6.4e-05  0.081883  0.107408  2e-06  1.039083  0.0
H  H178  1  0.48575901  0.73846670  0.09523361  1  0.027351  9.6e-05  0.082599  0.112487  -2e-06  1.013831  0.0
H  H179  1  0.51423372  0.26153153  0.90477012  1  0.026939  9.5e-05  0.08262  0.112512  -2e-06  1.013684  0.0
C  C180  1  0.87046142  0.44342668  0.24395037  1  0.288203  0.004206  -0.083415  0.022618  0.004335  3.922448  0.003
C  C181  1  0.12954468  0.55656690  0.75605828  1  0.287964  0.004207  -0.083429  0.022452  0.004336  3.922491  0.003
C  C182  1  0.77790791  0.50692110  0.25844476  1  -0.006748  0.002893  -0.172595  -0.183536  0.001977  3.938266  0.002
C  C183  1  0.22209428  0.49307183  0.74156368  1  -0.006199  0.002894  -0.172561  -0.183493  0.001977  3.938261  0.002
C  C184  1  0.80801918  0.60134894  0.23224648  1  0.007192  0.000887  -0.167179  -0.089916  0.000654  3.952604  0.001
C  C185  1  0.19198264  0.39864668  0.76775646  1  0.006893  0.000887  -0.167221  -0.089921  0.000654  3.952597  0.001
C  C186  1  0.91302513  0.61058015  0.26837390  1  -0.033495  0.000102  -0.249246  -0.359475  2.3e-05  3.966037  0.0
C  C187  1  0.08697970  0.38942335  0.73162591  1  -0.03352  0.000102  -0.249231  -0.359453  2.3e-05  3.96586  0.0
C  C188  1  0.91077732  0.24864073  0.44811689  1  0.291836  0.003993  -0.077145  0.029394  0.003226  3.903729  0.003
C  C189  1  0.08923675  0.75135835  0.55187033  1  0.29263  0.003992  -0.077107  0.029543  0.003226  3.90388  0.003
C  C190  1  0.93920530  0.22811548  0.53896757  1  -0.029253  0.002367  -0.173404  -0.182617  0.001775  3.948659  0.002
C  C191  1  0.06080488  0.77188292  0.46102239  1  -0.029235  0.002367  -0.173411  -0.182618  0.001775  3.948342  0.002
C  C192  1  0.84025583  0.22945673  0.59541688  1  -0.018004  0.001449  -0.172039  -0.094516  0.001172  3.970763  0.001
C  C193  1  0.15975495  0.77054303  0.40456912  1  -0.017436  0.00145  -0.17191  -0.094588  0.001172  3.970604  0.001
C  C194  1  0.86750380  0.19972663  0.68738388  1  -0.065704  0.000278  -0.248609  -0.357786  0.000225  3.9664  0.0
C  C195  1  0.13250354  0.80028163  0.31260145  1  -0.065727  0.000277  -0.248578  -0.357589  0.000225  3.966472  0.0
C  C196  1  0.89936053  0.09577901  0.22429718  1  0.234936  0.004218  -0.083497  0.018087  0.003919  3.921964  0.003
C  C197  1  0.10063258  0.90422252  0.77570435  1  0.234623  0.004221  -0.083525  0.018079  0.00392  3.92183  0.003
C  C198  1  0.85936377  0.00520891  0.24954492  1  -0.017241  0.003136  -0.174221  -0.178176  0.002215  3.939127  0.002
C  C199  1  0.14063249  0.99479321  0.75046158  1  -0.016415  0.003137  -0.174066  -0.177789  0.002216  3.938828  0.002
C  C200  1  0.86965756  0.96992034  0.17618237  1  -0.009306  0.000943  -0.166651  -0.08863  0.000686  3.975006  0.001
C  C201  1  0.13033302  0.03008245  0.82382243  1  -0.009124  0.000943  -0.166666  -0.088574  0.000686  3.975324  0.001
C  C202  1  0.82980545  0.87988512  0.19600923  1  -0.070951  0.000255  -0.246441  -0.358505  0.000234  3.97184  0.0
C  C203  1  0.17018814  0.12011302  0.80400095  1  -0.070826  0.000255  -0.246487  -0.358633  0.000234  3.971954  0.0
C  C204  1  0.04835321  0.25598768  0.06980670  1  0.309895  0.003275  -0.086329  0.008594  0.00312  3.935584  0.002
C  C205  1  0.95165626  0.74400405  0.93019354  1  0.309238  0.003275  -0.086416  0.008224  0.003122  3.935682  0.002
C  C206  1  0.02118128  0.26724406  0.98055955  1  -0.005246  0.002379  -0.172627  -0.176601  0.001657  3.929792  0.001
C  C207  1  0.97882237  0.73275614  0.01944308  1  -0.005617  0.00238  -0.172512  -0.176502  0.001658  3.929684  0.001
C  C208  1  0.92820826  0.21681978  0.97420655  1  -0.019201  0.000898  -0.172053  -0.087465  0.000603  3.959953  0.001
C  C209  1  0.07179149  0.78318629  0.02579623  1  -0.018541  0.000897  -0.17217  -0.0874  0.000602  3.959958  0.001
C  C210  1  0.90871284  0.22314289  0.88485573  1  -0.135572  0.000188  -0.249266  -0.359093  0.000168  3.976404  0.0
C  C211  1  0.09128383  0.77686195  0.11514229  1  -0.134288  0.000188  -0.249325  -0.359124  0.000168  3.976386  0.0
C  C212  1  0.49720419  0.56773250  0.76787078  1  0.253208  0.003292  -0.085113  0.013845  0.003194  3.932572  0.002
C  C213  1  0.50280488  0.43227503  0.23212056  1  0.253558  0.003289  -0.085125  0.013931  0.003193  3.932466  0.002
C  C214  1  0.54423330  0.47315935  0.78329873  1  -0.018482  0.00272  -0.173239  -0.177855  0.00197  3.93771  0.002
C  C215  1  0.45577654  0.52684822  0.21668904  1  -0.019093  0.002719  -0.173259  -0.177924  0.001969  3.937886  0.002
C  C216  1  0.65304258  0.46375987  0.74041974  1  -0.023959  0.000972  -0.173875  -0.088286  0.000673  3.966429  0.001
C  C217  1  0.34696500  0.53624645  0.25956440  1  -0.023975  0.000973  -0.173926  -0.088482  0.000673  3.967022  0.001
C  C218  1  0.69752286  0.36799507  0.75908401  1  -0.060555  0.000268  -0.249601  -0.359359  0.00025  3.974326  0.0
C  C219  1  0.30248083  0.63201108  0.24091328  1  -0.060515  0.000268  -0.249491  -0.359255  0.00025  3.974254  0.0
C  C220  1  0.64210757  0.72936972  0.61396503  1  0.273512  0.00439  -0.084148  0.019095  0.00389  3.912101  0.003
C  C221  1  0.35789155  0.27062850  0.38603959  1  0.273326  0.004391  -0.084192  0.019045  0.00389  3.912018  0.003
C  C222  1  0.69816243  0.76254041  0.52941151  1  -0.023022  0.003015  -0.176978  -0.176593  0.002124  3.934916  0.002
C  C223  1  0.30183766  0.23745649  0.47059406  1  -0.023044  0.003015  -0.17692  -0.176323  0.002124  3.934563  0.002
C  C224  1  0.72733507  0.69140106  0.48932946  1  0.05084  0.001148  -0.168867  -0.088638  0.000883  3.983302  0.001
C  C225  1  0.27265785  0.30859581  0.51067820  1  0.050597  0.001148  -0.168895  -0.088785  0.000883  3.983567  0.001
C  C226  1  0.77180765  0.72901617  0.40095224  1  -0.050999  0.000213  -0.250999  -0.365156  0.000181  3.973381  0.0
C  C227  1  0.22819187  0.27097878  0.59905159  1  -0.052275  0.000213  -0.25105  -0.36531  0.000181  3.973697  0.0
C  C228  1  0.53389566  0.97529004  0.73454930  1  0.307097  0.003828  -0.0746  0.031194  0.00308  3.901471  0.002
C  C229  1  0.46610436  0.02472004  0.26544814  1  0.306839  0.003827  -0.074722  0.031012  0.00308  3.901566  0.002
C  C230  1  0.48822937  0.07155122  0.70248176  1  0.003316  0.00248  -0.172914  -0.181351  0.001894  3.947274  0.002
C  C231  1  0.51176402  0.92846084  0.29751421  1  0.003461  0.002481  -0.172911  -0.181435  0.001895  3.947404  0.002
C  C232  1  0.57298788  0.13455607  0.69439949  1  -0.031828  0.001356  -0.171274  -0.094502  0.001088  3.970282  0.001
C  C233  1  0.42700307  0.86546258  0.30559282  1  -0.032869  0.001356  -0.171136  -0.094324  0.001088  3.969983  0.001
C  C234  1  0.53256433  0.23029370  0.64975857  1  -0.021077  0.000354  -0.248361  -0.359771  0.000301  3.966417  0.0
C  C235  1  0.46742596  0.76971768  0.35023951  1  -0.020695  0.000355  -0.248435  -0.359771  0.000302  3.966159  0.0
C  C236  1  0.58564692  0.78209585  0.93375031  1  0.270875  0.004199  -0.078416  0.01977  0.003977  3.930317  0.003
C  C237  1  0.41434991  0.21790169  0.06625579  1  0.27036  0.0042  -0.078337  0.019932  0.003976  3.930114  0.003
C  C238  1  0.67455153  0.78584978  0.98953760  1  0.011575  0.002556  -0.171111  -0.183197  0.001803  3.937961  0.002
C  C239  1  0.32544534  0.21414115  0.01047404  1  0.012147  0.002555  -0.171016  -0.182956  0.001802  3.937794  0.002
C  C240  1  0.63307672  0.80453759  0.06890252  1  0.021216  0.001081  -0.168548  -0.090547  0.000823  3.975588  0.001
C  C241  1  0.36691709  0.19545863  0.93110531  1  0.021533  0.001081  -0.168522  -0.090518  0.000823  3.975478  0.001
C  C242  1  0.56266824  0.73620474  0.12393066  1  -0.048805  0.000125  -0.248881  -0.360031  6.6e-05  3.963202  0.0
C  C243  1  0.43731892  0.26379347  0.87607510  1  -0.049263  0.000125  -0.248906  -0.359989  6.6e-05  3.963188  0.0
Se  Se244  1  0.15592128  0.35286160  0.22160250  1  -0.485108  0.062451  -0.176399  -0.400813  0.062498  2.322964  0.022
Se  Se245  1  0.84408326  0.64713140  0.77840052  1  -0.485185  0.062446  -0.176365  -0.400839  0.062502  2.322837  0.022
Se  Se246  1  0.11723237  0.49373712  0.12311541  1  -0.055325  0.018265  0.010092  0.008345  0.015513  2.681316  0.008
Se  Se247  1  0.88271754  0.50623200  0.87687041  1  -0.055348  0.01828  0.010093  0.008423  0.015526  2.680993  0.008
Se  Se248  1  0.14716557  0.48060824  0.99042008  1  -0.105596  0.027217  -0.010851  -0.07765  0.025738  2.577038  0.015
Se  Se249  1  0.85286086  0.51936199  0.00957360  1  -0.105775  0.027236  -0.010991  -0.077862  0.025738  2.576881  0.015
Se  Se250  1  0.34268402  0.47979630  0.97515483  1  -0.10394  0.034992  -0.018292  -0.081615  0.033579  2.500045  0.022
Se  Se251  1  0.65734013  0.52018888  0.02489429  1  -0.103891  0.034985  -0.018259  -0.081513  0.033575  2.499876  0.022
Se  Se252  1  0.37015787  0.61614405  0.98707965  1  -0.048169  0.024779  0.008922  0.007195  0.022238  2.684284  0.012
Se  Se253  1  0.62983143  0.38386319  0.01293500  1  -0.048303  0.024769  0.008985  0.007221  0.022228  2.684211  0.012
Se  Se254  1  0.32637716  0.72767009  0.86006666  1  -0.485234  0.062848  -0.174758  -0.392354  0.062117  2.306845  0.019
Se  Se255  1  0.67362463  0.27231253  0.13993084  1  -0.485243  0.062843  -0.174764  -0.392371  0.062112  2.306653  0.019
Se  Se256  1  0.35207609  0.77125961  0.65954638  1  -0.475872  0.055683  -0.166594  -0.405656  0.057735  2.395213  0.016
Se  Se257  1  0.64791385  0.22875495  0.34045898  1  -0.475553  0.055666  -0.166564  -0.405556  0.05773  2.395109  0.016
Se  Se258  1  0.39206789  0.86528119  0.52454234  1  -0.056859  0.025745  0.02144  0.034607  0.022677  2.705681  0.011
Se  Se259  1  0.60790127  0.13471333  0.47544835  1  -0.057305  0.025733  0.021463  0.034604  0.022664  2.705855  0.011
Se  Se260  1  0.33483616  0.00830383  0.52068203  1  -0.125632  0.072549  -0.034116  -0.127585  0.070407  2.54345  0.043
Se  Se261  1  0.66514238  0.99170353  0.47927555  1  -0.125548  0.072587  -0.034186  -0.127742  0.070453  2.543414  0.043
Se  Se262  1  0.13722314  0.01705520  0.50088076  1  -0.130681  0.061975  -0.032698  -0.114239  0.060213  2.526102  0.035
Se  Se263  1  0.86276161  0.98295453  0.49909401  1  -0.130587  0.062008  -0.032691  -0.114191  0.060247  2.525964  0.035
Se  Se264  1  0.13572130  0.00649404  0.36687468  1  -0.057186  0.020083  0.018561  0.027383  0.016903  2.67708  0.008
Se  Se265  1  0.86427821  0.99349336  0.63310797  1  -0.057279  0.020078  0.018549  0.027386  0.016897  2.677045  0.008
Se  Se266  1  0.16474084  0.14484129  0.26929215  1  -0.481216  0.0565  -0.165962  -0.400308  0.057556  2.39668  0.017
Se  Se267  1  0.83525808  0.85515124  0.73069719  1  -0.481027  0.056479  -0.165937  -0.40022  0.057541  2.396601  0.017
N  N268  1  0.84325723  0.35519276  0.25167445  1  -1.17442  0.059382  -0.632207  -0.537626  0.040771  3.356403  0.022
N  N269  1  0.15675293  0.64480019  0.74833185  1  -1.1743  0.059403  -0.632256  -0.537695  0.040777  3.356325  0.022
N  N270  1  0.00375385  0.24375570  0.39196567  1  -1.165428  0.050362  -0.622855  -0.551811  0.036112  3.356266  0.02
N  N271  1  0.99626477  0.75623933  0.60803080  1  -1.165437  0.050373  -0.62292  -0.552005  0.036113  3.35611  0.02
N  N272  1  0.89558211  0.13727353  0.28953473  1  -1.190481  0.060491  -0.634386  -0.538116  0.041782  3.368309  0.023
N  N273  1  0.10441868  0.86272406  0.71046765  1  -1.190608  0.060488  -0.634311  -0.537978  0.04178  3.368326  0.023
N  N274  1  0.96253377  0.29116159  0.11668924  1  -1.181791  0.057603  -0.632416  -0.534189  0.039645  3.359238  0.021
N  N275  1  0.03747980  0.70882942  0.88331514  1  -1.181977  0.057587  -0.632268  -0.533776  0.039635  3.358856  0.021
N  N276  1  0.55926198  0.61937938  0.80219661  1  -1.125496  0.059374  -0.632802  -0.53339  0.041623  3.364832  0.023
N  N277  1  0.44074437  0.38062475  0.19780411  1  -1.126107  0.059376  -0.632827  -0.533455  0.041626  3.364984  0.023
N  N278  1  0.61569576  0.79691781  0.65451291  1  -1.197912  0.06152  -0.638407  -0.537553  0.042795  3.372212  0.024
N  N279  1  0.38429917  0.20308179  0.34548620  1  -1.197998  0.061524  -0.638369  -0.537453  0.042793  3.372327  0.024
N  N280  1  0.45501833  0.91215803  0.74165067  1  -1.176936  0.050715  -0.62143  -0.555821  0.036847  3.355997  0.021
N  N281  1  0.54498364  0.08784283  0.25835125  1  -1.17703  0.050723  -0.621385  -0.555637  0.036849  3.356062  0.021
N  N282  1  0.62495602  0.76933231  0.85492184  1  -1.177666  0.057676  -0.628863  -0.53241  0.03985  3.352393  0.021
N  N283  1  0.37504481  0.23066521  0.14508585  1  -1.177562  0.057665  -0.628841  -0.532409  0.03985  3.352439  0.021
