# generated using pymatgen
data_AgH10C16N2ClO4
_symmetry_space_group_name_H-M   'P 1'
_cell_length_a   5.36373696
_cell_length_b   10.83007938
_cell_length_c   13.25173940
_cell_angle_alpha   113.51144982
_cell_angle_beta   90.00023514
_cell_angle_gamma   90.00022051
_symmetry_Int_Tables_number   1
_chemical_formula_structural   AgH10C16N2ClO4
_chemical_formula_sum   'Ag2 H20 C32 N4 Cl2 O8'
_cell_volume   705.88188582
_cell_formula_units_Z   2
loop_
 _symmetry_equiv_pos_site_id
 _symmetry_equiv_pos_as_xyz
  1  'x, y, z'
loop_
 _atom_site_type_symbol
 _atom_site_label
 _atom_site_symmetry_multiplicity
 _atom_site_fract_x
 _atom_site_fract_y
 _atom_site_fract_z
 _atom_site_occupancy
 _atom_site_hle17_bader_spin_density
 _atom_site_hle17_ddec_charge
 _atom_site_hle17_ddec_spin_density
 _atom_site_hle17_ddec_sum_bond_order
 _atom_site_hle17_magmom
 _atom_site_hse06_10hf_bader_spin_density
 _atom_site_hse06_10hf_ddec_charge
 _atom_site_hse06_10hf_ddec_spin_density
 _atom_site_hse06_10hf_ddec_sum_bond_order
 _atom_site_hse06_10hf_magmom
 _atom_site_hse06_bader_spin_density
 _atom_site_hse06_ddec_charge
 _atom_site_hse06_ddec_spin_density
 _atom_site_hse06_ddec_sum_bond_order
 _atom_site_hse06_magmom
 _atom_site_pbe_bader_spin_density
 _atom_site_pbe_cm5_charge
 _atom_site_pbe_ddec_charge
 _atom_site_pbe_ddec_spin_density
 _atom_site_pbe_ddec_sum_bond_order
 _atom_site_pbe_magmom
Ag  Ag0  1  0.79721925  0.52572239  0.71741707  1  0  0.567563  0  1.382312  0  0  0.43672  0  1.793966  0  0  0.463202  0  1.75277  0  0  0.506917  0.418979  0  1.822722  0
Ag  Ag1  1  0.20275744  0.02573181  0.21741857  1  0  0.567569  0  1.382206  0  0  0.436724  0  1.793833  0  0  0.463217  0  1.75264  0  0  0.506861  0.418965  0  1.822596  0
H  H2  1  0.01674633  0.80161295  0.80056795  1  0  0.098823  0  0.960906  0  0  0.106774  0  1.024841  0  0  0.109213  0  1.023133  0  0  0.12119  0.105134  0  1.025941  0
H  H3  1  0.98325406  0.30163587  0.30057777  1  0  0.098732  0  0.960954  0  0  0.106719  0  1.024871  0  0  0.10916  0  1.023163  0  0  0.121168  0.105073  0  1.025978  0
H  H4  1  0.23359309  0.95972631  0.97453308  1  0  0.103443  0  0.953607  0  0  0.111393  0  1.017191  0  0  0.114133  0  1.01485  0  0  0.121956  0.109328  0  1.01913  0
H  H5  1  0.76640878  0.45974658  0.47454253  1  0  0.103437  0  0.953698  0  0  0.111403  0  1.017265  0  0  0.11415  0  1.014905  0  0  0.121934  0.109333  0  1.019217  0
H  H6  1  0.34294829  0.81418449  0.22265347  1  0  0.077172  0  0.998556  0  0  0.085618  0  1.071033  0  0  0.088546  0  1.068413  0  0  0.089746  0.083475  0  1.073089  0
H  H7  1  0.65704938  0.31417997  0.72264622  1  0  0.077112  0  0.998691  0  0  0.085574  0  1.071138  0  0  0.088505  0  1.068513  0  0  0.089701  0.08343  0  1.073195  0
H  H8  1  0.37568357  0.74049110  0.37614353  1  0  0.097357  0  0.970931  0  0  0.106145  0  1.034728  0  0  0.107993  0  1.036135  0  0  0.100125  0.104684  0  1.034026  0
H  H9  1  0.62430792  0.24049140  0.87613322  1  0  0.097333  0  0.971082  0  0  0.106135  0  1.034856  0  0  0.108017  0  1.036221  0  0  0.100134  0.104677  0  1.034153  0
H  H10  1  0.06207896  0.58413232  0.39624333  1  0  0.091152  0  0.97252  0  0  0.098262  0  1.039489  0  0  0.100513  0  1.03893  0  0  0.099442  0.096562  0  1.040082  0
H  H11  1  0.93793206  0.08415080  0.89624443  1  0  0.091098  0  0.972648  0  0  0.098218  0  1.039604  0  0  0.100475  0  1.039033  0  0  0.099457  0.096516  0  1.040203  0
H  H12  1  0.72759138  0.49197223  0.25845642  1  0  0.102237  0  0.963954  0  0  0.114758  0  1.020798  0  0  0.117349  0  1.019697  0  0  0.105122  0.112907  0  1.021596  0
H  H13  1  0.27242864  0.99199248  0.75846499  1  0  0.102156  0  0.963989  0  0  0.114647  0  1.020876  0  0  0.117238  0  1.019773  0  0  0.105073  0.112791  0  1.021682  0
H  H14  1  0.45665441  0.43067949  0.15528709  1  0  0.101755  0  0.981571  0  0  0.112263  0  1.041601  0  0  0.114829  0  1.040647  0  0  0.102572  0.110356  0  1.042427  0
H  H15  1  0.54334150  0.93068534  0.65528700  1  0  0.101673  0  0.981734  0  0  0.112219  0  1.041736  0  0  0.114785  0  1.040783  0  0  0.102582  0.110324  0  1.04254  0
H  H16  1  0.13728444  0.33818596  0.01456416  1  0  0.103012  0  0.944626  0  0  0.114164  0  1.003388  0  0  0.116538  0  1.002868  0  0  0.104288  0.112286  0  1.004123  0
H  H17  1  0.86270905  0.83819467  0.51456012  1  0  0.103056  0  0.944705  0  0  0.114287  0  1.003377  0  0  0.116655  0  1.002863  0  0  0.10431  0.112414  0  1.004087  0
H  H18  1  0.11880641  0.40728211  0.85545090  1  0  0.074925  0  1.004137  0  0  0.080723  0  1.079378  0  0  0.082744  0  1.079713  0  0  0.089483  0.079117  0  1.079508  0
H  H19  1  0.88117123  0.90729100  0.35544818  1  0  0.074921  0  1.004243  0  0  0.080708  0  1.079477  0  0  0.082715  0  1.07985  0  0  0.089499  0.079113  0  1.079576  0
H  H20  1  0.43139496  0.56395416  0.83808390  1  0  0.084111  0  1.005777  0  0  0.091142  0  1.08019  0  0  0.094388  0  1.077052  0  0  0.088942  0.088696  0  1.082608  0
H  H21  1  0.56859095  0.06396965  0.33808478  1  0  0.084153  0  1.00573  0  0  0.091156  0  1.080188  0  0  0.094402  0  1.077047  0  0  0.08894  0.08871  0  1.082609  0
C  C22  1  0.99921290  0.78970875  0.87803880  1  0  0.090929  0  3.65266  0  0  0.061124  0  3.900493  0  0  0.065254  0  3.916973  0  0  0.05243  0.05782  0  3.889926  0
C  C23  1  0.00079019  0.28972676  0.37804874  1  0  0.091179  0  3.652668  0  0  0.061338  0  3.900476  0  0  0.065473  0  3.91696  0  0  0.052484  0.058069  0  3.889847  0
C  C24  1  0.12463139  0.87394043  0.97278084  1  0  0.092863  0  3.647718  0  0  0.060673  0  3.899233  0  0  0.064817  0  3.915257  0  0  0.052634  0.057368  0  3.889292  0
C  C25  1  0.87538283  0.37395391  0.47278529  1  0  0.09278  0  3.647642  0  0  0.060537  0  3.899137  0  0  0.064679  0  3.915164  0  0  0.052648  0.05721  0  3.889235  0
C  C26  1  0.82641931  0.67231087  0.97411972  1  0  0.148745  0  3.712743  0  0  0.14043  0  3.952  0  0  0.145396  0  3.972009  0  0  0.129097  0.136781  0  3.93863  0
C  C27  1  0.17357656  0.17233139  0.47412918  1  0  0.148759  0  3.712751  0  0  0.140297  0  3.951997  0  0  0.145269  0  3.972007  0  0  0.128994  0.136644  0  3.93863  0
C  C28  1  0.98356200  0.74484225  0.06507360  1  0  0.153232  0  3.706286  0  0  0.146556  0  3.942622  0  0  0.151396  0  3.962666  0  0  0.129969  0.143118  0  3.929408  0
C  C29  1  0.01644627  0.24485902  0.56507515  1  0  0.15314  0  3.706547  0  0  0.146623  0  3.942658  0  0  0.151467  0  3.9627  0  0  0.130031  0.143187  0  3.929449  0
C  C30  1  0.00352551  0.70247589  0.15581948  1  0  -0.030776  0  3.776614  0  0  -0.019347  0  4.005465  0  0  -0.022598  0  4.030505  0  0  -0.011059  -0.017253  0  3.988748  0
C  C31  1  0.99647048  0.20247751  0.65581841  1  0  -0.030687  0  3.776543  0  0  -0.019351  0  4.005424  0  0  -0.022616  0  4.030483  0  0  -0.011029  -0.017259  0  3.988715  0
C  C32  1  0.20001043  0.74828136  0.23270455  1  0  -0.115945  0  3.787944  0  0  -0.133513  0  4.037409  0  0  -0.135941  0  4.05811  0  0  -0.093273  -0.131708  0  4.023248  0
C  C33  1  0.79998311  0.24829127  0.73269825  1  0  -0.115899  0  3.78769  0  0  -0.133472  0  4.037182  0  0  -0.135897  0  4.057893  0  0  -0.09323  -0.131666  0  4.023022  0
C  C34  1  0.22181461  0.70572252  0.31797644  1  0  -0.051221  0  3.728385  0  0  -0.065304  0  3.975007  0  0  -0.067375  0  3.997034  0  0  -0.084239  -0.063502  0  3.95985  0
C  C35  1  0.77817591  0.20573053  0.81797706  1  0  -0.051254  0  3.728741  0  0  -0.065363  0  3.975374  0  0  -0.067462  0  3.997398  0  0  -0.084261  -0.063561  0  3.960218  0
C  C36  1  0.04627252  0.61523356  0.32788190  1  0  -0.038609  0  3.723432  0  0  -0.050775  0  3.969837  0  0  -0.05231  0  3.991015  0  0  -0.078361  -0.049559  0  3.955166  0
C  C37  1  0.95370808  0.11525223  0.82788911  1  0  -0.038537  0  3.723569  0  0  -0.050717  0  3.969942  0  0  -0.052255  0  3.991133  0  0  -0.078419  -0.049494  0  3.955248  0
C  C38  1  0.85738359  0.56500936  0.25084662  1  0  -0.092947  0  3.690773  0  0  -0.113521  0  3.93728  0  0  -0.116615  0  3.959057  0  0  -0.080215  -0.111339  0  3.922382  0
C  C39  1  0.14261805  0.06502257  0.75085101  1  0  -0.092765  0  3.690456  0  0  -0.113303  0  3.936935  0  0  -0.116395  0  3.958707  0  0  -0.080085  -0.111112  0  3.922025  0
C  C40  1  0.83350061  0.60495086  0.16209910  1  0  0.033793  0  3.739153  0  0  0.043618  0  3.969844  0  0  0.04349  0  3.99443  0  0  0.003416  0.043484  0  3.953601  0
C  C41  1  0.16648536  0.10496124  0.66210792  1  0  0.033672  0  3.739194  0  0  0.043525  0  3.96992  0  0  0.043403  0  3.994504  0  0  0.003329  0.043384  0  3.953693  0
C  C42  1  0.64247448  0.54785545  0.07755678  1  0  0.030185  0  3.733387  0  0  0.041256  0  3.964173  0  0  0.041116  0  3.988313  0  0  0.002082  0.041295  0  3.948041  0
C  C43  1  0.35752121  0.04786310  0.57755293  1  0  0.030239  0  3.733173  0  0  0.041199  0  3.964051  0  0  0.041059  0  3.988191  0  0  0.002033  0.041239  0  3.947923  0
C  C44  1  0.45842525  0.45932216  0.08555335  1  0  -0.092781  0  3.706425  0  0  -0.115894  0  3.957286  0  0  -0.119012  0  3.978712  0  0  -0.083021  -0.113875  0  3.943142  0
C  C45  1  0.54156818  0.95932989  0.58554856  1  0  -0.092676  0  3.706599  0  0  -0.115835  0  3.957567  0  0  -0.118955  0  3.978994  0  0  -0.083007  -0.113823  0  3.943405  0
C  C46  1  0.27551105  0.40709336  0.00592633  1  0  -0.04019  0  3.723061  0  0  -0.055106  0  3.974453  0  0  -0.056027  0  3.995002  0  0  -0.079217  -0.05466  0  3.960904  0
C  C47  1  0.72448660  0.90709871  0.50592482  1  0  -0.040453  0  3.723056  0  0  -0.05543  0  3.974457  0  0  -0.056342  0  3.995001  0  0  -0.079312  -0.054975  0  3.96091  0
C  C48  1  0.26711211  0.44474744  0.91625203  1  0  -0.064957  0  3.764969  0  0  -0.078754  0  4.016028  0  0  -0.081389  0  4.039441  0  0  -0.093365  -0.076702  0  4.000186  0
C  C49  1  0.73287402  0.94475680  0.41624548  1  0  -0.064893  0  3.764985  0  0  -0.078679  0  4.016063  0  0  -0.081314  0  4.039457  0  0  -0.093402  -0.076626  0  4.000226  0
C  C50  1  0.44587582  0.53126182  0.90584558  1  0  -0.115176  0  3.758975  0  0  -0.133554  0  4.008362  0  0  -0.136945  0  4.030837  0  0  -0.099429  -0.131217  0  3.993089  0
C  C51  1  0.55412930  0.03127620  0.40584383  1  0  -0.115093  0  3.758964  0  0  -0.13352  0  4.008312  0  0  -0.136908  0  4.030781  0  0  -0.099381  -0.131188  0  3.993047  0
C  C52  1  0.63911489  0.58109127  0.98393919  1  0  -0.022447  0  3.762777  0  0  -0.013209  0  3.997361  0  0  -0.016363  0  4.022744  0  0  -0.011995  -0.010765  0  3.980042  0
C  C53  1  0.36088783  0.08110212  0.48393909  1  0  -0.022484  0  3.762774  0  0  -0.013035  0  3.997125  0  0  -0.016185  0  4.022501  0  0  -0.011891  -0.010593  0  3.979809  0
N  N54  1  0.85242306  0.69015549  0.87885507  1  0  -0.291591  0  3.281297  0  0  -0.211918  0  3.549368  0  0  -0.227298  0  3.564691  0  0  -0.325783  -0.201255  0  3.53904  0
N  N55  1  0.14758112  0.19017381  0.37885928  1  0  -0.291658  0  3.28134  0  0  -0.211956  0  3.549456  0  0  -0.227356  0  3.564794  0  0  -0.32574  -0.20129  0  3.539134  0
N  N56  1  0.11912964  0.85032866  0.06445950  1  0  -0.286006  0  3.277249  0  0  -0.207571  0  3.54332  0  0  -0.222592  0  3.558866  0  0  -0.324494  -0.197352  0  3.533092  0
N  N57  1  0.88087200  0.35034312  0.56446681  1  0  -0.286041  0  3.277546  0  0  -0.20756  0  3.543489  0  0  -0.22258  0  3.559034  0  0  -0.324604  -0.197343  0  3.533265  0
Cl  Cl58  1  0.33929587  0.64886614  0.61908522  1  0  1.368789  0  6.198076  0  0  1.308296  0  6.764945  0  0  1.359928  0  6.742819  0  0  0.717221  1.272742  0  6.778441  0
Cl  Cl59  1  0.66072535  0.14885202  0.11909055  1  0  1.368989  0  6.197445  0  0  1.308458  0  6.764323  0  0  1.360091  0  6.742187  0  0  0.71732  1.272908  0  6.777838  0
O  O60  1  0.46248894  0.75748781  0.70977784  1  0  -0.536065  0  1.845589  0  0  -0.508798  0  2.085022  0  0  -0.524897  0  2.072582  0  0  -0.309885  -0.497377  0  2.093019  0
O  O61  1  0.53753237  0.25747116  0.20977618  1  0  -0.536098  0  1.845712  0  0  -0.508814  0  2.085141  0  0  -0.524912  0  2.072696  0  0  -0.309849  -0.497386  0  2.09311  0
O  O62  1  0.34394900  0.52601906  0.64256302  1  0  -0.585858  0  1.892535  0  0  -0.558104  0  2.16723  0  0  -0.57479  0  2.15165  0  0  -0.334801  -0.546103  0  2.177308  0
O  O63  1  0.65604730  0.02600583  0.14256409  1  0  -0.586016  0  1.892441  0  0  -0.558208  0  2.167084  0  0  -0.574891  0  2.1515  0  0  -0.33482  -0.546216  0  2.177181  0
O  O64  1  0.07896813  0.68490635  0.61111787  1  0  -0.540671  0  1.846372  0  0  -0.513824  0  2.098173  0  0  -0.52982  0  2.084386  0  0  -0.308594  -0.502252  0  2.106895  0
O  O65  1  0.92105701  0.18488609  0.11112693  1  0  -0.540786  0  1.846182  0  0  -0.513957  0  2.098034  0  0  -0.529953  0  2.08424  0  0  -0.308758  -0.50236  0  2.1067  0
O  O66  1  0.46789391  0.62190659  0.51579544  1  0  -0.51476  0  1.847414  0  0  -0.480682  0  2.077878  0  0  -0.496837  0  2.066606  0  0  -0.298824  -0.469186  0  2.084969  0
O  O67  1  0.53213331  0.12189797  0.01579552  1  0  -0.514741  0  1.84712  0  0  -0.480613  0  2.077539  0  0  -0.496777  0  2.066282  0  0  -0.298782  -0.469122  0  2.084633  0
