# generated using pymatgen
data_AgH11C12(NO)2
_symmetry_space_group_name_H-M   'P 1'
_cell_length_a   11.49779730
_cell_length_b   13.57674361
_cell_length_c   17.79576517
_cell_angle_alpha   89.99918675
_cell_angle_beta   89.99969364
_cell_angle_gamma   97.54131515
_symmetry_Int_Tables_number   1
_chemical_formula_structural   AgH11C12(NO)2
_chemical_formula_sum   'Ag8 H88 C96 N16 O16'
_cell_volume   2753.93796587
_cell_formula_units_Z   8
loop_
 _symmetry_equiv_pos_site_id
 _symmetry_equiv_pos_as_xyz
  1  'x, y, z'
loop_
 _atom_site_type_symbol
 _atom_site_label
 _atom_site_symmetry_multiplicity
 _atom_site_fract_x
 _atom_site_fract_y
 _atom_site_fract_z
 _atom_site_occupancy
 _atom_site_pbe_bader_charge
 _atom_site_pbe_bader_spin_density
 _atom_site_pbe_cm5_charge
 _atom_site_pbe_ddec_charge
 _atom_site_pbe_ddec_spin_density
 _atom_site_pbe_ddec_sum_bond_order
 _atom_site_pbe_magmom
Ag  Ag0  1  0.77633595  0.64844130  0.51534691  1  0.602665  0  0.444825  0.342786  0  2.001354  0
Ag  Ag1  1  0.22366070  0.85155072  0.01533681  1  0.602692  0  0.444859  0.342808  0  2.00129  0
Ag  Ag2  1  0.22366841  0.35155798  0.48465119  1  0.602705  0  0.444825  0.342754  0  2.00125  0
Ag  Ag3  1  0.77633176  0.14845423  0.98466185  1  0.602781  0  0.444842  0.342832  0  2.001316  0
Ag  Ag4  1  0.90035886  0.85065255  0.50216436  1  0.617494  0  0.458219  0.366727  0  2.026318  0
Ag  Ag5  1  0.09964875  0.64934158  0.00216028  1  0.61741  0  0.45825  0.366743  0  2.026317  0
Ag  Ag6  1  0.09963975  0.14934845  0.49783430  1  0.617455  0  0.458244  0.36677  0  2.02626  0
Ag  Ag7  1  0.90035504  0.35065922  0.99783670  1  0.617346  0  0.458215  0.36669  0  2.026383  0
H  H8  1  0.97314506  0.64121921  0.39919987  1  0.121644  0  0.117661  0.092589  0  1.016124  0
H  H9  1  0.02684549  0.85879449  0.89918785  1  0.121536  0  0.117644  0.092689  0  1.01609  0
H  H10  1  0.02685452  0.35877801  0.60079655  1  0.121586  0  0.117654  0.092561  0  1.01621  0
H  H11  1  0.97315104  0.14121331  0.10081587  1  0.121503  0  0.117638  0.092661  0  1.016119  0
H  H12  1  0.18754453  0.64085094  0.39363083  1  0.0776  0  0.105405  0.106239  0  1.037377  0
H  H13  1  0.81245300  0.85917532  0.89362390  1  0.07739  0  0.105403  0.106101  0  1.037704  0
H  H14  1  0.81245952  0.35914686  0.60636558  1  0.07769  0  0.105354  0.106226  0  1.037548  0
H  H15  1  0.18754089  0.14082809  0.10638095  1  0.07743  0  0.105392  0.106135  0  1.037623  0
H  H16  1  0.17932423  0.59087213  0.63414677  1  0.083887  0  0.108535  0.111939  0  1.018782  0
H  H17  1  0.82067562  0.90912262  0.13414179  1  0.084065  0  0.108543  0.112001  0  1.018724  0
H  H18  1  0.82067951  0.40913690  0.36585189  1  0.082463  0  0.108505  0.111926  0  1.018718  0
H  H19  1  0.17931928  0.09088150  0.86586417  1  0.084226  0  0.1086  0.112081  0  1.018711  0
H  H20  1  0.96585056  0.59625629  0.62885195  1  0.089722  0  0.120207  0.095265  0  0.980298  0
H  H21  1  0.03415295  0.90373918  0.12883746  1  0.089948  0  0.120128  0.095204  0  0.980365  0
H  H22  1  0.03415562  0.40375190  0.37114840  1  0.089695  0  0.12023  0.095303  0  0.980321  0
H  H23  1  0.96584500  0.09626707  0.87116570  1  0.089965  0  0.120179  0.095275  0  0.980388  0
H  H24  1  0.57528682  0.63685953  0.39871452  1  0.155895  0  0.113649  0.097896  0  1.019334  0
H  H25  1  0.42471024  0.86313075  0.89871622  1  0.155644  0  0.113683  0.097867  0  1.019349  0
H  H26  1  0.42472099  0.36313963  0.60128695  1  0.155195  0  0.113633  0.097888  0  1.019368  0
H  H27  1  0.57528608  0.13685910  0.10128300  1  0.155951  0  0.113635  0.097904  0  1.019285  0
H  H28  1  0.35841675  0.63250301  0.39283825  1  0.065741  0  0.10862  0.115496  0  0.999118  0
H  H29  1  0.64158282  0.86749926  0.89283745  1  0.065685  0  0.108632  0.115496  0  0.999125  0
H  H30  1  0.64159447  0.36750424  0.60716210  1  0.065558  0  0.108623  0.115548  0  0.999077  0
H  H31  1  0.35841401  0.13249731  0.10716515  1  0.065638  0  0.108607  0.115467  0  0.999202  0
H  H32  1  0.35464213  0.60415221  0.63525452  1  0.071745  0  0.106514  0.109937  0  1.013369  0
H  H33  1  0.64536060  0.89585662  0.13525368  1  0.071754  0  0.10654  0.109994  0  1.013352  0
H  H34  1  0.64536141  0.39585159  0.36474303  1  0.071648  0  0.106548  0.109947  0  1.013464  0
H  H35  1  0.35463095  0.10414388  0.86474836  1  0.071765  0  0.106538  0.109971  0  1.013367  0
H  H36  1  0.57168001  0.61177110  0.62963983  1  0.130839  0  0.115951  0.100014  0  1.002421  0
H  H37  1  0.42832167  0.88822816  0.12964097  1  0.130791  0  0.115937  0.099989  0  1.002436  0
H  H38  1  0.42832206  0.38822976  0.37035939  1  0.130846  0  0.115909  0.099981  0  1.00238  0
H  H39  1  0.57167059  0.11177157  0.87035994  1  0.130972  0  0.115967  0.100019  0  1.002417  0
H  H40  1  0.10215860  0.87275652  0.61861190  1  0.160846  0  0.119311  0.10558  0  1.007457  0
H  H41  1  0.89784736  0.62726748  0.11860354  1  0.160815  0  0.119306  0.105648  0  1.007548  0
H  H42  1  0.89784433  0.12724431  0.38139182  1  0.160875  0  0.119322  0.105588  0  1.007446  0
H  H43  1  0.10215028  0.37273728  0.88139849  1  0.160922  0  0.11929  0.105578  0  1.007555  0
H  H44  1  0.31664384  0.86683269  0.62319803  1  0.07114  0  0.103004  0.101625  0  1.036869  0
H  H45  1  0.68336873  0.63319397  0.12318700  1  0.071101  0  0.102986  0.101591  0  1.036922  0
H  H46  1  0.68335655  0.13316000  0.37680681  1  0.07134  0  0.103025  0.101733  0  1.036833  0
H  H47  1  0.31663176  0.36680770  0.87681278  1  0.071195  0  0.102985  0.101632  0  1.036749  0
H  H48  1  0.31757586  0.88549301  0.38010583  1  0.066565  0  0.1068  0.109736  0  1.013416  0
H  H49  1  0.68242639  0.61449222  0.88009921  1  0.066656  0  0.106806  0.109673  0  1.013333  0
H  H50  1  0.68242194  0.11449978  0.61989902  1  0.066244  0  0.106806  0.109711  0  1.013427  0
H  H51  1  0.31757431  0.38550197  0.11989946  1  0.066534  0  0.106795  0.109657  0  1.013569  0
H  H52  1  0.10371968  0.89187735  0.38711570  1  0.155008  0  0.121751  0.103552  0  0.996578  0
H  H53  1  0.89628483  0.60811064  0.88710840  1  0.154413  0  0.121751  0.1036  0  0.996404  0
H  H54  1  0.89628107  0.10812131  0.61289139  1  0.154454  0  0.12175  0.103547  0  0.996474  0
H  H55  1  0.10372034  0.39188413  0.11289589  1  0.153995  0  0.121807  0.103622  0  0.996491  0
H  H56  1  0.70898678  0.89433648  0.38756473  1  0.107305  0  0.11795  0.091064  0  0.999566  0
H  H57  1  0.29101493  0.60565909  0.88756577  1  0.107291  0  0.117954  0.091019  0  0.99966  0
H  H58  1  0.29100619  0.10566248  0.61243338  1  0.107788  0  0.117978  0.09109  0  0.999493  0
H  H59  1  0.70899323  0.39434604  0.11242727  1  0.107517  0  0.11795  0.091059  0  0.999469  0
H  H60  1  0.49360943  0.89241161  0.38092534  1  0.056839  0  0.107204  0.112352  0  1.002137  0
H  H61  1  0.50638940  0.60759092  0.88092391  1  0.056813  0  0.107258  0.112471  0  1.002317  0
H  H62  1  0.50638095  0.10758744  0.61907670  1  0.056665  0  0.107234  0.112346  0  1.002188  0
H  H63  1  0.49361927  0.39240820  0.11907363  1  0.056674  0  0.107214  0.112368  0  1.002222  0
H  H64  1  0.48682560  0.85803911  0.62296458  1  0.061974  0  0.107381  0.112459  0  1.004733  0
H  H65  1  0.51318058  0.64195637  0.12296192  1  0.061976  0  0.107316  0.112379  0  1.004644  0
H  H66  1  0.51318120  0.14195933  0.37703689  1  0.061998  0  0.107335  0.112393  0  1.004709  0
H  H67  1  0.48680802  0.35803826  0.87703562  1  0.061779  0  0.10741  0.112448  0  1.004668  0
H  H68  1  0.70193516  0.86228811  0.61826530  1  0.120496  0  0.11953  0.097134  0  0.99561  0
H  H69  1  0.29806995  0.63771050  0.11826121  1  0.120533  0  0.119526  0.097113  0  0.995555  0
H  H70  1  0.29807433  0.13771921  0.38173561  1  0.120434  0  0.119504  0.097084  0  0.995633  0
H  H71  1  0.70192099  0.36228703  0.88173071  1  0.120455  0  0.11952  0.097121  0  0.995562  0
H  H72  1  0.90417114  0.83175052  0.77735858  1  0.063775  0  0.089003  0.143328  0  0.998666  0
H  H73  1  0.09583194  0.66824796  0.27735599  1  0.063705  0  0.089008  0.143388  0  0.99871  0
H  H74  1  0.09583047  0.16824811  0.22264177  1  0.063731  0  0.089027  0.143375  0  0.998681  0
H  H75  1  0.90417409  0.33174677  0.72264380  1  0.063722  0  0.088987  0.143337  0  0.998752  0
H  H76  1  0.92085958  0.70405598  0.78063531  1  0.059468  0  0.095357  0.155019  0  1.013749  0
H  H77  1  0.07914448  0.79594314  0.28063644  1  0.059485  0  0.095353  0.155054  0  1.013715  0
H  H78  1  0.07913928  0.29594201  0.21936111  1  0.059435  0  0.095357  0.155015  0  1.013763  0
H  H79  1  0.92085769  0.20405397  0.71936840  1  0.059488  0  0.095357  0.155036  0  1.013838  0
H  H80  1  0.77829173  0.73918101  0.79128903  1  0.017973  0  0.080142  0.123935  0  1.030473  0
H  H81  1  0.22171019  0.76081648  0.29127880  1  0.017798  0  0.080145  0.123929  0  1.030531  0
H  H82  1  0.22170643  0.26081775  0.20871020  1  0.017683  0  0.080138  0.123953  0  1.030519  0
H  H83  1  0.77829473  0.23918128  0.70872099  1  0.018077  0  0.080113  0.123925  0  1.030572  0
H  H84  1  0.73715949  0.69406086  0.23513962  1  0.024167  0  0.081711  0.129513  0  1.025936  0
H  H85  1  0.26285387  0.80593958  0.73513802  1  0.024234  0  0.081651  0.129508  0  1.025872  0
H  H86  1  0.26285015  0.30594720  0.76485624  1  0.024116  0  0.081657  0.129483  0  1.025892  0
H  H87  1  0.73715058  0.19405596  0.26486009  1  0.024031  0  0.081659  0.129454  0  1.025964  0
H  H88  1  0.87688671  0.76803287  0.22187851  1  0.058389  0  0.094462  0.152151  0  1.009776  0
H  H89  1  0.12312350  0.73196870  0.72187090  1  0.058421  0  0.09447  0.152142  0  1.00973  0
H  H90  1  0.12312136  0.23197599  0.77812241  1  0.058542  0  0.094474  0.152191  0  1.009698  0
H  H91  1  0.87687994  0.26802613  0.27812383  1  0.058483  0  0.09447  0.152157  0  1.009818  0
H  H92  1  0.75261275  0.82603921  0.24618813  1  0.002267  0  0.08585  0.127587  0  1.018186  0
H  H93  1  0.24739424  0.67395602  0.74618015  1  0.00186  0  0.08582  0.127515  0  1.018311  0
H  H94  1  0.24739430  0.17396895  0.75381222  1  0.002032  0  0.085867  0.127567  0  1.018257  0
H  H95  1  0.75260600  0.32603594  0.25381851  1  0.001938  0  0.085818  0.127528  0  1.018244  0
C  C96  1  0.02312727  0.63026633  0.44981309  1  0.461096  0  0.043806  0.087774  0  3.955027  0
C  C97  1  0.97686973  0.86974237  0.94980152  1  0.461734  0  0.043848  0.087606  0  3.95489  0
C  C98  1  0.97687607  0.36973224  0.55018501  1  0.460826  0  0.04377  0.087704  0  3.955212  0
C  C99  1  0.02312776  0.13026166  0.05020164  1  0.461619  0  0.043864  0.087663  0  3.955041  0
C  C100  1  0.14369370  0.63018758  0.44767585  1  -0.008805  0  -0.083221  -0.16891  0  3.948927  0
C  C101  1  0.85630150  0.86982497  0.94766639  1  -0.008695  0  -0.083255  -0.168758  0  3.949167  0
C  C102  1  0.85630837  0.36981329  0.55232225  1  -0.008603  0  -0.083204  -0.16889  0  3.94923  0
C  C103  1  0.14369224  0.13017769  0.05233621  1  -0.008462  0  -0.083283  -0.168843  0  3.949287  0
C  C104  1  0.20580208  0.61657828  0.51399440  1  -0.053829  0  0.008357  0.091615  0  3.988665  0
C  C105  1  0.79419870  0.88343381  0.01398980  1  -0.053777  0  0.008282  0.091514  0  3.988623  0
C  C106  1  0.79420492  0.38342539  0.48600314  1  -0.054025  0  0.008335  0.091519  0  3.988902  0
C  C107  1  0.20579707  0.11657028  0.98601336  1  -0.054138  0  0.008345  0.091582  0  3.988649  0
C  C108  1  0.13922642  0.60342145  0.58028002  1  0.030774  0  -0.080072  -0.163408  0  3.939401  0
C  C109  1  0.86077809  0.89657720  0.08027280  1  0.030656  0  -0.080011  -0.163471  0  3.939699  0
C  C110  1  0.86077915  0.39658377  0.41971976  1  0.032153  0  -0.079976  -0.163258  0  3.939462  0
C  C111  1  0.13921869  0.10342760  0.91973093  1  0.030557  0  -0.080103  -0.163607  0  3.939583  0
C  C112  1  0.01898582  0.60539169  0.57797462  1  0.500467  0  0.047136  0.094297  0  3.951566  0
C  C113  1  0.98101740  0.89460481  0.07796530  1  0.500353  0  0.047155  0.094311  0  3.952045  0
C  C114  1  0.98101843  0.39461134  0.42202404  1  0.5004  0  0.047152  0.094242  0  3.951672  0
C  C115  1  0.01897811  0.10540227  0.92203729  1  0.500034  0  0.047167  0.094389  0  3.95156  0
C  C116  1  0.52138693  0.62925839  0.44943740  1  0.426694  0  0.041203  0.083385  0  3.945963  0
C  C117  1  0.47861266  0.87073751  0.94944107  1  0.426909  0  0.041172  0.083358  0  3.946477  0
C  C118  1  0.47861915  0.37074083  0.55056182  1  0.427462  0  0.04112  0.083268  0  3.946077  0
C  C119  1  0.52138488  0.12925829  0.05056096  1  0.426652  0  0.041181  0.083327  0  3.946211  0
C  C120  1  0.40034485  0.62732639  0.44730341  1  0.023484  0  -0.084671  -0.17414  0  3.956483  0
C  C121  1  0.59964862  0.87267351  0.94730214  1  0.023562  0  -0.08473  -0.174149  0  3.956723  0
C  C122  1  0.59966174  0.37267954  0.55269413  1  0.023703  0  -0.084684  -0.17427  0  3.956685  0
C  C123  1  0.40034674  0.12732012  0.05270102  1  0.023408  0  -0.084679  -0.174092  0  3.956568  0
C  C124  1  0.33453998  0.61780367  0.51403238  1  -0.102316  0  0.008854  0.092585  0  3.992036  0
C  C125  1  0.66545912  0.88220025  0.01402881  1  -0.102648  0  0.00889  0.09269  0  3.991703  0
C  C126  1  0.66546717  0.38220074  0.48596629  1  -0.102427  0  0.008877  0.092638  0  3.991864  0
C  C127  1  0.33453700  0.11779709  0.98597267  1  -0.1022  0  0.008878  0.092616  0  3.991443  0
C  C128  1  0.39833666  0.61162170  0.58090945  1  0.023349  0  -0.083746  -0.168511  0  3.944728  0
C  C129  1  0.60166333  0.88838459  0.08090997  1  0.023744  0  -0.083743  -0.168614  0  3.944598  0
C  C130  1  0.60167075  0.38837971  0.41908866  1  0.023385  0  -0.083714  -0.168421  0  3.944568  0
C  C131  1  0.39833569  0.11161415  0.91909038  1  0.023407  0  -0.083741  -0.168566  0  3.944673  0
C  C132  1  0.51946658  0.61464247  0.57867835  1  0.477604  0  0.042075  0.08062  0  3.954817  0
C  C133  1  0.48053160  0.88535495  0.07868158  1  0.477377  0  0.042053  0.080635  0  3.954858  0
C  C134  1  0.48053707  0.38535758  0.42132257  1  0.477678  0  0.042047  0.080499  0  3.954687  0
C  C135  1  0.51945862  0.11464336  0.92131933  1  0.477582  0  0.041959  0.080604  0  3.955186  0
C  C136  1  0.15482395  0.87660609  0.56744624  1  0.486138  0  0.046682  0.092111  0  3.919901  0
C  C137  1  0.84518075  0.62341002  0.06743980  1  0.486004  0  0.046627  0.091985  0  3.920144  0
C  C138  1  0.84517517  0.12338890  0.43255917  1  0.485306  0  0.046631  0.092202  0  3.919952  0
C  C139  1  0.15481588  0.37659404  0.93256617  1  0.485515  0  0.046586  0.092027  0  3.920127  0
C  C140  1  0.27478089  0.87243248  0.56884076  1  -0.081728  0  -0.084846  -0.172838  0  3.962208  0
C  C141  1  0.72522091  0.62758221  0.06883302  1  -0.081935  0  -0.08481  -0.172849  0  3.962283  0
C  C142  1  0.72521732  0.12755806  0.43116183  1  -0.081586  0  -0.084847  -0.173123  0  3.962308  0
C  C143  1  0.27476932  0.37241610  0.93117127  1  -0.081896  0  -0.084683  -0.172766  0  3.962119  0
C  C144  1  0.33951255  0.87602641  0.50168870  1  0.022336  0  0.004935  0.090179  0  3.983094  0
C  C145  1  0.66049690  0.62397664  0.00168459  1  0.02307  0  0.004831  0.09019  0  3.983018  0
C  C146  1  0.66048622  0.12396261  0.49831446  1  0.022085  0  0.004851  0.090301  0  3.983175  0
C  C147  1  0.33950110  0.37602139  0.99831632  1  0.022874  0  0.004753  0.09001  0  3.982932  0
C  C148  1  0.27555156  0.88287488  0.43502123  1  -0.077359  0  -0.085568  -0.17458  0  3.9585  0
C  C149  1  0.72445928  0.61712014  0.93501837  1  -0.077435  0  -0.085361  -0.174226  0  3.958382  0
C  C150  1  0.72444614  0.11712165  0.56497968  1  -0.077014  0  -0.085469  -0.174448  0  3.958563  0
C  C151  1  0.27554619  0.38287611  0.06498648  1  -0.077305  0  -0.085398  -0.174249  0  3.958314  0
C  C152  1  0.15552731  0.88702177  0.43796032  1  0.502655  0  0.047618  0.085931  0  3.945485  0
C  C153  1  0.84447170  0.61297513  0.93795258  1  0.502924  0  0.047563  0.085747  0  3.945556  0
C  C154  1  0.84447140  0.11297548  0.56204284  1  0.503529  0  0.047649  0.085948  0  3.945435  0
C  C155  1  0.15552574  0.38702441  0.06205114  1  0.503454  0  0.047598  0.085787  0  3.945153  0
C  C156  1  0.65544742  0.88646471  0.43828480  1  0.453174  0  0.044044  0.091927  0  3.959678  0
C  C157  1  0.34455230  0.61353141  0.93828163  1  0.453057  0  0.043965  0.091953  0  3.959173  0
C  C158  1  0.34454829  0.11353489  0.56171387  1  0.452486  0  0.044022  0.091838  0  3.959251  0
C  C159  1  0.65544921  0.38647097  0.06170692  1  0.452637  0  0.044077  0.091962  0  3.95911  0
C  C160  1  0.53457402  0.88486230  0.43541186  1  0.035912  0  -0.085487  -0.174849  0  3.957175  0
C  C161  1  0.46543122  0.61513516  0.93540601  1  0.036948  0  -0.085536  -0.175045  0  3.957326  0
C  C162  1  0.46542825  0.11513108  0.56458905  1  0.036369  0  -0.085534  -0.17483  0  3.957174  0
C  C163  1  0.53457547  0.38486702  0.06458760  1  0.036409  0  -0.085511  -0.174942  0  3.957161  0
C  C164  1  0.46785385  0.87511317  0.50182109  1  -0.010463  0  0.00857  0.097961  0  3.979281  0
C  C165  1  0.53215062  0.62488257  0.00181743  1  -0.011601  0  0.008575  0.097908  0  3.979195  0
C  C166  1  0.53214730  0.12488324  0.49818375  1  -0.010587  0  0.008602  0.097914  0  3.979463  0
C  C167  1  0.46785155  0.37511455  0.99817955  1  -0.010796  0  0.008587  0.09807  0  3.978977  0
C  C168  1  0.53080080  0.86681159  0.56876055  1  -0.079403  0  -0.085252  -0.173503  0  3.953284  0
C  C169  1  0.46919967  0.63318819  0.06875533  1  -0.079401  0  -0.085224  -0.173452  0  3.953117  0
C  C170  1  0.46919949  0.13318485  0.43124261  1  -0.079307  0  -0.085274  -0.173545  0  3.953376  0
C  C171  1  0.53079309  0.36680554  0.93123996  1  -0.079223  0  -0.085354  -0.173648  0  3.953156  0
C  C172  1  0.65182420  0.86933070  0.56703912  1  0.509734  0  0.044865  0.089732  0  3.962108  0
C  C173  1  0.34817873  0.63066828  0.06703493  1  0.509851  0  0.044943  0.0898  0  3.962213  0
C  C174  1  0.34818209  0.13067375  0.43296123  1  0.509979  0  0.044935  0.089821  0  3.962137  0
C  C175  1  0.65181551  0.36932838  0.93295700  1  0.510014  0  0.044929  0.089811  0  3.962026  0
C  C176  1  0.84516870  0.74886199  0.67714260  1  1.581632  0  0.17762  0.654955  0  4.223083  0
C  C177  1  0.15482503  0.75114259  0.17713665  1  1.581553  0  0.17778  0.655214  0  4.222919  0
C  C178  1  0.15482880  0.25114203  0.32285775  1  1.582204  0  0.177552  0.654911  0  4.22332  0
C  C179  1  0.84517287  0.24885917  0.82286370  1  1.581593  0  0.17776  0.655214  0  4.222911  0
C  C180  1  0.86235143  0.75723040  0.76198406  1  -0.124458  0  -0.256314  -0.514574  0  3.903122  0
C  C181  1  0.13764877  0.74276625  0.26197994  1  -0.124114  0  -0.256389  -0.514785  0  3.903245  0
C  C182  1  0.13765089  0.24276746  0.23801630  1  -0.124108  0  -0.256346  -0.514668  0  3.903286  0
C  C183  1  0.86235568  0.25722928  0.73802041  1  -0.124429  0  -0.25631  -0.514681  0  3.903362  0
C  C184  1  0.82240960  0.75028577  0.33861546  1  1.587389  0  0.180981  0.657444  0  4.21569  0
C  C185  1  0.17758625  0.74970502  0.83860803  1  1.587031  0  0.180831  0.657246  0  4.215607  0
C  C186  1  0.17759506  0.24971500  0.66138320  1  1.587226  0  0.180929  0.657488  0  4.215916  0
C  C187  1  0.82240540  0.25029175  0.16138782  1  1.587592  0  0.180981  0.657562  0  4.215598  0
C  C188  1  0.79562430  0.75911019  0.25492982  1  -0.069265  0  -0.254058  -0.510605  0  3.910181  0
C  C189  1  0.20438431  0.74088480  0.75492577  1  -0.06911  0  -0.253935  -0.510465  0  3.910052  0
C  C190  1  0.20438229  0.24089574  0.74506716  1  -0.069095  0  -0.254021  -0.510616  0  3.910145  0
C  C191  1  0.79561867  0.25910780  0.24507065  1  -0.068938  0  -0.253966  -0.510518  0  3.910277  0
N  N192  1  0.96060349  0.61825015  0.51387224  1  -1.201753  0  -0.342622  -0.204209  0  3.604264  0
N  N193  1  0.03939267  0.88174791  0.01386190  1  -1.202357  0  -0.34253  -0.203994  0  3.604317  0
N  N194  1  0.03939731  0.38175301  0.48612586  1  -1.201484  0  -0.342579  -0.204073  0  3.604396  0
N  N195  1  0.96060137  0.11825625  0.98614407  1  -1.201999  0  -0.342583  -0.204171  0  3.604122  0
N  N196  1  0.58104749  0.62283384  0.51401955  1  -1.203854  0  -0.338853  -0.188217  0  3.553739  0
N  N197  1  0.41895120  0.87715963  0.01402084  1  -1.203697  0  -0.338835  -0.188176  0  3.553997  0
N  N198  1  0.41895397  0.37716405  0.48598024  1  -1.203783  0  -0.338792  -0.188031  0  3.553688  0
N  N199  1  0.58103984  0.12283417  0.98597838  1  -1.204041  0  -0.338766  -0.188162  0  3.553884  0
N  N200  1  0.09512171  0.88420942  0.50293938  1  -1.205928  0  -0.336823  -0.198304  0  3.566821  0
N  N201  1  0.90487593  0.61579553  0.00293225  1  -1.205765  0  -0.336806  -0.198288  0  3.567105  0
N  N202  1  0.90487918  0.11578999  0.49706715  1  -1.205597  0  -0.336836  -0.198385  0  3.56706  0
N  N203  1  0.09512166  0.38420475  0.99706978  1  -1.205437  0  -0.336851  -0.198256  0  3.566897  0
N  N204  1  0.71446779  0.87902124  0.50293944  1  -1.196719  0  -0.342265  -0.208231  0  3.599789  0
N  N205  1  0.28553169  0.62097991  0.00294175  1  -1.196831  0  -0.342279  -0.208174  0  3.599637  0
N  N206  1  0.28553022  0.12097679  0.49705754  1  -1.197004  0  -0.342277  -0.208152  0  3.599577  0
N  N207  1  0.71446621  0.37902186  0.99705073  1  -1.196797  0  -0.342303  -0.208205  0  3.59944  0
O  O208  1  0.76487293  0.68276346  0.65331721  1  -1.191035  0  -0.366194  -0.608155  0  2.189482  0
O  O209  1  0.23510693  0.81725333  0.15331082  1  -1.190977  0  -0.366255  -0.608202  0  2.189511  0
O  O210  1  0.23512243  0.31724289  0.34668258  1  -1.19112  0  -0.366142  -0.608099  0  2.189614  0
O  O211  1  0.76488970  0.18275072  0.84669066  1  -1.19098  0  -0.366284  -0.608249  0  2.189563  0
O  O212  1  0.91427506  0.80790488  0.63688370  1  -1.17964  0  -0.352779  -0.595354  0  2.232006  0
O  O213  1  0.08572496  0.69209505  0.13688033  1  -1.179752  0  -0.352827  -0.595459  0  2.231877  0
O  O214  1  0.08572299  0.19209763  0.36311777  1  -1.180129  0  -0.352737  -0.595304  0  2.232024  0
O  O215  1  0.91427482  0.30790740  0.86312059  1  -1.179786  0  -0.352793  -0.595435  0  2.231921  0
O  O216  1  0.76502484  0.67875546  0.37431658  1  -1.192439  0  -0.355872  -0.598187  0  2.197723  0
O  O217  1  0.23496985  0.82123091  0.87431323  1  -1.19229  0  -0.355872  -0.598224  0  2.197852  0
O  O218  1  0.23498348  0.32123769  0.62567927  1  -1.192166  0  -0.355857  -0.598174  0  2.197769  0
O  O219  1  0.76501936  0.17876669  0.12568375  1  -1.192467  0  -0.355909  -0.5983  0  2.197748  0
O  O220  1  0.89927472  0.81693605  0.36564330  1  -1.186831  0  -0.357155  -0.597884  0  2.208905  0
O  O221  1  0.10072952  0.68304565  0.86563294  1  -1.18643  0  -0.357071  -0.597734  0  2.208822  0
O  O222  1  0.10072151  0.18307027  0.63435761  1  -1.186935  0  -0.357165  -0.597971  0  2.209063  0
O  O223  1  0.89926538  0.31694575  0.13436010  1  -1.186867  0  -0.357158  -0.597903  0  2.208876  0
