# generated using pymatgen
data_NaH15Pb(C4O3)2
_symmetry_space_group_name_H-M   'P 1'
_cell_length_a   11.01074466
_cell_length_b   11.00811098
_cell_length_c   11.08450000
_cell_angle_alpha   90.00000000
_cell_angle_beta   90.00000000
_cell_angle_gamma   90.00000000
_symmetry_Int_Tables_number   1
_chemical_formula_structural   NaH15Pb(C4O3)2
_chemical_formula_sum   'Na4 H60 Pb4 C32 O24'
_cell_volume   1343.52452452
_cell_formula_units_Z   4
loop_
 _symmetry_equiv_pos_site_id
 _symmetry_equiv_pos_as_xyz
  1  'x, y, z'
loop_
 _atom_site_type_symbol
 _atom_site_label
 _atom_site_symmetry_multiplicity
 _atom_site_fract_x
 _atom_site_fract_y
 _atom_site_fract_z
 _atom_site_occupancy
 _atom_site_pbe_bader_charge
 _atom_site_pbe_bader_spin_density
 _atom_site_pbe_cm5_charge
 _atom_site_pbe_ddec_charge
 _atom_site_pbe_ddec_spin_density
 _atom_site_pbe_ddec_sum_bond_order
 _atom_site_pbe_magmom
Na  Na0  1  0.84614713  0.65293764  0.34658036  1  0.898265  0  0.68128  0.875495  0  0.552744  0
Na  Na1  1  0.65384951  0.34705682  0.84657765  1  0.898263  0  0.681311  0.875537  0  0.552712  0
Na  Na2  1  0.34615188  0.84705996  0.65342325  1  0.898256  0  0.681301  0.875517  0  0.552717  0
Na  Na3  1  0.15385790  0.15293723  0.15341513  1  0.898272  0  0.681281  0.87549  0  0.552716  0
H  H4  1  0.98563452  0.60518285  0.00880870  1  0.100229  0  0.101968  0.178451  0  1.024248  0
H  H5  1  0.51436576  0.39481252  0.50880689  1  0.100311  0  0.101962  0.178383  0  1.024195  0
H  H6  1  0.48563655  0.89482655  0.99119221  1  0.099977  0  0.101977  0.178396  0  1.024363  0
H  H7  1  0.01436506  0.10519062  0.49120935  1  0.100399  0  0.101967  0.17847  0  1.0241  0
H  H8  1  0.00865518  0.98570954  0.60438811  1  0.104178  0  0.102468  0.179193  0  1.023318  0
H  H9  1  0.60529058  0.00866361  0.98567549  1  0.100702  0  0.101959  0.178586  0  1.023668  0
H  H10  1  0.49136277  0.01429128  0.10439713  1  0.104282  0  0.102445  0.179155  0  1.023216  0
H  H11  1  0.39471717  0.50866311  0.51432541  1  0.100842  0  0.101981  0.178654  0  1.023684  0
H  H12  1  0.50864770  0.51429351  0.39561189  1  0.10429  0  0.102505  0.17922  0  1.023291  0
H  H13  1  0.89473149  0.99132812  0.48567549  1  0.100515  0  0.101981  0.178635  0  1.023696  0
H  H14  1  0.99135620  0.48571185  0.89560558  1  0.103984  0  0.102441  0.179166  0  1.023204  0
H  H15  1  0.10528171  0.49133680  0.01432270  1  0.100315  0  0.101942  0.178602  0  1.023728  0
H  H16  1  0.83701696  0.20123434  0.23349542  1  0.107766  0  0.101131  0.182074  0  1.034085  0
H  H17  1  0.66297605  0.79876284  0.73350895  1  0.107587  0  0.101157  0.182102  0  1.034284  0
H  H18  1  0.33704896  0.29877515  0.76650638  1  0.107402  0  0.101114  0.182087  0  1.034049  0
H  H19  1  0.16295628  0.70122385  0.26649556  1  0.107431  0  0.101124  0.182075  0  1.033865  0
H  H20  1  0.23350828  0.83677935  0.20200189  1  0.109259  0  0.101383  0.182206  0  1.033532  0
H  H21  1  0.20133516  0.23390026  0.83639677  1  0.109168  0  0.101051  0.181895  0  1.033943  0
H  H22  1  0.26650150  0.16322964  0.70200911  1  0.10943  0  0.10131  0.182005  0  1.033607  0
H  H23  1  0.79867714  0.73389158  0.66359691  1  0.108946  0  0.100991  0.181861  0  1.0339  0
H  H24  1  0.73352260  0.66321097  0.79799720  1  0.109447  0  0.101377  0.182199  0  1.033493  0
H  H25  1  0.29867099  0.76609965  0.33639226  1  0.10906  0  0.101037  0.181868  0  1.033849  0
H  H26  1  0.76647949  0.33679257  0.29798457  1  0.111347  0  0.101346  0.182077  0  1.033548  0
H  H27  1  0.70131678  0.26611559  0.16358789  1  0.108912  0  0.101005  0.18187  0  1.034007  0
H  H28  1  0.56143251  0.66607159  0.96289052  1  0.041078  0  0.09971  0.152403  0  1.020918  0
H  H29  1  0.93858411  0.33394285  0.46290676  1  0.041153  0  0.099605  0.152228  0  1.020684  0
H  H30  1  0.06142001  0.83395144  0.03709324  1  0.041197  0  0.099667  0.15235  0  1.020603  0
H  H31  1  0.43856798  0.16607300  0.53710677  1  0.041128  0  0.099669  0.152311  0  1.020748  0
H  H32  1  0.96230276  0.56164768  0.66581443  1  0.037835  0  0.099611  0.152128  0  1.022595  0
H  H33  1  0.66511305  0.96254298  0.56253417  1  0.04377  0  0.099951  0.152881  0  1.021106  0
H  H34  1  0.53770387  0.43835314  0.16580270  1  0.037599  0  0.099608  0.152116  0  1.022503  0
H  H35  1  0.33487563  0.46254803  0.93748117  1  0.043763  0  0.099937  0.152821  0  1.02107  0
H  H36  1  0.46228844  0.93832448  0.33418287  1  0.037863  0  0.099587  0.152091  0  1.022649  0
H  H37  1  0.83489358  0.03746419  0.06254319  1  0.043733  0  0.099937  0.152825  0  1.021174  0
H  H38  1  0.03768864  0.06163183  0.83418106  1  0.038141  0  0.099597  0.152107  0  1.022481  0
H  H39  1  0.16510237  0.53744189  0.43746583  1  0.043996  0  0.099975  0.152876  0  1.020994  0
H  H40  1  0.64995695  0.76402754  0.05675493  1  0.04633  0  0.098981  0.146157  0  1.029534  0
H  H41  1  0.85004423  0.23599326  0.55676485  1  0.046514  0  0.099003  0.146168  0  1.029627  0
H  H42  1  0.14995625  0.73599640  0.94323425  1  0.046586  0  0.098962  0.146065  0  1.029575  0
H  H43  1  0.35003809  0.26402259  0.44324237  1  0.046305  0  0.099014  0.146215  0  1.02964  0
H  H44  1  0.05690442  0.65067113  0.76249357  1  0.050849  0  0.099151  0.146279  0  1.02906  0
H  H45  1  0.76350876  0.05661916  0.65038297  1  0.046339  0  0.098813  0.146105  0  1.029469  0
H  H46  1  0.44310264  0.34933423  0.26249087  1  0.050837  0  0.099173  0.146284  0  1.029125  0
H  H47  1  0.23650716  0.55663047  0.84962515  1  0.046545  0  0.098784  0.146061  0  1.029607  0
H  H48  1  0.55689240  0.84930921  0.23750553  1  0.051027  0  0.099107  0.146186  0  1.02914  0
H  H49  1  0.73650786  0.94338257  0.15039470  1  0.046561  0  0.098824  0.146113  0  1.029621  0
H  H50  1  0.94307881  0.15065528  0.73751004  1  0.050856  0  0.099091  0.146229  0  1.029113  0
H  H51  1  0.26348263  0.44336581  0.34959719  1  0.046854  0  0.09875  0.146031  0  1.029614  0
H  H52  1  0.54086805  0.66745784  0.12355542  1  0.05502  0  0.100845  0.15111  0  0.99498  0
H  H53  1  0.95913131  0.33254298  0.62357616  1  0.054829  0  0.100739  0.150961  0  0.994962  0
H  H54  1  0.04087280  0.83255247  0.87641932  1  0.054891  0  0.100726  0.150945  0  0.995053  0
H  H55  1  0.45912880  0.16745289  0.37644007  1  0.055065  0  0.100813  0.151114  0  0.994967  0
H  H56  1  0.12414782  0.54144985  0.66675177  1  0.056116  0  0.100627  0.151013  0  0.994509  0
H  H57  1  0.66665972  0.12443552  0.54270197  1  0.056903  0  0.100645  0.151284  0  0.995249  0
H  H58  1  0.37585015  0.45856006  0.16673824  1  0.056254  0  0.10062  0.150988  0  0.994413  0
H  H59  1  0.33333894  0.62444592  0.95731427  1  0.056651  0  0.100648  0.151266  0  0.995116  0
H  H60  1  0.62414126  0.95854684  0.33324823  1  0.056386  0  0.100682  0.151055  0  0.994359  0
H  H61  1  0.83334781  0.87556621  0.04270107  1  0.057023  0  0.100686  0.151283  0  0.995218  0
H  H62  1  0.87583995  0.04143490  0.83325725  1  0.056206  0  0.100616  0.151017  0  0.994581  0
H  H63  1  0.16664631  0.37554672  0.45728901  1  0.056803  0  0.100633  0.151262  0  0.995219  0
Pb  Pb64  1  0.89776308  0.39766042  0.10206414  1  1.529048  0  0.640097  1.247609  0  3.051849  0
Pb  Pb65  1  0.60222993  0.60233586  0.60208309  1  1.529174  0  0.640092  1.247653  0  3.051764  0
Pb  Pb66  1  0.39777237  0.10234726  0.89793495  1  1.529147  0  0.640079  1.247546  0  3.051996  0
Pb  Pb67  1  0.10223559  0.89766719  0.39793044  1  1.528994  0  0.64016  1.247739  0  3.051821  0
C  C68  1  0.01178304  0.51171722  0.98849926  1  -0.377989  0  -0.289072  -0.633079  0  3.649026  0
C  C69  1  0.48821221  0.48829177  0.48849294  1  -0.378845  0  -0.289138  -0.633104  0  3.648946  0
C  C70  1  0.51178827  0.98828855  0.01150435  1  -0.378443  0  -0.289083  -0.632965  0  3.649051  0
C  C71  1  0.98822290  0.01170955  0.51150435  1  -0.378544  0  -0.289137  -0.633201  0  3.649141  0
C  C72  1  0.78343566  0.28322298  0.21651856  1  -0.392857  0  -0.284627  -0.628347  0  3.597435  0
C  C73  1  0.71654827  0.71678874  0.71653029  1  -0.39088  0  -0.284697  -0.628535  0  3.597524  0
C  C74  1  0.28346221  0.21679378  0.78347693  1  -0.390851  0  -0.284642  -0.628335  0  3.597335  0
C  C75  1  0.21654939  0.78321612  0.28346430  1  -0.390603  0  -0.284715  -0.628541  0  3.597038  0
C  C76  1  0.70362544  0.57765679  0.06574406  1  1.553519  0  0.20988  0.681313  0  4.172778  0
C  C77  1  0.79637575  0.42235494  0.56576030  1  1.553742  0  0.209836  0.681354  0  4.172994  0
C  C78  1  0.20362837  0.92235807  0.93424602  1  1.553784  0  0.209951  0.681627  0  4.172723  0
C  C79  1  0.29637596  0.07765365  0.43426045  1  1.553427  0  0.210047  0.68152  0  4.172579  0
C  C80  1  0.06553144  0.70372655  0.57709053  1  1.549793  0  0.209197  0.680379  0  4.174403  0
C  C81  1  0.57739964  0.06572336  0.70458929  1  1.551654  0  0.2111  0.683102  0  4.170299  0
C  C82  1  0.43447289  0.29626609  0.07708602  1  1.550196  0  0.209123  0.680295  0  4.17471  0
C  C83  1  0.42260720  0.56572286  0.79542514  1  1.551521  0  0.211112  0.683053  0  4.170268  0
C  C84  1  0.56551034  0.79626559  0.42291849  1  1.550205  0  0.209125  0.680252  0  4.174053  0
C  C85  1  0.92260699  0.93427383  0.20459470  1  1.551985  0  0.210911  0.682761  0  4.170863  0
C  C86  1  0.93447994  0.20371343  0.92291217  1  1.54963  0  0.209276  0.68049  0  4.173851  0
C  C87  1  0.07738714  0.43427433  0.29540169  1  1.55163  0  0.210841  0.682692  0  4.170321  0
C  C88  1  0.60729862  0.67422467  0.04997068  1  -0.070953  0  -0.241324  -0.522879  0  3.88896  0
C  C89  1  0.89269439  0.32578432  0.54998872  1  -0.071092  0  -0.241066  -0.522488  0  3.888785  0
C  C90  1  0.10730337  0.82579200  0.95001218  1  -0.071163  0  -0.241154  -0.52264  0  3.888716  0
C  C91  1  0.39269460  0.17422971  0.45002301  1  -0.071146  0  -0.241293  -0.52286  0  3.888876  0
C  C92  1  0.04990489  0.60773915  0.67343859  1  -0.066358  0  -0.241062  -0.522225  0  3.889262  0
C  C93  1  0.67352938  0.05004946  0.60839280  1  -0.066658  0  -0.241601  -0.524381  0  3.888634  0
C  C94  1  0.45010126  0.39226440  0.17343949  1  -0.066537  0  -0.241032  -0.522125  0  3.888956  0
C  C95  1  0.32647383  0.55005532  0.89161803  1  -0.066363  0  -0.241587  -0.524271  0  3.888666  0
C  C96  1  0.54988924  0.89224664  0.32655420  1  -0.0671  0  -0.240969  -0.521997  0  3.889081  0
C  C97  1  0.82647271  0.94995863  0.10840002  1  -0.066902  0  -0.241619  -0.52429  0  3.888835  0
C  C98  1  0.95008470  0.10772693  0.82655961  1  -0.067213  0  -0.240897  -0.522084  0  3.88905  0
C  C99  1  0.17351778  0.44993551  0.39159998  1  -0.066949  0  -0.241547  -0.52425  0  3.888648  0
O  O100  1  0.76254606  0.57481979  0.16490505  1  -1.200742  0  -0.363776  -0.633595  0  2.176448  0
O  O101  1  0.73744694  0.42518194  0.66491948  1  -1.200998  0  -0.363853  -0.633719  0  2.176392  0
O  O102  1  0.26255082  0.92519416  0.83508232  1  -1.2009  0  -0.363822  -0.633711  0  2.176208  0
O  O103  1  0.23745260  0.07481574  0.33509405  1  -1.200661  0  -0.363826  -0.633718  0  2.17618  0
O  O104  1  0.16498793  0.76331080  0.57443096  1  -1.199523  0  -0.365347  -0.633939  0  2.180067  0
O  O105  1  0.57541794  0.16504194  0.76399567  1  -1.201629  0  -0.365646  -0.634099  0  2.177327  0
O  O106  1  0.33502185  0.23669547  0.07442194  1  -1.199452  0  -0.365321  -0.633856  0  2.180488  0
O  O107  1  0.42457982  0.66504417  0.73600884  1  -1.201772  0  -0.365713  -0.634157  0  2.177157  0
O  O108  1  0.66499317  0.73668407  0.42557806  1  -1.199131  0  -0.365453  -0.634058  0  2.179211  0
O  O109  1  0.92456780  0.83495979  0.26400559  1  -1.201729  0  -0.365615  -0.634055  0  2.177541  0
O  O110  1  0.83499530  0.26331312  0.92556453  1  -1.198942  0  -0.365506  -0.634176  0  2.178738  0
O  O111  1  0.07543177  0.33494030  0.23597907  1  -1.201167  0  -0.365567  -0.634063  0  2.176624  0
O  O112  1  0.72438243  0.50267480  0.98084984  1  -1.187652  0  -0.355593  -0.622113  0  2.170791  0
O  O113  1  0.77564055  0.49735781  0.48088051  1  -1.187467  0  -0.355566  -0.622097  0  2.170887  0
O  O114  1  0.22438628  0.99733824  0.01913844  1  -1.187728  0  -0.35561  -0.622232  0  2.170918  0
O  O115  1  0.27562895  0.00266803  0.51914656  1  -1.187377  0  -0.35571  -0.622186  0  2.170891  0
O  O116  1  0.98038601  0.72341749  0.50201001  1  -1.191236  0  -0.354731  -0.621379  0  2.17033  0
O  O117  1  0.50196333  0.98051973  0.72469935  1  -1.193576  0  -0.35696  -0.623528  0  2.171134  0
O  O118  1  0.51962335  0.27657061  0.00201543  1  -1.19146  0  -0.354679  -0.621342  0  2.170416  0
O  O119  1  0.49804170  0.48052931  0.77531237  1  -1.193583  0  -0.356856  -0.623376  0  2.171337  0
O  O120  1  0.48038804  0.77656739  0.49799089  1  -1.191816  0  -0.354646  -0.621248  0  2.170956  0
O  O121  1  0.99805875  0.01946020  0.22470206  1  -1.193843  0  -0.356847  -0.623275  0  2.17141  0
O  O122  1  0.01960176  0.22341435  0.99797465  1  -1.19118  0  -0.354712  -0.621305  0  2.171219  0
O  O123  1  0.00194083  0.51944244  0.27528982  1  -1.194289  0  -0.356792  -0.623156  0  2.171802  0
