# generated using pymatgen
data_Co2H13C15N5O11
_symmetry_space_group_name_H-M   'P 1'
_cell_length_a   9.40708046
_cell_length_b   12.45062213
_cell_length_c   18.69206200
_cell_angle_alpha   90.00078938
_cell_angle_beta   94.20840659
_cell_angle_gamma   89.99692044
_symmetry_Int_Tables_number   1
_chemical_formula_structural   Co2H13C15N5O11
_chemical_formula_sum   'Co8 H52 C60 N20 O44'
_cell_volume   2183.38620863
_cell_formula_units_Z   4
loop_
 _symmetry_equiv_pos_site_id
 _symmetry_equiv_pos_as_xyz
  1  'x, y, z'
loop_
 _atom_site_type_symbol
 _atom_site_label
 _atom_site_symmetry_multiplicity
 _atom_site_fract_x
 _atom_site_fract_y
 _atom_site_fract_z
 _atom_site_occupancy
 _atom_site_pbe_bader_charge
 _atom_site_pbe_bader_spin_density
 _atom_site_pbe_cm5_charge
 _atom_site_pbe_ddec_charge
 _atom_site_pbe_ddec_spin_density
 _atom_site_pbe_ddec_sum_bond_order
 _atom_site_pbe_magmom
Co  Co0  1  0.25051502  0.85514504  0.24168545  1  1.325866  2.637024  0.65766  0.998347  2.831591  2.361738  2.621
Co  Co1  1  0.24952998  0.35517664  0.25839149  1  1.326206  2.637146  0.657536  0.99859  2.832026  2.361361  2.622
Co  Co2  1  0.74949635  0.14484804  0.75832083  1  1.325911  2.637068  0.657663  0.998314  2.831688  2.361928  2.622
Co  Co3  1  0.75051579  0.64485338  0.74164056  1  1.32616  2.636972  0.657521  0.998453  2.831648  2.361636  2.621
Co  Co4  1  0.06101118  0.81781646  0.07100396  1  1.311447  2.612277  0.642603  1.038052  2.795991  2.266402  2.597
Co  Co5  1  0.43899326  0.31784069  0.42902687  1  1.311663  2.61221  0.642714  1.038064  2.796006  2.266979  2.597
Co  Co6  1  0.93899157  0.18216939  0.92899454  1  1.311722  2.612162  0.642659  1.038061  2.795874  2.266509  2.597
Co  Co7  1  0.56098817  0.68217328  0.57097090  1  1.311657  2.612246  0.64277  1.03809  2.796051  2.26727  2.597
H  H8  1  0.34039120  0.55619971  0.45398659  1  0.171953  0.00011  0.137153  0.101719  -0.000502  1.047847  0.0
H  H9  1  0.15963674  0.05622816  0.04602556  1  0.172033  0.00011  0.137085  0.101617  -0.000501  1.047674  0.0
H  H10  1  0.65964891  0.44377410  0.54601798  1  0.171735  0.000109  0.137164  0.101668  -0.000502  1.047821  0.0
H  H11  1  0.84035737  0.94377536  0.95396355  1  0.172096  0.000109  0.137082  0.101607  -0.000501  1.04766  0.0
H  H12  1  0.22817829  0.04464331  0.34671082  1  0.159509  0.000964  0.136549  0.094153  0.000114  0.994349  0.001
H  H13  1  0.27180988  0.54464757  0.15329347  1  0.159217  0.000961  0.136657  0.094331  0.000112  0.99432  0.001
H  H14  1  0.77179916  0.95534656  0.65330983  1  0.159332  0.000965  0.136572  0.094208  0.000114  0.994134  0.001
H  H15  1  0.72818532  0.45534310  0.84669782  1  0.158945  0.000964  0.136593  0.094254  0.000113  0.994118  0.001
H  H16  1  0.72121211  0.95211837  0.14189498  1  0.097057  0.000386  0.108031  0.114118  9.7e-05  1.007966  0.0
H  H17  1  0.77880937  0.45209302  0.35814505  1  0.09623  0.000386  0.107856  0.11402  9.7e-05  1.007949  0.0
H  H18  1  0.27878003  0.04789077  0.85810690  1  0.096932  0.000386  0.108029  0.114103  9.7e-05  1.007943  0.0
H  H19  1  0.22120965  0.54788882  0.64187700  1  0.096694  0.000386  0.107929  0.11405  9.7e-05  1.008024  0.0
H  H20  1  0.77225602  0.24569584  0.32029698  1  0.077227  0.00029  0.108945  0.117563  4.7e-05  0.998605  0.0
H  H21  1  0.72773410  0.74567353  0.17973746  1  0.077525  0.000291  0.108936  0.11785  4.7e-05  0.998502  0.0
H  H22  1  0.22775745  0.75432615  0.67970669  1  0.07775  0.000291  0.108981  0.11765  4.7e-05  0.998719  0.0
H  H23  1  0.27226452  0.25432919  0.82027213  1  0.077891  0.000291  0.108905  0.117702  4.7e-05  0.9985  0.0
H  H24  1  0.23644923  0.65602298  0.34146926  1  0.538594  0.000466  0.339591  0.319523  7.8e-05  0.909217  0.0
H  H25  1  0.26354288  0.15600456  0.15853936  1  0.538746  0.000465  0.339576  0.319576  7.9e-05  0.909109  0.0
H  H26  1  0.76355688  0.34397171  0.65854326  1  0.538426  0.000466  0.339483  0.319455  7.8e-05  0.909249  0.0
H  H27  1  0.73643416  0.84397969  0.84144756  1  0.538125  0.000466  0.339573  0.319533  7.8e-05  0.909129  0.0
H  H28  1  0.36511976  0.02136300  0.58275955  1  0.463532  0.000288  0.326592  0.319427  0.000163  0.91408  0.0
H  H29  1  0.13487615  0.52135418  0.91723342  1  0.463612  0.000288  0.326557  0.319417  0.000163  0.914201  0.0
H  H30  1  0.63487896  0.97861080  0.41725807  1  0.463713  0.000288  0.326706  0.319458  0.000163  0.913905  0.0
H  H31  1  0.86512105  0.47863569  0.08274723  1  0.463634  0.000288  0.326604  0.319439  0.000163  0.914083  0.0
H  H32  1  0.40676183  0.88486619  0.60137206  1  0.544309  -4.9e-05  0.302868  0.32072  -0.000174  1.010297  0.0
H  H33  1  0.09324269  0.38488775  0.89862768  1  0.544524  -5e-05  0.302906  0.320762  -0.000174  1.010211  0.0
H  H34  1  0.59325501  0.11510922  0.39864617  1  0.544745  -4.9e-05  0.302994  0.320659  -0.000173  1.010619  0.0
H  H35  1  0.90675045  0.61511497  0.10136996  1  0.54454  -5e-05  0.302854  0.320704  -0.000174  1.010276  0.0
H  H36  1  0.18459182  0.61990854  0.02781549  1  0.64877  0.001014  0.280655  0.343968  0.000779  1.019624  0.002
H  H37  1  0.31543450  0.11989851  0.47216883  1  0.648744  0.001016  0.280512  0.343798  0.000781  1.019854  0.002
H  H38  1  0.81542139  0.38006687  0.97216731  1  0.649  0.001013  0.280598  0.34398  0.000779  1.019622  0.002
H  H39  1  0.68457261  0.88007931  0.52783838  1  0.648931  0.001015  0.280564  0.343838  0.00078  1.019795  0.002
H  H40  1  0.14729482  0.70885668  0.96351629  1  0.606955  0.000995  0.315793  0.387258  0.000451  0.901748  0.001
H  H41  1  0.35271682  0.20886746  0.53648906  1  0.60689  0.000994  0.315721  0.387077  0.00045  0.90177  0.001
H  H42  1  0.85272592  0.29112194  0.03647211  1  0.607785  0.000988  0.315865  0.387306  0.00045  0.901725  0.001
H  H43  1  0.64728704  0.79113124  0.46351322  1  0.606901  0.000995  0.315873  0.387347  0.00045  0.901705  0.001
H  H44  1  0.24921668  0.90848493  0.97620363  1  0.645177  0.001838  0.33115  0.416916  0.000967  0.856425  0.001
H  H45  1  0.25074770  0.40847790  0.52378586  1  0.64482  0.001842  0.331316  0.416758  0.00097  0.856276  0.001
H  H46  1  0.75077744  0.09151940  0.02378601  1  0.644936  0.001839  0.331287  0.41703  0.000967  0.856162  0.001
H  H47  1  0.74920717  0.59152562  0.47621850  1  0.645532  0.001841  0.331264  0.416991  0.000968  0.856237  0.001
H  H48  1  0.10485284  0.96262537  0.94316277  1  0.666852  0.001389  0.290886  0.384804  0.000606  0.962824  0.002
H  H49  1  0.39512249  0.46262361  0.55681367  1  0.66703  0.001388  0.290986  0.384811  0.000606  0.962805  0.002
H  H50  1  0.89514662  0.03738457  0.05682866  1  0.66694  0.00139  0.290981  0.384901  0.000606  0.962684  0.002
H  H51  1  0.60482152  0.53737911  0.44317374  1  0.666593  0.00139  0.290878  0.384834  0.000605  0.962762  0.002
H  H52  1  0.32822241  0.76757721  0.13009468  1  0.652598  0.000195  0.289719  0.387668  -6.9e-05  0.954866  0.0
H  H53  1  0.17172737  0.26754600  0.36996862  1  0.65192  0.000195  0.289438  0.387463  -6.8e-05  0.955077  0.0
H  H54  1  0.67179847  0.23242952  0.86990550  1  0.652652  0.000195  0.28973  0.387704  -6.9e-05  0.954775  0.0
H  H55  1  0.82819560  0.73244868  0.63004001  1  0.652583  0.000193  0.289662  0.387504  -6.8e-05  0.955041  0.0
H  H56  1  0.32570866  0.89934246  0.11933430  1  0.638922  0.000173  0.286767  0.377758  -1.1e-05  0.973494  0.0
H  H57  1  0.17426703  0.39939971  0.38073053  1  0.640191  0.000172  0.286779  0.377618  -1.2e-05  0.97357  0.0
H  H58  1  0.67430576  0.10063617  0.88065978  1  0.638613  0.000172  0.286781  0.377691  -1.2e-05  0.973582  0.0
H  H59  1  0.82570183  0.60065923  0.61928447  1  0.640075  0.000171  0.286882  0.377875  -1.3e-05  0.973284  0.0
C  C60  1  0.28038420  0.79960748  0.39947468  1  0.985123  0.004576  0.229396  0.311416  0.002523  4.052721  0.003
C  C61  1  0.21959596  0.29961776  0.10055569  1  0.984843  0.004575  0.229374  0.311133  0.002524  4.051996  0.003
C  C62  1  0.71961879  0.20037838  0.60054308  1  0.984856  0.004571  0.229364  0.311287  0.00252  4.05232  0.003
C  C63  1  0.78036529  0.70039058  0.89944675  1  0.984483  0.004567  0.22914  0.311076  0.002517  4.052571  0.003
C  C64  1  0.33082489  0.64272243  0.44901285  1  1.016975  0.007097  0.165159  0.211738  0.003693  3.884855  0.005
C  C65  1  0.16918826  0.14274097  0.05098460  1  1.016783  0.00708  0.165097  0.211809  0.003683  3.885269  0.005
C  C66  1  0.66922046  0.35727145  0.55098441  1  1.017484  0.007099  0.165089  0.211765  0.003693  3.884828  0.005
C  C67  1  0.83079829  0.85726737  0.94899623  1  1.015853  0.00707  0.165133  0.211822  0.003678  3.884646  0.005
C  C68  1  0.33630953  0.81339434  0.47039216  1  0.488427  0.003687  0.07779  -0.051591  0.00174  4.024429  0.003
C  C69  1  0.16368106  0.31341907  0.02961302  1  0.488959  0.003686  0.077692  -0.051611  0.001739  4.023638  0.003
C  C70  1  0.66371992  0.18660035  0.52961206  1  0.489138  0.003689  0.077832  -0.051589  0.001742  4.023991  0.003
C  C71  1  0.83626502  0.68660131  0.97036965  1  0.488926  0.00368  0.077799  -0.05176  0.001737  4.02454  0.003
C  C72  1  0.33506052  0.91965520  0.49761804  1  1.032264  0.000215  0.248919  0.415186  -0.000104  4.126621  0.0
C  C73  1  0.16495571  0.41965362  0.00239377  1  1.032217  0.000218  0.24895  0.4155  -0.000101  4.126176  0.0
C  C74  1  0.66495315  0.08032985  0.50240223  1  1.032605  0.000209  0.248859  0.414962  -0.000109  4.126421  0.0
C  C75  1  0.83502460  0.58034669  0.99759968  1  1.032839  0.000215  0.248885  0.415093  -0.000104  4.126587  0.0
C  C76  1  0.25478312  0.97678209  0.38182786  1  1.124291  0.001967  0.186413  0.275481  0.000726  3.959012  0.001
C  C77  1  0.24519193  0.47678367  0.11819377  1  1.132335  0.001951  0.186441  0.275452  0.00072  3.958914  0.001
C  C78  1  0.74519110  0.02320055  0.61819000  1  1.133149  0.001957  0.186604  0.275666  0.000722  3.958948  0.001
C  C79  1  0.75478424  0.52321825  0.88180918  1  1.132758  0.001959  0.18648  0.275482  0.000725  3.959357  0.001
C  C80  1  0.99236780  0.99029128  0.18017295  1  1.560901  -0.004324  0.223367  0.601528  -0.00648  4.137822  -0.003
C  C81  1  0.50763270  0.49034842  0.31985227  1  1.561464  -0.00436  0.223768  0.601565  -0.006522  4.136504  -0.003
C  C82  1  0.00764784  0.00971224  0.81983401  1  1.561054  -0.004337  0.223469  0.601555  -0.006496  4.137851  -0.003
C  C83  1  0.49237394  0.50967357  0.68011640  1  1.561125  -0.004309  0.223822  0.601984  -0.006463  4.137488  -0.003
C  C84  1  0.86928409  0.05387897  0.20385006  1  -0.05313  0.009808  -0.014626  -0.056847  0.004952  3.95302  0.008
C  C85  1  0.63073159  0.55394732  0.29621348  1  -0.054596  0.009827  -0.015047  -0.057286  0.00496  3.953831  0.008
C  C86  1  0.13069415  0.94611411  0.79614760  1  -0.05212  0.009818  -0.014746  -0.057063  0.004956  3.95366  0.008
C  C87  1  0.36930210  0.44606022  0.70378820  1  -0.053194  0.009823  -0.014934  -0.057283  0.00496  3.953439  0.008
C  C88  1  0.73240408  0.01880774  0.17975003  1  0.015004  0.00223  -0.086379  -0.137633  0.001026  3.973754  0.001
C  C89  1  0.76761813  0.51881080  0.32029738  1  0.015136  0.002229  -0.085916  -0.137135  0.001024  3.972765  0.001
C  C90  1  0.26757191  0.98120782  0.82023847  1  0.015174  0.002226  -0.086407  -0.137529  0.001023  3.973748  0.001
C  C91  1  0.23242522  0.48117745  0.67971052  1  0.0138  0.002231  -0.086179  -0.137378  0.001026  3.973655  0.001
C  C92  1  0.61012109  0.06214247  0.20647763  1  -0.022676  0.007776  -0.011088  -0.03413  0.004042  3.952173  0.005
C  C93  1  0.88993315  0.56212717  0.29356268  1  -0.023982  0.007793  -0.010839  -0.034071  0.004051  3.951752  0.005
C  C94  1  0.38986446  0.93789237  0.79350797  1  -0.022613  0.007784  -0.010981  -0.034097  0.004047  3.952644  0.005
C  C95  1  0.11012064  0.43785708  0.70642738  1  -0.023916  0.007792  -0.010832  -0.034014  0.00405  3.951852  0.005
C  C96  1  0.47063612  0.00678723  0.18731024  1  1.590592  0.000988  0.210086  0.587549  -2.8e-05  4.198523  0.0
C  C97  1  0.02942695  0.50675803  0.31276365  1  1.590885  0.000989  0.209885  0.586959  -3.1e-05  4.198892  0.0
C  C98  1  0.52935924  0.99323236  0.81269443  1  1.591056  0.000993  0.209996  0.587314  -2.4e-05  4.199002  0.0
C  C99  1  0.97060904  0.49320934  0.68725148  1  1.591042  0.000992  0.210025  0.587477  -2.7e-05  4.197836  0.0
C  C100  1  0.76141424  0.18139847  0.28067152  1  0.000329  0.00314  -0.080912  -0.126079  0.001531  3.945213  0.002
C  C101  1  0.73858921  0.68142552  0.21938687  1  -0.000797  0.003156  -0.080936  -0.126791  0.001539  3.945267  0.002
C  C102  1  0.23855662  0.81861148  0.71933338  1  -0.000424  0.003153  -0.080946  -0.126285  0.001538  3.945365  0.002
C  C103  1  0.26144026  0.31858523  0.78061842  1  -0.001532  0.003157  -0.080939  -0.126655  0.001539  3.945049  0.002
C  C104  1  0.88426234  0.13689111  0.25511275  1  -0.009426  0.005349  -0.001672  -0.016008  0.002419  3.912012  0.004
C  C105  1  0.61574647  0.63694134  0.24495398  1  -0.007743  0.005342  -0.001723  -0.015494  0.002414  3.912934  0.004
C  C106  1  0.11570314  0.86311081  0.74488769  1  -0.010514  0.005344  -0.001651  -0.01582  0.002414  3.912443  0.004
C  C107  1  0.38428931  0.36306378  0.75504456  1  -0.008485  0.005341  -0.001715  -0.015551  0.002415  3.912653  0.004
C  C108  1  0.02335524  0.18768062  0.28299432  1  1.628657  0.000461  0.21464  0.593348  -0.000545  4.193201  0.0
C  C109  1  0.47664560  0.68766423  0.21703843  1  1.628857  0.000463  0.214198  0.592692  -0.000541  4.193934  0.0
C  C110  1  0.97662801  0.81236788  0.71697784  1  1.62952  0.000469  0.214144  0.592941  -0.000541  4.193723  0.0
C  C111  1  0.52335519  0.31232965  0.78297445  1  1.629575  0.000466  0.214581  0.593223  -0.000541  4.19334  0.0
C  C112  1  0.62493847  0.14560037  0.25704206  1  -0.070666  0.007967  -0.01058  -0.04625  0.003978  3.94638  0.007
C  C113  1  0.87506318  0.64560551  0.24301114  1  -0.069413  0.007969  -0.010626  -0.045938  0.00398  3.945611  0.007
C  C114  1  0.37502694  0.85442885  0.74295250  1  -0.070324  0.00797  -0.010489  -0.046053  0.00398  3.946189  0.007
C  C115  1  0.12496729  0.35439239  0.75698883  1  -0.068571  0.007977  -0.010593  -0.04591  0.003985  3.946102  0.007
C  C116  1  0.50088782  0.20180440  0.28642444  1  1.59747  -0.005344  0.227258  0.617027  -0.007454  4.139369  -0.003
C  C117  1  0.99916568  0.70182478  0.21366205  1  1.598205  -0.005342  0.226687  0.616097  -0.007443  4.140706  -0.003
C  C118  1  0.49914410  0.79820474  0.71360768  1  1.597271  -0.00534  0.226866  0.616327  -0.007439  4.140093  -0.003
C  C119  1  0.00086915  0.29818035  0.78634610  1  1.597609  -0.005349  0.226717  0.616075  -0.007451  4.140323  -0.003
N  N120  1  0.24470365  0.87890255  0.35238283  1  -1.263353  0.056199  -0.339787  -0.377668  0.029639  3.519896  0.044
N  N121  1  0.25527846  0.37889307  0.14765367  1  -1.271105  0.056118  -0.339654  -0.377512  0.029591  3.519005  0.044
N  N122  1  0.75527809  0.12108331  0.64764010  1  -1.27194  0.056215  -0.340001  -0.377697  0.029646  3.519633  0.044
N  N123  1  0.74469882  0.62109037  0.85235359  1  -1.271928  0.056161  -0.33974  -0.377664  0.02961  3.519355  0.044
N  N124  1  0.27476429  0.69113016  0.38825173  1  -1.27922  0.006405  -0.363347  -0.263101  0.0027  3.586683  0.005
N  N125  1  0.22521899  0.19113723  0.11175959  1  -1.279461  0.006399  -0.363207  -0.262919  0.002699  3.586222  0.005
N  N126  1  0.72524712  0.30885087  0.61175830  1  -1.279484  0.006403  -0.363258  -0.263056  0.0027  3.586272  0.005
N  N127  1  0.77474530  0.80886307  0.88823065  1  -1.278808  0.006387  -0.363282  -0.262875  0.002692  3.586356  0.005
N  N128  1  0.37241510  0.71320293  0.50009433  1  -1.182642  0.043893  -0.34477  -0.36884  0.023351  3.445157  0.034
N  N129  1  0.12761647  0.21321234  0.99991013  1  -1.182893  0.043847  -0.344541  -0.368868  0.023325  3.444999  0.034
N  N130  1  0.62763987  0.28680059  0.49990486  1  -1.182646  0.043841  -0.344578  -0.368629  0.023322  3.444968  0.034
N  N131  1  0.87237335  0.78678475  0.00007670  1  -1.181229  0.04383  -0.344352  -0.368512  0.023318  3.444722  0.034
N  N132  1  0.37023260  0.94439933  0.56598546  1  -1.294046  0.002955  -0.555576  -0.582528  0.001352  3.347203  0.002
N  N133  1  0.12977738  0.44439203  0.93401874  1  -1.294053  0.002952  -0.55568  -0.582769  0.001351  3.346658  0.002
N  N134  1  0.62974588  0.05557447  0.43403254  1  -1.293944  0.002954  -0.555871  -0.58246  0.001352  3.346914  0.002
N  N135  1  0.87020291  0.55560346  0.06597258  1  -1.293989  0.002951  -0.555475  -0.582395  0.001351  3.346681  0.002
N  N136  1  0.29312477  0.99902750  0.45052784  1  -1.246768  0.008713  -0.324992  -0.389117  0.004141  3.368416  0.007
N  N137  1  0.20687640  0.49901395  0.04949274  1  -1.247151  0.008686  -0.325134  -0.389342  0.004128  3.368632  0.007
N  N138  1  0.70685801  0.00095193  0.54949299  1  -1.248056  0.008715  -0.32501  -0.389129  0.004142  3.368747  0.007
N  N139  1  0.79311465  0.50098074  0.95050750  1  -1.247438  0.008699  -0.325164  -0.389304  0.004134  3.369002  0.007
O  O140  1  0.09315925  0.97024754  0.22614923  1  -1.155063  0.061586  -0.288426  -0.528274  0.031445  2.370948  0.053
O  O141  1  0.40682887  0.47030923  0.27385834  1  -1.154515  0.061562  -0.288707  -0.528582  0.031447  2.36975  0.053
O  O142  1  0.90684987  0.02976240  0.77384787  1  -1.15475  0.061635  -0.288451  -0.528349  0.031473  2.370766  0.053
O  O143  1  0.59315816  0.52974489  0.72607436  1  -1.153896  0.061512  -0.288562  -0.528596  0.031415  2.371047  0.053
O  O144  1  0.98167631  0.95540662  0.11447966  1  -1.180424  0.059519  -0.315184  -0.604838  0.030379  2.413786  0.05
O  O145  1  0.51831592  0.45541970  0.38553961  1  -1.180993  0.059494  -0.315369  -0.604892  0.030361  2.413773  0.05
O  O146  1  0.01833182  0.04458325  0.88552330  1  -1.180772  0.059503  -0.315184  -0.60468  0.030366  2.414229  0.05
O  O147  1  0.48163642  0.54456534  0.61443150  1  -1.181624  0.059513  -0.315478  -0.604987  0.030363  2.414159  0.05
O  O148  1  0.40285133  0.97651258  0.24057005  1  -1.158606  0.06695  -0.321077  -0.57834  0.034274  2.315543  0.057
O  O149  1  0.09725760  0.47649417  0.25950801  1  -1.158048  0.06705  -0.320956  -0.578128  0.034304  2.316265  0.058
O  O150  1  0.59714497  0.02348050  0.75942395  1  -1.158981  0.066959  -0.320991  -0.578168  0.034278  2.315293  0.057
O  O151  1  0.90280508  0.52347321  0.74051231  1  -1.15834  0.066959  -0.320878  -0.578323  0.034269  2.315955  0.057
O  O152  1  0.43449765  0.98936870  0.12149811  1  -1.172452  0.005767  -0.330027  -0.547884  0.00244  2.126007  0.005
O  O153  1  0.06552182  0.48938375  0.37856954  1  -1.172042  0.005768  -0.32969  -0.547059  0.002441  2.125999  0.005
O  O154  1  0.56552746  0.01060911  0.87849900  1  -1.172221  0.005764  -0.329933  -0.547642  0.002439  2.126383  0.005
O  O155  1  0.93447574  0.51061174  0.62144001  1  -1.17197  0.005765  -0.330008  -0.547803  0.002439  2.125129  0.005
O  O156  1  0.09046770  0.23962800  0.23705487  1  -1.159502  0.069354  -0.322936  -0.58799  0.035538  2.339145  0.059
O  O157  1  0.40944823  0.73959841  0.26295460  1  -1.159681  0.069514  -0.322792  -0.587684  0.035615  2.339752  0.06
O  O158  1  0.90943527  0.76042372  0.76288621  1  -1.160651  0.069491  -0.32271  -0.587614  0.035607  2.339517  0.06
O  O159  1  0.59054615  0.26039226  0.73705699  1  -1.160032  0.069509  -0.322901  -0.587836  0.035616  2.339569  0.06
O  O160  1  0.05696747  0.18206645  0.34969630  1  -1.170574  0.005672  -0.314998  -0.527973  0.002371  2.129996  0.005
O  O161  1  0.44308174  0.68206852  0.15033964  1  -1.170539  0.005691  -0.314703  -0.527699  0.002379  2.129745  0.005
O  O162  1  0.94307225  0.81796438  0.65027616  1  -1.170783  0.00569  -0.314811  -0.528033  0.002379  2.129828  0.005
O  O163  1  0.55694243  0.31793500  0.84966815  1  -1.171078  0.005689  -0.31494  -0.527997  0.002379  2.129581  0.005
O  O164  1  0.39751047  0.23115238  0.24412173  1  -1.16412  0.05716  -0.295689  -0.556075  0.029022  2.363287  0.051
O  O165  1  0.10245621  0.73120258  0.25598194  1  -1.164545  0.057138  -0.295086  -0.555171  0.028994  2.364961  0.051
O  O166  1  0.60247140  0.76883026  0.75591191  1  -1.164529  0.057122  -0.295248  -0.555428  0.028991  2.364711  0.05
O  O167  1  0.89756564  0.26879933  0.74400971  1  -1.163905  0.057171  -0.295246  -0.555398  0.029005  2.364215  0.051
O  O168  1  0.51541527  0.22040789  0.35420029  1  -1.186931  0.058854  -0.311947  -0.59071  0.029791  2.449298  0.052
O  O169  1  0.98473253  0.72038248  0.14586334  1  -1.187529  0.058883  -0.311882  -0.590748  0.029788  2.448851  0.052
O  O170  1  0.48467824  0.77961410  0.64581466  1  -1.186595  0.058879  -0.311933  -0.590706  0.0298  2.449115  0.052
O  O171  1  0.01529583  0.27961622  0.85413816  1  -1.187705  0.058853  -0.3119  -0.590716  0.029777  2.448923  0.052
O  O172  1  0.16405176  0.70019477  0.01506363  1  -1.255949  0.060407  -0.573212  -0.764437  0.030977  2.227159  0.047
O  O173  1  0.33598612  0.20019220  0.48493303  1  -1.256028  0.060467  -0.573038  -0.764123  0.031004  2.227285  0.047
O  O174  1  0.83594874  0.29979510  0.98492516  1  -1.257121  0.060426  -0.573219  -0.764422  0.030983  2.227365  0.047
O  O175  1  0.66402725  0.79979445  0.51506262  1  -1.256161  0.060484  -0.57322  -0.764398  0.031012  2.227407  0.047
O  O176  1  0.14764763  0.91406187  0.98205502  1  -1.298917  0.031148  -0.568063  -0.782082  0.016154  2.131618  0.024
O  O177  1  0.35230031  0.41405863  0.51792862  1  -1.298858  0.031176  -0.568442  -0.781975  0.016176  2.132097  0.024
O  O178  1  0.85234222  0.08593201  0.01793394  1  -1.298714  0.031148  -0.568271  -0.782222  0.016158  2.131585  0.024
O  O179  1  0.64762860  0.58597139  0.48204277  1  -1.299077  0.031168  -0.568226  -0.782226  0.016175  2.131996  0.024
O  O180  1  0.26165154  0.83387002  0.12890001  1  -1.264143  0.10234  -0.562833  -0.817022  0.054107  2.386523  0.087
O  O181  1  0.23833600  0.33387790  0.37114697  1  -1.265392  0.102491  -0.562708  -0.817106  0.054174  2.3863  0.087
O  O182  1  0.73835979  0.16612467  0.87110305  1  -1.264115  0.102347  -0.562913  -0.817126  0.054108  2.386581  0.087
O  O183  1  0.76166052  0.66614811  0.62886522  1  -1.26555  0.102376  -0.562948  -0.816984  0.054108  2.386561  0.087
