# generated using pymatgen
data_TbH19C30N5O7
_symmetry_space_group_name_H-M   'P 1'
_cell_length_a   10.45693265
_cell_length_b   11.17038525
_cell_length_c   13.49700000
_cell_angle_alpha   110.16367610
_cell_angle_beta   101.31047327
_cell_angle_gamma   107.79322154
_symmetry_Int_Tables_number   1
_chemical_formula_structural   TbH19C30N5O7
_chemical_formula_sum   'Tb2 H38 C60 N10 O14'
_cell_volume   1326.57323584
_cell_formula_units_Z   2
loop_
 _symmetry_equiv_pos_site_id
 _symmetry_equiv_pos_as_xyz
  1  'x, y, z'
loop_
 _atom_site_type_symbol
 _atom_site_label
 _atom_site_symmetry_multiplicity
 _atom_site_fract_x
 _atom_site_fract_y
 _atom_site_fract_z
 _atom_site_occupancy
 _atom_site_hle17_bader_spin_density
 _atom_site_hle17_ddec_charge
 _atom_site_hle17_ddec_spin_density
 _atom_site_hle17_ddec_sum_bond_order
 _atom_site_hle17_magmom
 _atom_site_hse06_10hf_bader_spin_density
 _atom_site_hse06_10hf_ddec_charge
 _atom_site_hse06_10hf_ddec_spin_density
 _atom_site_hse06_10hf_ddec_sum_bond_order
 _atom_site_hse06_10hf_magmom
 _atom_site_hse06_bader_spin_density
 _atom_site_hse06_ddec_charge
 _atom_site_hse06_ddec_spin_density
 _atom_site_hse06_ddec_sum_bond_order
 _atom_site_hse06_magmom
 _atom_site_pbe_bader_charge
 _atom_site_pbe_bader_spin_density
 _atom_site_pbe_cm5_charge
 _atom_site_pbe_ddec_charge
 _atom_site_pbe_ddec_spin_density
 _atom_site_pbe_ddec_sum_bond_order
 _atom_site_pbe_magmom
Tb  Tb0  1  0.49941907  0.41578633  0.62345078  1  0  2.214359  0  1.715681  0  0  2.047377  0  2.210739  0  0  2.099519  0  2.164124  0  2.170094  0  1.513221  2.007923  0  2.246839  0
Tb  Tb1  1  0.50058154  0.58421346  0.37654978  1  0  2.214372  0  1.715749  0  0  2.047379  0  2.210807  0  0  2.099518  0  2.164202  0  2.170087  0  1.513198  2.007926  0  2.246906  0
H  H2  1  0.36533993  0.14580298  0.63092645  1  0  0.418336  0  0.891378  0  0  0.386174  0  0.95784  0  0  0.398248  0  0.940405  0  0.63988  0  0.287961  0.377736  0  0.969936  0
H  H3  1  0.63465917  0.85419785  0.36907417  1  0  0.418324  0  0.891392  0  0  0.386166  0  0.957849  0  0  0.39824  0  0.940415  0  0.639872  0  0.287949  0.377727  0  0.969945  0
H  H4  1  0.26011255  0.14977468  0.53195447  1  0  0.419807  0  0.850452  0  0  0.396726  0  0.916089  0  0  0.404466  0  0.907622  0  0.613973  0  0.308836  0.39121  0  0.922064  0
H  H5  1  0.73988807  0.85022511  0.46804386  1  0  0.419838  0  0.850419  0  0  0.396762  0  0.916056  0  0  0.404504  0  0.907579  0  0.613989  0  0.308858  0.391246  0  0.922032  0
H  H6  1  0.03991578  0.04958827  0.61533082  1  0  0.067668  0  0.95108  0  0  0.074782  0  1.019954  0  0  0.07761  0  1.017536  0  0.080844  0  0.106062  0.072741  0  1.021814  0
H  H7  1  0.96008331  0.95041256  0.38466906  1  0  0.067724  0  0.951095  0  0  0.074856  0  1.019936  0  0  0.077683  0  1.017516  0  0.080817  0  0.106092  0.072814  0  1.021796  0
H  H8  1  0.96946279  0.19183999  0.52472073  1  0  0.101257  0  0.962133  0  0  0.111179  0  1.023433  0  0  0.113474  0  1.024516  0  0.077667  0  0.103971  0.109206  0  1.023549  0
H  H9  1  0.03053447  0.80815875  0.47527827  1  0  0.101288  0  0.962173  0  0  0.111217  0  1.023464  0  0  0.113513  0  1.024548  0  0.077657  0  0.103999  0.109246  0  1.023574  0
H  H10  1  0.76138786  0.25235954  0.55385861  1  0  0.120511  0  0.936885  0  0  0.127302  0  1.00031  0  0  0.130903  0  0.997585  0  0.129096  0  0.117945  0.124644  0  1.002316  0
H  H11  1  0.23861081  0.74764025  0.44614165  1  0  0.120479  0  0.93689  0  0  0.127253  0  1.000333  0  0  0.130853  0  0.99761  0  0.129081  0  0.117945  0.124597  0  1.002338  0
H  H12  1  0.50656271  0.74204837  0.81359613  1  0  0.096382  0  0.991163  0  0  0.104276  0  1.055779  0  0  0.106908  0  1.054541  0  0.11506  0  0.110913  0.102476  0  1.056521  0
H  H13  1  0.49343877  0.25795351  0.18640514  1  0  0.096382  0  0.991148  0  0  0.104277  0  1.05576  0  0  0.10691  0  1.054518  0  0.115048  0  0.110909  0.102475  0  1.0565  0
H  H14  1  0.58382063  0.93547098  0.00779065  1  0  0.095685  0  0.972403  0  0  0.104127  0  1.036092  0  0  0.106549  0  1.037319  0  0.075841  0  0.100316  0.102347  0  1.035539  0
H  H15  1  0.41617998  0.06452880  0.99220916  1  0  0.095677  0  0.972405  0  0  0.10412  0  1.036095  0  0  0.106541  0  1.037322  0  0.075838  0  0.100315  0.102339  0  1.03554  0
H  H16  1  0.73145248  0.17817536  0.04071218  1  0  0.056708  0  0.954564  0  0  0.064661  0  1.021489  0  0  0.066794  0  1.020361  0  0.074657  0  0.103533  0.063102  0  1.022397  0
H  H17  1  0.26854955  0.82182547  0.95928888  1  0  0.056731  0  0.954575  0  0  0.06468  0  1.021502  0  0  0.066815  0  1.020372  0  0.074406  0  0.103531  0.06312  0  1.022412  0
H  H18  1  0.06920453  0.18526536  0.29250409  1  0  0.106726  0  0.940836  0  0  0.112251  0  1.007292  0  0  0.116427  0  1.004001  0  0.12141  0  0.106438  0.108837  0  1.010377  0
H  H19  1  0.93079749  0.81473547  0.70749624  1  0  0.106703  0  0.94086  0  0  0.112224  0  1.007321  0  0  0.116402  0  1.004029  0  0.121419  0  0.106422  0.10881  0  1.010405  0
H  H20  1  0.80279739  0.05830367  0.21374153  1  0  0.098717  0  0.958517  0  0  0.110464  0  1.015295  0  0  0.113739  0  1.014535  0  0.063575  0  0.103613  0.108147  0  1.015861  0
H  H21  1  0.19720366  0.94169716  0.78625864  1  0  0.098727  0  0.958495  0  0  0.110479  0  1.015269  0  0  0.113753  0  1.014509  0  0.063575  0  0.10362  0.108161  0  1.015837  0
H  H22  1  0.65613717  0.17685772  0.29750588  1  0  0.074035  0  0.959494  0  0  0.082761  0  1.022104  0  0  0.085312  0  1.02027  0  0.076631  0  0.10913  0.08077  0  1.023825  0
H  H23  1  0.34386387  0.82314311  0.70249503  1  0  0.074046  0  0.959517  0  0  0.082779  0  1.022103  0  0  0.085329  0  1.02027  0  0.076612  0  0.109133  0.080788  0  1.023825  0
H  H24  1  0.18705169  0.39209492  0.66831572  1  0  0.0858  0  0.952275  0  0  0.090517  0  1.021693  0  0  0.093417  0  1.018717  0  0.12685  0  0.121478  0.088306  0  1.024023  0
H  H25  1  0.81294275  0.60790174  0.33168597  1  0  0.085836  0  0.952232  0  0  0.090557  0  1.021652  0  0  0.093457  0  1.018677  0  0.126821  0  0.121467  0.088344  0  1.023983  0
H  H26  1  0.07494465  0.46094387  0.81469741  1  0  0.108133  0  0.936594  0  0  0.122948  0  0.985437  0  0  0.125477  0  0.986296  0  0.093952  0  0.111282  0.121236  0  0.984755  0
H  H27  1  0.92505347  0.53905697  0.18530603  1  0  0.108149  0  0.936591  0  0  0.122963  0  0.985433  0  0  0.125492  0  0.986292  0  0.093987  0  0.111287  0.121254  0  0.984747  0
H  H28  1  0.23515405  0.61637301  0.01597276  1  0  0.10794  0  0.931653  0  0  0.11645  0  0.994605  0  0  0.12008  0  0.991555  0  0.110297  0  0.112155  0.113829  0  0.996809  0
H  H29  1  0.76484689  0.38362990  0.98402948  1  0  0.107866  0  0.931729  0  0  0.116389  0  0.994665  0  0  0.120017  0  0.991613  0  0.110328  0  0.112113  0.11376  0  0.996888  0
H  H30  1  0.48431697  0.74863134  0.15562061  1  0  0.116963  0  0.959192  0  0  0.124309  0  1.02329  0  0  0.127541  0  1.022169  0  0.131427  0  0.110754  0.122026  0  1.024105  0
H  H31  1  0.51568798  0.25136949  0.84438089  1  0  0.116954  0  0.959225  0  0  0.124334  0  1.023279  0  0  0.127565  0  1.022159  0  0.131413  0  0.110768  0.122052  0  1.024091  0
H  H32  1  0.74302817  0.81797271  0.19623036  1  0  0.106246  0  0.943316  0  0  0.119254  0  1.001858  0  0  0.121798  0  1.001079  0  0.08656  0  0.109596  0.117439  0  1.00236  0
H  H33  1  0.25697440  0.18202708  0.80376679  1  0  0.106286  0  0.943206  0  0  0.119283  0  1.001773  0  0  0.121828  0  1.000994  0  0.086916  0  0.109588  0.117462  0  1.002274  0
H  H34  1  0.95054866  0.81561181  0.12624643  1  0  0.105504  0  0.963143  0  0  0.111599  0  1.030128  0  0  0.114538  0  1.028309  0  0.092  0  0.106293  0.109416  0  1.031489  0
H  H35  1  0.04945044  0.18438902  0.87375048  1  0  0.105504  0  0.963128  0  0  0.111598  0  1.030122  0  0  0.114537  0  1.028305  0  0.091944  0  0.106285  0.109416  0  1.031483  0
H  H36  1  0.03271161  0.72251123  0.96673430  1  0  0.101103  0  0.989838  0  0  0.106936  0  1.057025  0  0  0.109972  0  1.056388  0  0.075925  0  0.10252  0.105009  0  1.05705  0
H  H37  1  0.96728706  0.27748856  0.03326225  1  0  0.101119  0  0.989759  0  0  0.10692  0  1.056996  0  0  0.109956  0  1.056355  0  0.075937  0  0.102491  0.104983  0  1.05703  0
H  H38  1  0.84943528  0.56574879  0.77262787  1  0  0.085023  0  0.949482  0  0  0.090255  0  1.01639  0  0  0.093452  0  1.013203  0  0.1192  0  0.120547  0.087934  0  1.018626  0
H  H39  1  0.15056111  0.43424787  0.22736892  1  0  0.085033  0  0.949446  0  0  0.09027  0  1.016347  0  0  0.093466  0  1.013164  0  0.119233  0  0.120541  0.08795  0  1.018581  0
C  C40  1  0.76769393  0.05829532  0.69920906  1  0  0.180032  0  3.744565  0  0  0.168776  0  3.999275  0  0  0.177084  0  4.014908  0  0.505954  0  0.129336  0.163458  0  3.988346  0
C  C41  1  0.23230571  0.94170447  0.30079135  1  0  0.18  0  3.744625  0  0  0.168741  0  3.999313  0  0  0.177048  0  4.014949  0  0.505977  0  0.129309  0.163427  0  3.988382  0
C  C42  1  0.94860170  0.07526708  0.62393215  1  0  0.100419  0  3.767923  0  0  0.076867  0  4.028839  0  0  0.083102  0  4.04514  0  0.453945  0  0.033417  0.072899  0  4.017787  0
C  C43  1  0.05139837  0.92473375  0.37606862  1  0  0.100369  0  3.76801  0  0  0.07681  0  4.028923  0  0  0.083046  0  4.045223  0  0.453965  0  0.033406  0.07284  0  4.017872  0
C  C44  1  0.90992579  0.15538846  0.57394292  1  0  -0.137216  0  3.763574  0  0  -0.148759  0  4.014845  0  0  -0.156107  0  4.037102  0  -0.034642  0  -0.091333  -0.144278  0  4.000399  0
C  C45  1  0.09007526  0.84461237  0.42605873  1  0  -0.137249  0  3.763685  0  0  -0.148799  0  4.01496  0  0  -0.156148  0  4.037213  0  -0.034654  0  -0.091337  -0.144316  0  4.000512  0
C  C46  1  0.79482435  0.18812911  0.58924623  1  0  -0.001554  0  3.665177  0  0  -0.029058  0  3.910388  0  0  -0.023849  0  3.926186  0  -0.03786  0  -0.057484  -0.032225  0  3.900061  0
C  C47  1  0.20517431  0.81187068  0.41075477  1  0  -0.001479  0  3.665169  0  0  -0.028972  0  3.910396  0  0  -0.023758  0  3.926189  0  -0.037878  0  -0.057496  -0.032138  0  3.900068  0
C  C48  1  0.72061872  0.13762278  0.65198765  1  0  -0.111706  0  3.667747  0  0  -0.094798  0  3.901456  0  0  -0.104323  0  3.919824  0  0.04618  0  -0.001081  -0.089149  0  3.88991  0
C  C49  1  0.27938092  0.86237701  0.34801350  1  0  -0.111648  0  3.667764  0  0  -0.094757  0  3.901468  0  0  -0.104278  0  3.91984  0  0.046194  0  -0.001046  -0.089114  0  3.889932  0
C  C50  1  0.59551287  0.17164455  0.66721576  1  0  0.698565  0  3.877016  0  0  0.646913  0  4.175777  0  0  0.682236  0  4.164905  0  1.602213  0  0.221553  0.622629  0  4.182914  0
C  C51  1  0.40448720  0.82835628  0.33278574  1  0  0.698566  0  3.877032  0  0  0.646959  0  4.17573  0  0  0.682267  0  4.164888  0  1.602165  0  0.221573  0.622674  0  4.182868  0
C  C52  1  0.70476506  0.01572090  0.77836070  1  0  0.203217  0  3.713288  0  0  0.193302  0  3.963391  0  0  0.202262  0  3.979406  0  0.556472  0  0.138635  0.187595  0  3.952468  0
C  C53  1  0.29523697  0.98427993  0.22163963  1  0  0.203191  0  3.713149  0  0  0.193315  0  3.9632  0  0  0.202277  0  3.97921  0  0.55652  0  0.138625  0.187606  0  3.952277  0
C  C54  1  0.62025373  0.87658414  0.75161873  1  0  -0.126927  0  3.66503  0  0  -0.109345  0  3.897577  0  0  -0.120443  0  3.91658  0  -0.017897  0  -0.003353  -0.103007  0  3.886145  0
C  C55  1  0.37974927  0.12341669  0.24838174  1  0  -0.126888  0  3.664981  0  0  -0.109292  0  3.897472  0  0  -0.120393  0  3.916475  0  -0.0179  0  -0.003328  -0.102954  0  3.886038  0
C  C56  1  0.57525700  0.84867691  0.83509445  1  0  -0.013636  0  3.727126  0  0  -0.042571  0  3.975117  0  0  -0.037549  0  3.992443  0  -0.038563  0  -0.067122  -0.045429  0  3.963476  0
C  C57  1  0.42474556  0.15132287  0.16490566  1  0  -0.01364  0  3.7271  0  0  -0.042579  0  3.975083  0  0  -0.037555  0  3.992409  0  -0.038591  0  -0.067129  -0.045434  0  3.963439  0
C  C58  1  0.61609005  0.95561009  0.94115994  1  0  -0.138161  0  3.776011  0  0  -0.147892  0  4.023658  0  0  -0.15533  0  4.04514  0  0.039361  0  -0.094342  -0.143296  0  4.009234  0
C  C59  1  0.38391197  0.04439074  0.05884112  1  0  -0.138114  0  3.776057  0  0  -0.147847  0  4.023702  0  0  -0.155283  0  4.045184  0  0.039314  0  -0.094313  -0.143249  0  4.009275  0
C  C60  1  0.69850448  0.09015963  0.95904190  1  0  0.120549  0  3.767111  0  0  0.096968  0  4.023629  0  0  0.103934  0  4.039947  0  0.418392  0  0.040091  0.092733  0  4.012371  0
C  C61  1  0.30149754  0.90984120  0.04095842  1  0  0.120471  0  3.767191  0  0  0.09689  0  4.02372  0  0  0.103853  0  4.040038  0  0.41881  0  0.040049  0.092653  0  4.012464  0
C  C62  1  0.57307034  0.75645580  0.63882647  1  0  0.732657  0  3.846333  0  0  0.684227  0  4.136654  0  0  0.720392  0  4.125125  0  1.595633  0  0.234306  0.659601  0  4.144053  0
C  C63  1  0.42693125  0.24354399  0.36117349  1  0  0.732614  0  3.846337  0  0  0.684172  0  4.136666  0  0  0.720334  0  4.125137  0  1.595593  0  0.234314  0.659545  0  4.144064  0
C  C64  1  0.97234105  0.42965752  0.45266112  1  0  0.147439  0  3.749827  0  0  0.138821  0  3.997965  0  0  0.144438  0  4.017781  0  0.521783  0  0.118761  0.135109  0  3.984473  0
C  C65  1  0.02766098  0.57034331  0.54733920  1  0  0.147479  0  3.7499  0  0  0.138896  0  3.997974  0  0  0.144513  0  4.017789  0  0.546593  0  0.118771  0.135184  0  3.984482  0
C  C66  1  0.06370390  0.37075294  0.41134848  1  0  -0.112774  0  3.669778  0  0  -0.094239  0  3.90558  0  0  -0.101975  0  3.924064  0  0.02759  0  -0.000994  -0.089563  0  3.89336  0
C  C67  1  0.93629769  0.62924685  0.58865371  1  0  -0.112909  0  3.669976  0  0  -0.094309  0  3.905695  0  0  -0.102044  0  3.924173  0  0.027626  0  -0.00101  -0.089632  0  3.89348  0
C  C68  1  0.00157092  0.23578630  0.32367557  1  0  -0.043778  0  3.727205  0  0  -0.068715  0  3.975849  0  0  -0.066727  0  3.993724  0  -0.070053  0  -0.072983  -0.069643  0  3.963961  0
C  C69  1  0.99842926  0.76421244  0.67632462  1  0  -0.043689  0  3.72728  0  0  -0.068638  0  3.97589  0  0  -0.066653  0  3.993766  0  -0.070086  0  -0.072927  -0.069565  0  3.964001  0
C  C70  1  0.85381051  0.16431356  0.28046368  1  0  -0.127496  0  3.768758  0  0  -0.137578  0  4.016789  0  0  -0.142908  0  4.036626  0  -0.023722  0  -0.089855  -0.134061  0  4.003061  0
C  C71  1  0.14618957  0.83568727  0.71953635  1  0  -0.12751  0  3.768666  0  0  -0.1376  0  4.0167  0  0  -0.142934  0  4.036542  0  -0.023712  0  -0.089852  -0.134083  0  4.002973  0
C  C72  1  0.77200753  0.23081099  0.32667905  1  0  0.118841  0  3.740015  0  0  0.091557  0  4.000726  0  0  0.098264  0  4.01601  0  0.506057  0  0.042139  0.087146  0  3.990396  0
C  C73  1  0.22799449  0.76918984  0.67332201  1  0  0.118831  0  3.740026  0  0  0.091551  0  4.000742  0  0  0.098261  0  4.016028  0  0.506062  0  0.042095  0.087141  0  3.990413  0
C  C74  1  0.22447670  0.43721386  0.45645403  1  0  0.748775  0  3.872497  0  0  0.691686  0  4.18262  0  0  0.7297  0  4.166509  0  1.611096  0  0.24058  0.665735  0  4.192758  0
C  C75  1  0.77552403  0.56278384  0.54354668  1  0  0.748795  0  3.872418  0  0  0.691646  0  4.182618  0  0  0.72967  0  4.166488  0  1.611085  0  0.240622  0.665689  0  4.192763  0
C  C76  1  0.25228985  0.45678751  0.75623983  1  0  0.17318  0  3.682077  0  0  0.141368  0  3.944286  0  0  0.15039  0  3.959277  0  0.50732  0  0.065657  0.135593  0  3.934085  0
C  C77  1  0.74770600  0.54321019  0.24376163  1  0  0.173175  0  3.682108  0  0  0.141338  0  3.944354  0  0  0.150357  0  3.959349  0  0.507278  0  0.065689  0.135565  0  3.934151  0
C  C78  1  0.19067826  0.49735575  0.83893815  1  0  -0.127212  0  3.730551  0  0  -0.138922  0  3.980865  0  0  -0.14675  0  4.002981  0  -0.045723  0  -0.083166  -0.134124  0  3.965797  0
C  C79  1  0.80931943  0.50264404  0.16106344  1  0  -0.127228  0  3.730613  0  0  -0.138933  0  3.980929  0  0  -0.146761  0  4.003045  0  -0.045718  0  -0.083216  -0.134137  0  3.965856  0
C  C80  1  0.27830702  0.58134867  0.94919652  1  0  -0.041898  0  3.687618  0  0  -0.066726  0  3.939348  0  0  -0.063894  0  3.957188  0  -0.052726  0  -0.060095  -0.068237  0  3.926934  0
C  C81  1  0.72169207  0.41865216  0.05080558  1  0  -0.041847  0  3.687685  0  0  -0.066659  0  3.939408  0  0  -0.063825  0  3.957245  0  -0.052699  0  -0.06003  -0.068175  0  3.926998  0
C  C82  1  0.42767247  0.62446350  0.97627597  1  0  0.020655  0  3.775569  0  0  0.036047  0  4.008396  0  0  0.032917  0  4.033151  0  -0.006258  0  -0.002511  0.038165  0  3.991587  0
C  C83  1  0.57232717  0.37553629  0.02372444  1  0  0.020675  0  3.775529  0  0  0.036021  0  4.008422  0  0  0.03289  0  4.033177  0  -0.006288  0  -0.002516  0.038138  0  3.991612  0
C  C84  1  0.52589000  0.71317404  0.08809774  1  0  -0.089663  0  3.700043  0  0  -0.114348  0  3.959993  0  0  -0.116551  0  3.981345  0  -0.040003  0  -0.081062  -0.112849  0  3.945367  0
C  C85  1  0.47411148  0.28682783  0.91190132  1  0  -0.089717  0  3.700112  0  0  -0.114421  0  3.960089  0  0  -0.116622  0  3.981439  0  -0.040059  0  -0.081082  -0.11292  0  3.945458  0
C  C86  1  0.66958269  0.75278456  0.11039040  1  0  -0.100504  0  3.72852  0  0  -0.124142  0  3.985696  0  0  -0.127371  0  4.008208  0  -0.03775  0  -0.08302  -0.121573  0  3.970172  0
C  C87  1  0.33041977  0.24721731  0.88960733  1  0  -0.100422  0  3.728485  0  0  -0.124094  0  3.985606  0  0  -0.127318  0  4.008102  0  -0.038146  0  -0.082987  -0.121514  0  3.970075  0
C  C88  1  0.72633725  0.70734639  0.02287599  1  0  0.023249  0  3.797893  0  0  0.038888  0  4.028686  0  0  0.036102  0  4.054605  0  -0.056966  0  -0.002963  0.040442  0  4.011354  0
C  C89  1  0.27366087  0.29265444  0.97712004  1  0  0.023032  0  3.798087  0  0  0.038833  0  4.028663  0  0  0.036051  0  4.054581  0  -0.056973  0  -0.002989  0.040377  0  4.011347  0
C  C90  1  0.87394565  0.74608683  0.04195315  1  0  -0.043576  0  3.674687  0  0  -0.065348  0  3.917101  0  0  -0.063465  0  3.935865  0  0.00265  0  -0.064278  -0.065889  0  3.904069  0
C  C91  1  0.12605334  0.25391609  0.95804509  1  0  -0.043511  0  3.674752  0  0  -0.065331  0  3.917115  0  0  -0.063449  0  3.935881  0  0.002947  0  -0.064259  -0.065868  0  3.904084  0
C  C92  1  0.91946855  0.69504843  0.95305709  1  0  -0.125174  0  3.739461  0  0  -0.13459  0  3.984127  0  0  -0.141698  0  4.005719  0  0.007276  0  -0.086458  -0.130001  0  3.969043  0
C  C93  1  0.08053250  0.30495240  0.04693938  1  0  -0.125147  0  3.739435  0  0  -0.134543  0  3.98411  0  0  -0.14165  0  4.005704  0  0.007373  0  -0.086401  -0.129946  0  3.969031  0
C  C94  1  0.81822504  0.60796851  0.84526234  1  0  0.161281  0  3.688987  0  0  0.133429  0  3.942577  0  0  0.141392  0  3.95744  0  0.502236  0  0.062519  0.128058  0  3.932435  0
C  C95  1  0.18177265  0.39203128  0.15473554  1  0  0.161222  0  3.688945  0  0  0.133358  0  3.942534  0  0  0.141319  0  3.957399  0  0.502025  0  0.062482  0.127988  0  3.932392  0
C  C96  1  0.63180608  0.61846162  0.91106232  1  0  0.129486  0  3.767916  0  0  0.126402  0  4.006451  0  0  0.129935  0  4.027621  0  0.538727  0  0.120017  0.123675  0  3.992489  0
C  C97  1  0.36819259  0.38153817  0.08893571  1  0  0.129526  0  3.767977  0  0  0.126395  0  4.006471  0  0  0.129927  0  4.02764  0  0.538516  0  0.120036  0.123671  0  3.992511  0
C  C98  1  0.48001823  0.57634206  0.88731948  1  0  0.127597  0  3.77803  0  0  0.125536  0  4.014402  0  0  0.130118  0  4.035128  0  0.434687  0  0.120892  0.122702  0  4.000196  0
C  C99  1  0.51997848  0.42365773  0.11267973  1  0  0.127657  0  3.777935  0  0  0.125601  0  4.014335  0  0  0.130184  0  4.03506  0  0.434737  0  0.120877  0.122768  0  4.000127  0
N  N100  1  0.88006999  0.02779977  0.68610663  1  0  -0.357697  0  3.073998  0  0  -0.325737  0  3.344651  0  0  -0.337441  0  3.357253  0  -1.210164  0  -0.320322  -0.31781  0  3.335941  0
N  N101  1  0.11993063  0.97220002  0.31389392  1  0  -0.357734  0  3.074064  0  0  -0.325787  0  3.344736  0  0  -0.337488  0  3.357331  0  -1.210154  0  -0.320355  -0.31786  0  3.336025  0
N  N102  1  0.74152386  0.12066249  0.88003156  1  0  -0.352014  0  3.065278  0  0  -0.320875  0  3.336003  0  0  -0.333424  0  3.349743  0  -1.221608  0  -0.316624  -0.312624  0  3.326475  0
N  N103  1  0.25847718  0.87933834  0.11996935  1  0  -0.351981  0  3.065229  0  0  -0.320857  0  3.33593  0  0  -0.333407  0  3.349672  0  -1.221765  0  -0.316598  -0.312607  0  3.326405  0
N  N104  1  0.82948948  0.35979557  0.40941217  1  0  -0.30487  0  3.09146  0  0  -0.268085  0  3.357001  0  0  -0.280106  0  3.373142  0  -1.20703  0  -0.299839  -0.25976  0  3.345872  0
N  N105  1  0.17051212  0.64020422  0.59058779  1  0  -0.304875  0  3.091482  0  0  -0.268126  0  3.357037  0  0  -0.280147  0  3.373179  0  -1.207062  0  -0.299823  -0.259799  0  3.345907  0
N  N106  1  0.67852140  0.57200001  0.82421029  1  0  -0.409349  0  3.239009  0  0  -0.360961  0  3.505805  0  0  -0.374799  0  3.52256  0  -1.255825  0  -0.369347  -0.351263  0  3.494597  0
N  N107  1  0.32147586  0.42799874  0.17578723  1  0  -0.409322  0  3.238951  0  0  -0.360924  0  3.505749  0  0  -0.37476  0  3.522504  0  -1.255756  0  -0.369324  -0.351228  0  3.494542  0
N  N108  1  0.39250590  0.49441062  0.77909168  1  0  -0.42727  0  3.22409  0  0  -0.378026  0  3.494192  0  0  -0.393153  0  3.510633  0  -1.221914  0  -0.370634  -0.367925  0  3.482839  0
N  N109  1  0.60749092  0.50558708  0.22090770  1  0  -0.427332  0  3.224117  0  0  -0.378079  0  3.494223  0  0  -0.393203  0  3.510666  0  -1.221895  0  -0.370642  -0.367976  0  3.482868  0
O  O110  1  0.31126362  0.20105302  0.61248865  1  0  -0.880378  0  1.864755  0  0  -0.833595  0  2.058797  0  0  -0.852338  0  2.032528  0  -1.252292  0  -0.617275  -0.819752  0  2.076937  0
O  O111  1  0.68873602  0.79894676  0.38751028  1  0  -0.880404  0  1.864726  0  0  -0.833631  0  2.058735  0  0  -0.852367  0  2.032444  0  -1.252291  0  -0.61729  -0.819788  0  2.076878  0
O  O112  1  0.48391381  0.08056476  0.66180976  1  0  -0.603049  0  1.890442  0  0  -0.552906  0  2.099413  0  0  -0.577749  0  2.091309  0  -1.16849  0  -0.307991  -0.535373  0  2.104582  0
O  O113  1  0.51608724  0.91943607  0.33819190  1  0  -0.603035  0  1.890523  0  0  -0.552914  0  2.099492  0  0  -0.577754  0  2.091398  0  -1.168471  0  -0.307992  -0.53538  0  2.104661  0
O  O114  1  0.61340279  0.29683479  0.68465673  1  0  -0.766838  0  2.083926  0  0  -0.710719  0  2.346932  0  0  -0.738232  0  2.336644  0  -1.201582  0  -0.430067  -0.690733  0  2.353462  0
O  O115  1  0.38659685  0.70316500  0.31534367  1  0  -0.766899  0  2.083902  0  0  -0.710802  0  2.346899  0  0  -0.73831  0  2.336615  0  -1.201538  0  -0.43008  -0.690817  0  2.353429  0
O  O116  1  0.56569352  0.77893389  0.55243262  1  0  -0.696197  0  2.008061  0  0  -0.644649  0  2.251988  0  0  -0.670598  0  2.243422  0  -1.17123  0  -0.37328  -0.626043  0  2.257328  0
O  O117  1  0.43430515  0.22106589  0.44756689  1  0  -0.696241  0  2.008009  0  0  -0.644692  0  2.251954  0  0  -0.670634  0  2.243381  0  -1.171202  0  -0.373331  -0.626087  0  2.257294  0
O  O118  1  0.54081299  0.63603326  0.63674240  1  0  -0.778993  0  2.142131  0  0  -0.724155  0  2.409446  0  0  -0.750871  0  2.398398  0  -1.201941  0  -0.402124  -0.704733  0  2.416088  0
O  O119  1  0.45919044  0.36396861  0.36325843  1  0  -0.778945  0  2.142238  0  0  -0.724105  0  2.409552  0  0  -0.750848  0  2.398573  0  -1.201936  0  -0.402114  -0.704688  0  2.416209  0
O  O120  1  0.28041997  0.39700033  0.52419957  1  0  -0.731474  0  2.072806  0  0  -0.679849  0  2.340667  0  0  -0.706649  0  2.328859  0  -1.197011  0  -0.397034  -0.660442  0  2.347883  0
O  O121  1  0.71958174  0.60299737  0.47580129  1  0  -0.731462  0  2.072756  0  0  -0.679814  0  2.340643  0  0  -0.706616  0  2.328833  0  -1.196933  0  -0.397043  -0.66041  0  2.347871  0
O  O122  1  0.28800309  0.51134796  0.41375086  1  0  -0.723442  0  2.075692  0  0  -0.678532  0  2.348074  0  0  -0.704168  0  2.334742  0  -1.193638  0  -0.387803  -0.660068  0  2.356256  0
O  O123  1  0.71199720  0.48864870  0.58625097  1  0  -0.723411  0  2.075612  0  0  -0.678543  0  2.348141  0  0  -0.704192  0  2.334822  0  -1.19368  0  -0.387878  -0.660075  0  2.356323  0
