# generated using pymatgen
data_CaH2C6SO4
_symmetry_space_group_name_H-M   'P 1'
_cell_length_a   5.30719274
_cell_length_b   6.94767482
_cell_length_c   18.24306379
_cell_angle_alpha   90.00031043
_cell_angle_beta   90.00053798
_cell_angle_gamma   89.99907026
_symmetry_Int_Tables_number   1
_chemical_formula_structural   CaH2C6SO4
_chemical_formula_sum   'Ca4 H8 C24 S4 O16'
_cell_volume   672.67009398
_cell_formula_units_Z   4
loop_
 _symmetry_equiv_pos_site_id
 _symmetry_equiv_pos_as_xyz
  1  'x, y, z'
loop_
 _atom_site_type_symbol
 _atom_site_label
 _atom_site_symmetry_multiplicity
 _atom_site_fract_x
 _atom_site_fract_y
 _atom_site_fract_z
 _atom_site_occupancy
 _atom_site_pbe_bader_spin_density
 _atom_site_pbe_cm5_charge
 _atom_site_pbe_ddec_charge
 _atom_site_pbe_ddec_spin_density
 _atom_site_pbe_ddec_sum_bond_order
 _atom_site_pbe_magmom
Ca  Ca0  1  0.15270883  0.25000073  0.00000210  1  0  0.927733  1.417152  0  1.460109  0
Ca  Ca1  1  0.84728504  0.75000319  0.50000499  1  0  0.927763  1.417142  0  1.460188  0
Ca  Ca2  1  0.84728891  0.74999702  0.00000016  1  0  0.92775  1.417159  0  1.4602  0
Ca  Ca3  1  0.15271438  0.25000546  0.49999871  1  0  0.927791  1.41723  0  1.460092  0
H  H4  1  0.09536592  0.94604798  0.82269959  1  0  0.109109  0.11211  0  1.036203  0
H  H5  1  0.90463244  0.05394867  0.32270183  1  0  0.109117  0.112161  0  1.03607  0
H  H6  1  0.09537146  0.55394708  0.17730044  1  0  0.109116  0.112145  0  1.03611  0
H  H7  1  0.90461771  0.44603326  0.67729731  1  0  0.109163  0.112131  0  1.035938  0
H  H8  1  0.90462408  0.05394340  0.17730356  1  0  0.109131  0.112174  0  1.036056  0
H  H9  1  0.09538770  0.94605710  0.67729967  1  0  0.10915  0.112157  0  1.036043  0
H  H10  1  0.90465246  0.44604717  0.82269394  1  0  0.109138  0.112114  0  1.036384  0
H  H11  1  0.09535909  0.55394660  0.32269707  1  0  0.109104  0.112127  0  1.036188  0
C  C12  1  0.72616471  0.08095194  0.81749684  1  0  -0.020808  -0.152211  0  3.981863  0
C  C13  1  0.27384664  0.91904464  0.31749844  1  0  -0.020735  -0.152021  0  3.981766  0
C  C14  1  0.72616229  0.41904648  0.18249477  1  0  -0.020836  -0.152203  0  3.982005  0
C  C15  1  0.27383650  0.58093825  0.68248994  1  0  -0.02081  -0.152377  0  3.981888  0
C  C16  1  0.27383094  0.91903944  0.18250138  1  0  -0.020814  -0.152274  0  3.982557  0
C  C17  1  0.72615654  0.08095537  0.68249813  1  0  -0.020761  -0.152155  0  3.982128  0
C  C18  1  0.27382959  0.58094633  0.81749029  1  0  -0.02089  -0.152209  0  3.982283  0
C  C19  1  0.72616669  0.41905169  0.31750280  1  0  -0.020859  -0.15237  0  3.982086  0
C  C20  1  0.65906639  0.10465574  0.89551383  1  0  0.240884  0.648536  0  4.21464  0
C  C21  1  0.34093091  0.89534043  0.39551335  1  0  0.240899  0.648337  0  4.215055  0
C  C22  1  0.65906159  0.39533771  0.10449132  1  0  0.240821  0.648288  0  4.214655  0
C  C23  1  0.34091356  0.60466182  0.60449492  1  0  0.240809  0.6484  0  4.214418  0
C  C24  1  0.34094433  0.89534571  0.10450850  1  0  0.240718  0.648347  0  4.214298  0
C  C25  1  0.65906474  0.10467541  0.60450515  1  0  0.240752  0.648323  0  4.214524  0
C  C26  1  0.34092652  0.60464359  0.89550470  1  0  0.240794  0.648323  0  4.214584  0
C  C27  1  0.65907644  0.39535258  0.39550878  1  0  0.240887  0.648456  0  4.214651  0
C  C28  1  0.94372076  0.00036379  0.78854956  1  0  -0.089816  -0.101588  0  4.005842  0
C  C29  1  0.05628574  0.99962665  0.28854755  1  0  -0.089886  -0.101825  0  4.005884  0
C  C30  1  0.94371574  0.49962775  0.21145461  1  0  -0.089897  -0.101799  0  4.005868  0
C  C31  1  0.05627848  0.50036744  0.71146116  1  0  -0.090012  -0.101814  0  4.00559  0
C  C32  1  0.05628619  0.99962758  0.21145688  1  0  -0.089945  -0.101782  0  4.005828  0
C  C33  1  0.94372310  0.00037912  0.71145779  1  0  -0.090052  -0.101965  0  4.005678  0
C  C34  1  0.05627991  0.50036075  0.78855238  1  0  -0.089891  -0.101675  0  4.006422  0
C  C35  1  0.94371152  0.49963401  0.28854528  1  0  -0.089882  -0.101632  0  4.006044  0
S  S36  1  0.52327003  0.15668306  0.75000199  1  0  0.130422  0.193206  0  3.132188  0
S  S37  1  0.47673504  0.84331695  0.24999842  1  0  0.13041  0.193177  0  3.132176  0
S  S38  1  0.52328312  0.34333214  0.25000175  1  0  0.130462  0.193238  0  3.13208  0
S  S39  1  0.47671441  0.65666787  0.74999866  1  0  0.130536  0.193386  0  3.132041  0
O  O40  1  0.44205485  0.16631659  0.91110369  1  0  -0.357544  -0.609121  0  2.214302  0
O  O41  1  0.55793927  0.83368122  0.41110302  1  0  -0.35757  -0.609091  0  2.214505  0
O  O42  1  0.44205084  0.33369092  0.08889494  1  0  -0.357501  -0.608953  0  2.214392  0
O  O43  1  0.55791996  0.66631848  0.58888876  1  0  -0.357532  -0.609075  0  2.214272  0
O  O44  1  0.55795022  0.83367910  0.08889069  1  0  -0.357517  -0.609019  0  2.21412  0
O  O45  1  0.44204696  0.16632887  0.58889410  1  0  -0.357535  -0.609044  0  2.21431  0
O  O46  1  0.55793915  0.66631485  0.91110273  1  0  -0.357434  -0.608981  0  2.214262  0
O  O47  1  0.44206250  0.33369880  0.41110452  1  0  -0.357517  -0.609073  0  2.214226  0
O  O48  1  0.82973617  0.05956371  0.94323732  1  0  -0.410738  -0.702644  0  2.231271  0
O  O49  1  0.17027799  0.94043453  0.44323710  1  0  -0.410726  -0.702516  0  2.231315  0
O  O50  1  0.82978322  0.44045365  0.05675781  1  0  -0.410838  -0.702691  0  2.230745  0
O  O51  1  0.17020522  0.55955102  0.55676037  1  0  -0.410872  -0.702735  0  2.230705  0
O  O52  1  0.17022933  0.94043631  0.05675486  1  0  -0.410822  -0.702854  0  2.230352  0
O  O53  1  0.82977419  0.05956260  0.55675893  1  0  -0.410803  -0.702769  0  2.230491  0
O  O54  1  0.17024069  0.55956364  0.94323492  1  0  -0.410771  -0.702684  0  2.231108  0
O  O55  1  0.82977535  0.44044899  0.44323237  1  0  -0.410844  -0.702666  0  2.231114  0
