# generated using pymatgen
data_H14PbC14(NO)8
_symmetry_space_group_name_H-M   'P 1'
_cell_length_a   6.86819984
_cell_length_b   9.21973447
_cell_length_c   13.52763455
_cell_angle_alpha   90.00102549
_cell_angle_beta   93.22550470
_cell_angle_gamma   90.00278212
_symmetry_Int_Tables_number   1
_chemical_formula_structural   H14PbC14(NO)8
_chemical_formula_sum   'H28 Pb2 C28 N16 O16'
_cell_volume   855.25308752
_cell_formula_units_Z   2
loop_
 _symmetry_equiv_pos_site_id
 _symmetry_equiv_pos_as_xyz
  1  'x, y, z'
loop_
 _atom_site_type_symbol
 _atom_site_label
 _atom_site_symmetry_multiplicity
 _atom_site_fract_x
 _atom_site_fract_y
 _atom_site_fract_z
 _atom_site_occupancy
 _atom_site_hle17_bader_spin_density
 _atom_site_hle17_ddec_charge
 _atom_site_hle17_ddec_spin_density
 _atom_site_hle17_ddec_sum_bond_order
 _atom_site_hle17_magmom
 _atom_site_hse06_10hf_bader_spin_density
 _atom_site_hse06_10hf_ddec_charge
 _atom_site_hse06_10hf_ddec_spin_density
 _atom_site_hse06_10hf_ddec_sum_bond_order
 _atom_site_hse06_10hf_magmom
 _atom_site_hse06_bader_spin_density
 _atom_site_hse06_ddec_charge
 _atom_site_hse06_ddec_spin_density
 _atom_site_hse06_ddec_sum_bond_order
 _atom_site_hse06_magmom
 _atom_site_pbe_bader_spin_density
 _atom_site_pbe_cm5_charge
 _atom_site_pbe_ddec_charge
 _atom_site_pbe_ddec_spin_density
 _atom_site_pbe_ddec_sum_bond_order
 _atom_site_pbe_magmom
H  H0  1  0.15002142  0.19171671  0.26145722  1  0  0.127846  0  0.928078  0  0  0.139102  0  0.990647  0  0  0.141562  0  0.989291  0  0  0.122951  0.137366  0  0.991583  0
H  H1  1  0.34996053  0.69168132  0.23853572  1  0  0.127606  0  0.928648  0  0  0.138865  0  0.991181  0  0  0.141319  0  0.989821  0  0  0.122815  0.137132  0  0.992116  0
H  H2  1  0.84996975  0.80830131  0.73852758  1  0  0.127768  0  0.928224  0  0  0.138927  0  0.990887  0  0  0.141392  0  0.989518  0  0  0.122836  0.137191  0  0.991828  0
H  H3  1  0.65002648  0.30831717  0.76146820  1  0  0.127604  0  0.928636  0  0  0.138813  0  0.991238  0  0  0.141266  0  0.989878  0  0  0.122821  0.137085  0  0.992178  0
H  H4  1  0.98064167  0.04684480  0.25469721  1  0  0.111667  0  0.967216  0  0  0.117902  0  1.039527  0  0  0.120565  0  1.037386  0  0  0.116405  0.115832  0  1.041527  0
H  H5  1  0.51935613  0.54686581  0.24531304  1  0  0.11165  0  0.967216  0  0  0.117907  0  1.039429  0  0  0.12056  0  1.037297  0  0  0.116348  0.11584  0  1.041429  0
H  H6  1  0.01931590  0.95318080  0.74528082  1  0  0.111356  0  0.967591  0  0  0.117623  0  1.039802  0  0  0.12027  0  1.037689  0  0  0.11622  0.115554  0  1.041803  0
H  H7  1  0.48065892  0.45311532  0.75472191  1  0  0.111433  0  0.967254  0  0  0.117684  0  1.03948  0  0  0.120334  0  1.037363  0  0  0.116258  0.115617  0  1.041474  0
H  H8  1  0.42054375  0.97241817  0.70973605  1  0  0.338396  0  0.913441  0  0  0.313467  0  0.979938  0  0  0.324091  0  0.971083  0  0  0.309979  0.305992  0  0.98612  0
H  H9  1  0.07947448  0.47245607  0.79025473  1  0  0.338173  0  0.913734  0  0  0.313456  0  0.979984  0  0  0.324088  0  0.971096  0  0  0.309938  0.305979  0  0.986165  0
H  H10  1  0.57939187  0.02756079  0.29023475  1  0  0.338492  0  0.913111  0  0  0.313625  0  0.979488  0  0  0.324245  0  0.970608  0  0  0.309969  0.306153  0  0.985673  0
H  H11  1  0.92056914  0.52759991  0.20972625  1  0  0.338278  0  0.913618  0  0  0.313303  0  0.980199  0  0  0.32391  0  0.971353  0  0  0.309954  0.305841  0  0.986368  0
H  H12  1  0.28665928  0.24631810  0.40352390  1  0  0.086852  0  0.953558  0  0  0.091547  0  1.025037  0  0  0.094627  0  1.020966  0  0  0.136821  0.089323  0  1.027875  0
H  H13  1  0.21340224  0.74632277  0.09648433  1  0  0.086862  0  0.953823  0  0  0.091563  0  1.025187  0  0  0.094643  0  1.021112  0  0  0.136834  0.089339  0  1.028031  0
H  H14  1  0.71333202  0.75370750  0.59647274  1  0  0.086875  0  0.953704  0  0  0.091609  0  1.025086  0  0  0.094685  0  1.021013  0  0  0.136906  0.089389  0  1.027922  0
H  H15  1  0.78671340  0.25370284  0.90355100  1  0  0.086847  0  0.953902  0  0  0.091559  0  1.025391  0  0  0.09463  0  1.021322  0  0  0.136916  0.089341  0  1.028228  0
H  H16  1  0.29426074  0.71002330  0.71228314  1  0  0.107943  0  0.918926  0  0  0.118288  0  0.976449  0  0  0.121207  0  0.973065  0  0  0.143327  0.116064  0  0.979065  0
H  H17  1  0.20578808  0.21009830  0.78768228  1  0  0.108098  0  0.918892  0  0  0.118392  0  0.976469  0  0  0.1213  0  0.973099  0  0  0.143394  0.11617  0  0.979085  0
H  H18  1  0.70578102  0.28995241  0.28766157  1  0  0.108215  0  0.918703  0  0  0.118532  0  0.976248  0  0  0.121332  0  0.973028  0  0  0.14345  0.116395  0  0.978748  0
H  H19  1  0.79426302  0.78998045  0.21231664  1  0  0.108026  0  0.919164  0  0  0.118609  0  0.976374  0  0  0.121414  0  0.973152  0  0  0.143434  0.11644  0  0.978909  0
H  H20  1  0.31091981  0.29159782  0.59203874  1  0  0.387952  0  0.92819  0  0  0.34978  0  1.005211  0  0  0.360625  0  0.989734  0  0  0.279719  0.342575  0  1.015562  0
H  H21  1  0.18911478  0.79162934  0.90800272  1  0  0.388  0  0.928187  0  0  0.349867  0  1.005128  0  0  0.360714  0  0.989646  0  0  0.279758  0.342662  0  1.015479  0
H  H22  1  0.68919182  0.70831932  0.40803048  1  0  0.387761  0  0.928573  0  0  0.349543  0  1.005635  0  0  0.360388  0  0.990149  0  0  0.279511  0.342342  0  1.01598  0
H  H23  1  0.81086067  0.20835504  0.09201125  1  0  0.387841  0  0.92837  0  0  0.349727  0  1.005326  0  0  0.36057  0  0.989847  0  0  0.279624  0.342524  0  1.015674  0
H  H24  1  0.42173961  0.44081245  0.59602949  1  0  0.421694  0  0.874034  0  0  0.392231  0  0.938121  0  0  0.403735  0  0.921563  0  0  0.287154  0.383874  0  0.950075  0
H  H25  1  0.07826351  0.94083329  0.90397012  1  0  0.421744  0  0.873976  0  0  0.392235  0  0.938134  0  0  0.403736  0  0.921581  0  0  0.287061  0.383878  0  0.950089  0
H  H26  1  0.57831641  0.55914374  0.40401982  1  0  0.421822  0  0.87378  0  0  0.392227  0  0.938  0  0  0.403679  0  0.921537  0  0  0.28705  0.383873  0  0.949949  0
H  H27  1  0.92166776  0.05918580  0.09600279  1  0  0.421786  0  0.873919  0  0  0.39222  0  0.938045  0  0  0.403681  0  0.921563  0  0  0.287125  0.383869  0  0.949992  0
Pb  Pb28  1  0.00021523  0.49997761  0.50003197  1  0  1.345985  0  1.347853  0  0  1.148759  0  1.748182  0  0  1.211102  0  1.70372  0  0  0.6459  1.103345  0  1.779024  0
Pb  Pb29  1  0.49978479  0.99999800  0.99999491  1  0  1.346104  0  1.347596  0  0  1.148933  0  1.74788  0  0  1.211273  0  1.70342  0  0  0.645936  1.103525  0  1.778722  0
C  C30  1  0.14822651  0.89021152  0.40106487  1  0  0.464647  0  3.855461  0  0  0.417176  0  4.146155  0  0  0.445874  0  4.14817  0  0  0.224207  0.398298  0  4.143967  0
C  C31  1  0.35170437  0.39024459  0.09893068  1  0  0.466  0  3.854831  0  0  0.418258  0  4.145974  0  0  0.446954  0  4.147979  0  0  0.224685  0.399385  0  4.143797  0
C  C32  1  0.85174247  0.10976745  0.59889053  1  0  0.464807  0  3.854993  0  0  0.417115  0  4.146017  0  0  0.445814  0  4.148035  0  0  0.224065  0.398244  0  4.143828  0
C  C33  1  0.64818666  0.60976366  0.90109516  1  0  0.464828  0  3.855742  0  0  0.417233  0  4.146692  0  0  0.445939  0  4.148708  0  0  0.224136  0.398355  0  4.144502  0
C  C34  1  0.20308910  0.86776203  0.50337355  1  0  -0.075792  0  3.856623  0  0  -0.07945  0  4.120824  0  0  -0.087786  0  4.144591  0  0  0.069315  -0.074743  0  4.104945  0
C  C35  1  0.29694103  0.36781443  0.99660072  1  0  -0.07601  0  3.856751  0  0  -0.079618  0  4.120877  0  0  -0.087958  0  4.144643  0  0  0.069073  -0.074911  0  4.105  0
C  C36  1  0.79688423  0.13221043  0.49657901  1  0  -0.075444  0  3.856377  0  0  -0.07915  0  4.120759  0  0  -0.087494  0  4.144534  0  0  0.069152  -0.074443  0  4.104873  0
C  C37  1  0.70309558  0.63220901  0.00340595  1  0  -0.075783  0  3.856857  0  0  -0.079487  0  4.121089  0  0  -0.087825  0  4.144861  0  0  0.069114  -0.074777  0  4.105206  0
C  C38  1  0.13451038  0.07381292  0.26964229  1  0  -0.173645  0  3.642261  0  0  -0.234029  0  3.89381  0  0  -0.233873  0  3.899168  0  0  -0.066665  -0.234149  0  3.890508  0
C  C39  1  0.36549313  0.57380392  0.23036453  1  0  -0.173518  0  3.642712  0  0  -0.233805  0  3.894248  0  0  -0.233631  0  3.899607  0  0  -0.066578  -0.233931  0  3.890945  0
C  C40  1  0.86546321  0.92620401  0.73033467  1  0  -0.173305  0  3.642155  0  0  -0.233611  0  3.893704  0  0  -0.233445  0  3.899045  0  0  -0.066458  -0.233734  0  3.890411  0
C  C41  1  0.63455082  0.42619457  0.76964751  1  0  -0.17324  0  3.642416  0  0  -0.233514  0  3.894177  0  0  -0.233332  0  3.89953  0  0  -0.066615  -0.233648  0  3.890882  0
C  C42  1  0.28807611  0.98027517  0.56031313  1  0  0.321009  0  3.836368  0  0  0.28164  0  4.115278  0  0  0.295829  0  4.132515  0  0  0.209922  0.272413  0  4.103396  0
C  C43  1  0.21193101  0.48031102  0.93968190  1  0  0.320206  0  3.836796  0  0  0.281211  0  4.115445  0  0  0.295401  0  4.132678  0  0  0.209742  0.271982  0  4.103565  0
C  C44  1  0.71190750  0.01968644  0.43964708  1  0  0.320693  0  3.836199  0  0  0.281336  0  4.115093  0  0  0.295524  0  4.132338  0  0  0.209844  0.272118  0  4.103196  0
C  C45  1  0.78808096  0.51971459  0.06033893  1  0  0.320461  0  3.83659  0  0  0.281272  0  4.115244  0  0  0.295448  0  4.1325  0  0  0.209851  0.272054  0  4.103352  0
C  C46  1  0.26785765  0.13836170  0.43483929  1  0  0.257744  0  3.681011  0  0  0.189985  0  3.968918  0  0  0.209378  0  3.977435  0  0  0.18076  0.177477  0  3.963314  0
C  C47  1  0.23216358  0.63837274  0.06520057  1  0  0.257365  0  3.681764  0  0  0.189832  0  3.96957  0  0  0.209231  0  3.978084  0  0  0.180654  0.177323  0  3.963973  0
C  C48  1  0.73215988  0.86162703  0.56515654  1  0  0.257594  0  3.681073  0  0  0.189846  0  3.968927  0  0  0.209248  0  3.977428  0  0  0.180607  0.177337  0  3.963331  0
C  C49  1  0.76781378  0.36161816  0.93485484  1  0  0.257606  0  3.681376  0  0  0.189835  0  3.969355  0  0  0.209247  0  3.977863  0  0  0.18061  0.177322  0  3.963758  0
C  C50  1  0.27409738  0.78092761  0.64859971  1  0  0.27826  0  3.598654  0  0  0.214611  0  3.881434  0  0  0.230108  0  3.890996  0  0  0.167949  0.204432  0  3.874203  0
C  C51  1  0.22593882  0.28097031  0.85138548  1  0  0.277802  0  3.599039  0  0  0.214284  0  3.881955  0  0  0.229783  0  3.891526  0  0  0.167777  0.204107  0  3.874719  0
C  C52  1  0.72586432  0.21904919  0.35135625  1  0  0.277921  0  3.59973  0  0  0.214238  0  3.882535  0  0  0.229804  0  3.892135  0  0  0.167722  0.204012  0  3.875277  0
C  C53  1  0.77415322  0.71909109  0.14862484  1  0  0.277841  0  3.598597  0  0  0.214026  0  3.881386  0  0  0.229583  0  3.890982  0  0  0.167729  0.203829  0  3.874133  0
C  C54  1  0.25135155  0.00077721  0.19060769  1  0  0.678925  0  3.88348  0  0  0.62496  0  4.195485  0  0  0.658302  0  4.188087  0  0  0.209268  0.60243  0  4.198916  0
C  C55  1  0.24860203  0.50079095  0.30940508  1  0  0.679053  0  3.883982  0  0  0.625033  0  4.195966  0  0  0.658364  0  4.188573  0  0  0.209357  0.602508  0  4.199392  0
C  C56  1  0.74866159  0.99928528  0.80938655  1  0  0.67904  0  3.883145  0  0  0.625005  0  4.195301  0  0  0.658348  0  4.187893  0  0  0.209189  0.602473  0  4.198737  0
C  C57  1  0.75146078  0.49918042  0.69059783  1  0  0.67867  0  3.884316  0  0  0.624423  0  4.196769  0  0  0.657757  0  4.189386  0  0  0.209055  0.601896  0  4.200188  0
N  N58  1  0.31869961  0.11776133  0.52898519  1  0  -0.415924  0  3.125153  0  0  -0.366584  0  3.398212  0  0  -0.383955  0  3.408474  0  0  -0.320701  -0.355727  0  3.391712  0
N  N59  1  0.18134531  0.61778555  0.97104552  1  0  -0.41546  0  3.124882  0  0  -0.366315  0  3.397847  0  0  -0.383691  0  3.408112  0  0  -0.320495  -0.355452  0  3.391341  0
N  N60  1  0.68128284  0.88220896  0.47100235  1  0  -0.415705  0  3.12433  0  0  -0.366416  0  3.397354  0  0  -0.383782  0  3.407613  0  0  -0.320581  -0.35556  0  3.390844  0
N  N61  1  0.81869743  0.38221294  0.02898940  1  0  -0.415732  0  3.125043  0  0  -0.366417  0  3.398036  0  0  -0.383782  0  3.408301  0  0  -0.320698  -0.35556  0  3.391527  0
N  N62  1  0.19147631  0.03507450  0.37169977  1  0  -0.168829  0  3.448815  0  0  -0.081879  0  3.67656  0  0  -0.103021  0  3.699019  0  0  -0.236362  -0.067996  0  3.661183  0
N  N63  1  0.30856549  0.53509109  0.12830830  1  0  -0.168892  0  3.449783  0  0  -0.082185  0  3.67785  0  0  -0.103346  0  3.70033  0  0  -0.236504  -0.068303  0  3.66248  0
N  N64  1  0.80851472  0.96494352  0.62827173  1  0  -0.168827  0  3.449833  0  0  -0.081733  0  3.677439  0  0  -0.10289  0  3.699914  0  0  -0.236356  -0.06786  0  3.662076  0
N  N65  1  0.69148290  0.46493886  0.87170976  1  0  -0.168757  0  3.448885  0  0  -0.081842  0  3.676686  0  0  -0.103025  0  3.699195  0  0  -0.236245  -0.067953  0  3.661316  0
N  N66  1  0.19326305  0.74427532  0.56041354  1  0  -0.403511  0  3.10757  0  0  -0.345136  0  3.379722  0  0  -0.364389  0  3.399474  0  0  -0.314197  -0.331134  0  3.364859  0
N  N67  1  0.30667902  0.24429511  0.93958356  1  0  -0.403289  0  3.10763  0  0  -0.344888  0  3.379688  0  0  -0.364133  0  3.399434  0  0  -0.314034  -0.330887  0  3.364823  0
N  N68  1  0.80664763  0.25572209  0.43954332  1  0  -0.403507  0  3.107515  0  0  -0.345182  0  3.379702  0  0  -0.364406  0  3.399405  0  0  -0.314132  -0.331197  0  3.364863  0
N  N69  1  0.69324417  0.75571205  0.06045050  1  0  -0.403188  0  3.106781  0  0  -0.344893  0  3.379031  0  0  -0.364116  0  3.398736  0  0  -0.314047  -0.330911  0  3.364185  0
N  N70  1  0.33284136  0.92290788  0.65226191  1  0  -0.364368  0  3.313151  0  0  -0.296917  0  3.553676  0  0  -0.315513  0  3.561855  0  0  -0.364586  -0.284289  0  3.547723  0
N  N71  1  0.16713868  0.42294074  0.84773393  1  0  -0.363941  0  3.313211  0  0  -0.297  0  3.553907  0  0  -0.315591  0  3.562098  0  0  -0.364589  -0.284365  0  3.54795  0
N  N72  1  0.66709710  0.07706350  0.34770158  1  0  -0.364593  0  3.313128  0  0  -0.297004  0  3.553331  0  0  -0.31558  0  3.5615  0  0  -0.364519  -0.284398  0  3.54739  0
N  N73  1  0.83283255  0.57707836  0.15229397  1  0  -0.364254  0  3.313015  0  0  -0.296794  0  3.553537  0  0  -0.315363  0  3.561692  0  0  -0.364657  -0.28419  0  3.547597  0
O  O74  1  0.07225793  0.80285323  0.34070749  1  0  -0.521666  0  1.926014  0  0  -0.476034  0  2.144763  0  0  -0.497927  0  2.140947  0  0  -0.287436  -0.460858  0  2.146758  0
O  O75  1  0.42766135  0.30292647  0.15928520  1  0  -0.522364  0  1.926143  0  0  -0.476596  0  2.145072  0  0  -0.498432  0  2.141161  0  0  -0.287663  -0.46143  0  2.147078  0
O  O76  1  0.92768648  0.19713332  0.65926724  1  0  -0.52211  0  1.925298  0  0  -0.476404  0  2.144197  0  0  -0.498281  0  2.140327  0  0  -0.287495  -0.461218  0  2.146194  0
O  O77  1  0.57227041  0.69711215  0.84073282  1  0  -0.521724  0  1.926057  0  0  -0.475995  0  2.144779  0  0  -0.497884  0  2.140966  0  0  -0.287394  -0.460818  0  2.146772  0
O  O78  1  0.16694536  0.99529883  0.10452324  1  0  -0.651107  0  1.971897  0  0  -0.582321  0  2.196667  0  0  -0.611174  0  2.18862  0  0  -0.302211  -0.561841  0  2.200768  0
O  O79  1  0.33309717  0.49522840  0.39545209  1  0  -0.651212  0  1.972678  0  0  -0.582307  0  2.197372  0  0  -0.611147  0  2.189328  0  0  -0.302284  -0.56183  0  2.20147  0
O  O80  1  0.83307196  0.00474847  0.89545337  1  0  -0.651084  0  1.972098  0  0  -0.582347  0  2.196927  0  0  -0.611196  0  2.188853  0  0  -0.302293  -0.561878  0  2.201031  0
O  O81  1  0.66698754  0.50471044  0.60455435  1  0  -0.650882  0  1.972989  0  0  -0.582153  0  2.198031  0  0  -0.611009  0  2.189976  0  0  -0.302266  -0.561683  0  2.202122  0
O  O82  1  0.42278787  0.95357486  0.21052224  1  0  -0.644912  0  1.982197  0  0  -0.589787  0  2.218281  0  0  -0.616994  0  2.211016  0  0  -0.312743  -0.570348  0  2.221984  0
O  O83  1  0.07717495  0.45359530  0.28948083  1  0  -0.644899  0  1.981985  0  0  -0.589724  0  2.218097  0  0  -0.61693  0  2.210833  0  0  -0.312719  -0.570289  0  2.221803  0
O  O84  1  0.57715110  0.04638133  0.78948857  1  0  -0.645222  0  1.981711  0  0  -0.589971  0  2.217796  0  0  -0.617194  0  2.210528  0  0  -0.312785  -0.570521  0  2.221503  0
O  O85  1  0.92288768  0.54645634  0.71050656  1  0  -0.644936  0  1.981824  0  0  -0.589568  0  2.217759  0  0  -0.616788  0  2.2105  0  0  -0.312591  -0.570124  0  2.221462  0
O  O86  1  0.29435609  0.39538383  0.60986138  1  0  -0.835768  0  1.87125  0  0  -0.772541  0  2.061536  0  0  -0.79642  0  2.031251  0  0  -0.575289  -0.756285  0  2.082469  0
O  O87  1  0.20565589  0.89540464  0.89015490  1  0  -0.835915  0  1.871103  0  0  -0.772709  0  2.061502  0  0  -0.796584  0  2.031213  0  0  -0.575296  -0.756452  0  2.082436  0
O  O88  1  0.70571896  0.60454633  0.39019581  1  0  -0.835914  0  1.870951  0  0  -0.772589  0  2.061959  0  0  -0.796422  0  2.031709  0  0  -0.575291  -0.756341  0  2.082885  0
O  O89  1  0.79427553  0.10457433  0.10983206  1  0  -0.83592  0  1.871009  0  0  -0.772721  0  2.06164  0  0  -0.796568  0  2.031377  0  0  -0.57542  -0.756471  0  2.082569  0
