# generated using pymatgen
data_SnH10C5(SN)2
_symmetry_space_group_name_H-M   'P 1'
_cell_length_a   8.76241279
_cell_length_b   10.10104370
_cell_length_c   10.91456345
_cell_angle_alpha   89.99938735
_cell_angle_beta   90.00007150
_cell_angle_gamma   92.61671495
_symmetry_Int_Tables_number   1
_chemical_formula_structural   SnH10C5(SN)2
_chemical_formula_sum   'Sn4 H40 C20 S8 N8'
_cell_volume   965.03541332
_cell_formula_units_Z   4
loop_
 _symmetry_equiv_pos_site_id
 _symmetry_equiv_pos_as_xyz
  1  'x, y, z'
loop_
 _atom_site_type_symbol
 _atom_site_label
 _atom_site_symmetry_multiplicity
 _atom_site_fract_x
 _atom_site_fract_y
 _atom_site_fract_z
 _atom_site_occupancy
 _atom_site_hle17_bader_spin_density
 _atom_site_hle17_ddec_charge
 _atom_site_hle17_ddec_spin_density
 _atom_site_hle17_ddec_sum_bond_order
 _atom_site_hle17_magmom
 _atom_site_hse06_10hf_bader_spin_density
 _atom_site_hse06_10hf_ddec_charge
 _atom_site_hse06_10hf_ddec_spin_density
 _atom_site_hse06_10hf_ddec_sum_bond_order
 _atom_site_hse06_10hf_magmom
 _atom_site_hse06_bader_spin_density
 _atom_site_hse06_ddec_charge
 _atom_site_hse06_ddec_spin_density
 _atom_site_hse06_ddec_sum_bond_order
 _atom_site_hse06_magmom
 _atom_site_pbe_bader_spin_density
 _atom_site_pbe_cm5_charge
 _atom_site_pbe_ddec_charge
 _atom_site_pbe_ddec_spin_density
 _atom_site_pbe_ddec_sum_bond_order
 _atom_site_pbe_magmom
Sn  Sn0  1  0.79703820  0.66058040  0.78060186  1  0  1.165811  0  3.010688  0  0  1.036671  0  3.506582  0  0  1.067574  0  3.503315  0  0  0.443517  1.015513  0  3.507865  0
Sn  Sn1  1  0.70294921  0.83942373  0.28060751  1  0  1.165744  0  3.010852  0  0  1.036581  0  3.506762  0  0  1.067483  0  3.503493  0  0  0.443454  1.015423  0  3.508046  0
Sn  Sn2  1  0.20297336  0.33941488  0.21940436  1  0  1.165631  0  3.010759  0  0  1.036426  0  3.506768  0  0  1.067325  0  3.503499  0  0  0.443458  1.015272  0  3.508037  0
Sn  Sn3  1  0.29703452  0.16058268  0.71939871  1  0  1.165717  0  3.010625  0  0  1.036581  0  3.506504  0  0  1.067473  0  3.503234  0  0  0.443473  1.015423  0  3.507782  0
H  H4  1  0.12268822  0.83890665  0.30302041  1  0  0.119503  0  0.965009  0  0  0.125958  0  1.033109  0  0  0.128769  0  1.030725  0  0  0.121884  0.124214  0  1.034073  0
H  H5  1  0.37726781  0.66108994  0.80299835  1  0  0.119472  0  0.965054  0  0  0.125926  0  1.033162  0  0  0.128735  0  1.030773  0  0  0.121831  0.124184  0  1.034122  0
H  H6  1  0.87728639  0.16109984  0.69699314  1  0  0.119396  0  0.965078  0  0  0.125886  0  1.033161  0  0  0.128706  0  1.030748  0  0  0.121839  0.124145  0  1.034119  0
H  H7  1  0.62272164  0.33889858  0.19696940  1  0  0.119433  0  0.965027  0  0  0.125843  0  1.033182  0  0  0.128662  0  1.030768  0  0  0.121831  0.1241  0  1.034145  0
H  H8  1  0.83722924  0.60039354  0.54095173  1  0  0.156986  0  0.990074  0  0  0.175916  0  1.046136  0  0  0.178707  0  1.046439  0  0  0.084955  0.173653  0  1.046569  0
H  H9  1  0.66278810  0.89958535  0.04095308  1  0  0.157013  0  0.990058  0  0  0.175956  0  1.046078  0  0  0.178747  0  1.04638  0  0  0.084987  0.173693  0  1.046512  0
H  H10  1  0.16280363  0.39957777  0.45905999  1  0  0.156971  0  0.989995  0  0  0.175945  0  1.045997  0  0  0.178734  0  1.046301  0  0  0.085009  0.173679  0  1.046433  0
H  H11  1  0.33721027  0.10041797  0.95905131  1  0  0.157003  0  0.989949  0  0  0.175953  0  1.045972  0  0  0.178742  0  1.046277  0  0  0.08499  0.173688  0  1.046408  0
H  H12  1  0.76900327  0.45485800  0.62032618  1  0  0.145747  0  0.998571  0  0  0.159588  0  1.064649  0  0  0.161826  0  1.065967  0  0  0.076527  0.158009  0  1.063582  0
H  H13  1  0.73101083  0.04513034  0.12031551  1  0  0.145731  0  0.998605  0  0  0.159566  0  1.0647  0  0  0.161805  0  1.066019  0  0  0.076487  0.157986  0  1.063635  0
H  H14  1  0.23102705  0.54512720  0.37969378  1  0  0.145731  0  0.998556  0  0  0.159587  0  1.064639  0  0  0.161826  0  1.065956  0  0  0.076493  0.158004  0  1.063577  0
H  H15  1  0.26898488  0.95486705  0.87969162  1  0  0.145702  0  0.998541  0  0  0.159539  0  1.064647  0  0  0.16178  0  1.065962  0  0  0.076472  0.15796  0  1.06358  0
H  H16  1  0.96708553  0.50663436  0.62958796  1  0  0.14783  0  0.997302  0  0  0.166916  0  1.05412  0  0  0.169348  0  1.054974  0  0  0.076522  0.164968  0  1.053846  0
H  H17  1  0.53292151  0.99335945  0.12956719  1  0  0.147814  0  0.997545  0  0  0.166913  0  1.054324  0  0  0.169346  0  1.05517  0  0  0.076505  0.164958  0  1.054059  0
H  H18  1  0.03293871  0.49334494  0.37043384  1  0  0.147807  0  0.997598  0  0  0.166915  0  1.054362  0  0  0.169352  0  1.0552  0  0  0.076536  0.164957  0  1.0541  0
H  H19  1  0.46707262  0.00664886  0.87042712  1  0  0.147776  0  0.997584  0  0  0.166903  0  1.054319  0  0  0.169337  0  1.055162  0  0  0.076533  0.164947  0  1.054056  0
H  H20  1  0.72939225  0.53661543  0.99599997  1  0  0.147073  0  1.030087  0  0  0.15801  0  1.101694  0  0  0.160843  0  1.10256  0  0  0.0726  0.155736  0  1.101733  0
H  H21  1  0.77060559  0.96338513  0.49600629  1  0  0.147042  0  1.03007  0  0  0.157988  0  1.101687  0  0  0.160822  0  1.102553  0  0  0.072577  0.155714  0  1.101726  0
H  H22  1  0.27059592  0.46338897  0.00400808  1  0  0.147023  0  1.03019  0  0  0.15797  0  1.10178  0  0  0.160803  0  1.102645  0  0  0.072567  0.155697  0  1.101818  0
H  H23  1  0.22940438  0.03662106  0.50400359  1  0  0.147044  0  1.030161  0  0  0.157978  0  1.10178  0  0  0.16081  0  1.102644  0  0  0.072573  0.155705  0  1.101816  0
H  H24  1  0.57687862  0.50215859  0.88846027  1  0  0.138697  0  1.022045  0  0  0.156355  0  1.08184  0  0  0.158424  0  1.083323  0  0  0.075642  0.154833  0  1.081089  0
H  H25  1  0.92311543  0.99783927  0.38846089  1  0  0.138745  0  1.02205  0  0  0.156394  0  1.08183  0  0  0.15846  0  1.083318  0  0  0.075654  0.154868  0  1.081083  0
H  H26  1  0.42312355  0.49785064  0.11153221  1  0  0.1387  0  1.021989  0  0  0.156337  0  1.08179  0  0  0.158403  0  1.083272  0  0  0.075595  0.154815  0  1.081039  0
H  H27  1  0.07687889  0.00215416  0.61153158  1  0  0.138701  0  1.022048  0  0  0.156338  0  1.081853  0  0  0.158404  0  1.083337  0  0  0.075615  0.154815  0  1.081101  0
H  H28  1  0.59343814  0.65882218  0.96598711  1  0  0.146511  0  0.982987  0  0  0.167934  0  1.035941  0  0  0.170262  0  1.036579  0  0  0.083148  0.166378  0  1.035583  0
H  H29  1  0.90655739  0.84117875  0.46599201  1  0  0.14652  0  0.983026  0  0  0.167932  0  1.03599  0  0  0.17026  0  1.036627  0  0  0.083147  0.166376  0  1.035631  0
H  H30  1  0.40656796  0.34119496  0.03399620  1  0  0.146456  0  0.983268  0  0  0.167902  0  1.036164  0  0  0.170222  0  1.036812  0  0  0.083137  0.166345  0  1.035807  0
H  H31  1  0.09343446  0.15881173  0.53399771  1  0  0.146499  0  0.98324  0  0  0.167937  0  1.036146  0  0  0.170266  0  1.036783  0  0  0.08315  0.166379  0  1.035788  0
H  H32  1  0.71779378  0.91782271  0.77975398  1  0  0.148748  0  0.997006  0  0  0.165576  0  1.058428  0  0  0.168027  0  1.059369  0  0  0.077171  0.163709  0  1.057831  0
H  H33  1  0.78220143  0.58217838  0.27976407  1  0  0.148836  0  0.996942  0  0  0.165654  0  1.058365  0  0  0.168098  0  1.059314  0  0  0.077192  0.163789  0  1.057765  0
H  H34  1  0.28220530  0.08215581  0.22023941  1  0  0.148853  0  0.997064  0  0  0.16566  0  1.058487  0  0  0.168102  0  1.059439  0  0  0.077185  0.163795  0  1.057887  0
H  H35  1  0.21779770  0.41783682  0.72024582  1  0  0.148822  0  0.997041  0  0  0.165608  0  1.058517  0  0  0.168056  0  1.059463  0  0  0.077181  0.163744  0  1.057917  0
H  H36  1  0.88687847  0.90279797  0.69119814  1  0  0.14442  0  1.013909  0  0  0.165075  0  1.069991  0  0  0.167215  0  1.071285  0  0  0.079264  0.1631  0  1.070151  0
H  H37  1  0.61312603  0.59720803  0.19120426  1  0  0.144474  0  1.013909  0  0  0.165099  0  1.070011  0  0  0.167238  0  1.071306  0  0  0.079224  0.163126  0  1.070168  0
H  H38  1  0.11313075  0.09719633  0.30880350  1  0  0.144421  0  1.013859  0  0  0.165046  0  1.069986  0  0  0.167185  0  1.071282  0  0  0.079216  0.163069  0  1.070147  0
H  H39  1  0.38687564  0.40279327  0.80880746  1  0  0.144408  0  1.013891  0  0  0.16506  0  1.069981  0  0  0.167199  0  1.071275  0  0  0.079242  0.163085  0  1.070141  0
H  H40  1  0.89833963  0.90389637  0.85564723  1  0  0.155422  0  0.99407  0  0  0.170994  0  1.052612  0  0  0.173565  0  1.053676  0  0  0.081232  0.169003  0  1.052165  0
H  H41  1  0.60165053  0.59609497  0.35565060  1  0  0.155417  0  0.993994  0  0  0.170988  0  1.052533  0  0  0.173557  0  1.053595  0  0  0.081214  0.168992  0  1.052095  0
H  H42  1  0.10165729  0.09610200  0.14435441  1  0  0.155448  0  0.994045  0  0  0.171  0  1.052599  0  0  0.173571  0  1.053661  0  0  0.081212  0.169009  0  1.052152  0
H  H43  1  0.39834759  0.40390438  0.64435837  1  0  0.155438  0  0.994069  0  0  0.170987  0  1.052627  0  0  0.173558  0  1.053689  0  0  0.081213  0.168996  0  1.052182  0
C  C44  1  0.05612420  0.70586144  0.01240199  1  0  0.147567  0  3.841533  0  0  0.137954  0  4.150072  0  0  0.152142  0  4.163727  0  0  0.116835  0.128476  0  4.140276  0
C  C45  1  0.44386288  0.79414718  0.51239883  1  0  0.147619  0  3.841594  0  0  0.137939  0  4.150218  0  0  0.152123  0  4.163872  0  0  0.116794  0.128463  0  4.140421  0
C  C46  1  0.94387550  0.29414484  0.98760148  1  0  0.147803  0  3.841371  0  0  0.138176  0  4.149929  0  0  0.152361  0  4.163585  0  0  0.116903  0.128699  0  4.140132  0
C  C47  1  0.55613296  0.20585219  0.48758448  1  0  0.147376  0  3.841777  0  0  0.13777  0  4.150308  0  0  0.151955  0  4.163965  0  0  0.116754  0.128294  0  4.140508  0
C  C48  1  0.08661638  0.80068738  0.21406238  1  0  0.004934  0  3.670929  0  0  -0.036421  0  3.956365  0  0  -0.025778  0  3.96499  0  0  0.05062  -0.043395  0  3.949115  0
C  C49  1  0.41334544  0.69931316  0.71403997  1  0  0.004972  0  3.670503  0  0  -0.036378  0  3.955924  0  0  -0.025733  0  3.964558  0  0  0.050709  -0.043347  0  3.94867  0
C  C50  1  0.91336051  0.19931909  0.78595484  1  0  0.005115  0  3.670555  0  0  -0.036262  0  3.955971  0  0  -0.025617  0  3.964605  0  0  0.050641  -0.043231  0  3.948717  0
C  C51  1  0.58664419  0.30067833  0.28593052  1  0  0.005077  0  3.670788  0  0  -0.036228  0  3.95624  0  0  -0.025575  0  3.964868  0  0  0.050687  -0.043199  0  3.948985  0
C  C52  1  0.85029301  0.54072378  0.62389351  1  0  -0.691682  0  3.533538  0  0  -0.730971  0  3.764907  0  0  -0.74362  0  3.77249  0  0  -0.340131  -0.721989  0  3.759665  0
C  C53  1  0.64971161  0.95926813  0.12388693  1  0  -0.691748  0  3.533764  0  0  -0.731057  0  3.765098  0  0  -0.743707  0  3.77268  0  0  -0.340125  -0.722067  0  3.759866  0
C  C54  1  0.14972483  0.45926252  0.37611546  1  0  -0.69166  0  3.533751  0  0  -0.731013  0  3.765048  0  0  -0.743663  0  3.772627  0  0  -0.340183  -0.722016  0  3.759819  0
C  C55  1  0.35028664  0.04073320  0.87610738  1  0  -0.691621  0  3.533698  0  0  -0.730961  0  3.765031  0  0  -0.743612  0  3.772611  0  0  -0.340115  -0.721973  0  3.759797  0
C  C56  1  0.65677360  0.57839626  0.92552692  1  0  -0.695911  0  3.570496  0  0  -0.737026  0  3.809621  0  0  -0.749879  0  3.817883  0  0  -0.343125  -0.728056  0  3.804009  0
C  C57  1  0.84322410  0.92160412  0.42553005  1  0  -0.696006  0  3.570563  0  0  -0.7371  0  3.809681  0  0  -0.749953  0  3.817941  0  0  -0.343146  -0.728128  0  3.80407  0
C  C58  1  0.34323529  0.42161094  0.07446923  1  0  -0.695811  0  3.570499  0  0  -0.736935  0  3.809648  0  0  -0.749775  0  3.81792  0  0  -0.343068  -0.727967  0  3.804036  0
C  C59  1  0.15676851  0.07839825  0.57446884  1  0  -0.695898  0  3.570604  0  0  -0.737017  0  3.809787  0  0  -0.749861  0  3.818045  0  0  -0.343111  -0.728046  0  3.804172  0
C  C60  1  0.82915807  0.87275651  0.77636979  1  0  -0.687721  0  3.540608  0  0  -0.729647  0  3.775238  0  0  -0.742698  0  3.783866  0  0  -0.341374  -0.721282  0  3.770766  0
C  C61  1  0.67083695  0.62724165  0.27637658  1  0  -0.687848  0  3.540522  0  0  -0.729732  0  3.775198  0  0  -0.742775  0  3.783833  0  0  -0.34133  -0.721363  0  3.770731  0
C  C62  1  0.17085083  0.12723284  0.22362819  1  0  -0.687824  0  3.540629  0  0  -0.729652  0  3.775261  0  0  -0.742695  0  3.783897  0  0  -0.341307  -0.721287  0  3.770785  0
C  C63  1  0.32915712  0.37276566  0.72363147  1  0  -0.687747  0  3.540532  0  0  -0.729612  0  3.775175  0  0  -0.742657  0  3.783804  0  0  -0.341312  -0.721251  0  3.770699  0
S  S64  1  0.07491858  0.62817093  0.87425820  1  0  -0.390896  0  2.10888  0  0  -0.367258  0  2.446372  0  0  -0.385334  0  2.446048  0  0  -0.135218  -0.354214  0  2.445271  0
S  S65  1  0.42506868  0.87184837  0.37423808  1  0  -0.391094  0  2.108597  0  0  -0.36742  0  2.44611  0  0  -0.3855  0  2.44579  0  0  -0.135342  -0.354376  0  2.445009  0
S  S66  1  0.92509360  0.37183425  0.12576451  1  0  -0.391043  0  2.108635  0  0  -0.367397  0  2.446174  0  0  -0.38548  0  2.445854  0  0  -0.135322  -0.354354  0  2.445073  0
S  S67  1  0.57491777  0.12816496  0.62574065  1  0  -0.390936  0  2.108659  0  0  -0.367303  0  2.446152  0  0  -0.385378  0  2.44582  0  0  -0.135278  -0.354256  0  2.445042  0
S  S68  1  0.21085190  0.73203885  0.11416964  1  0  0.118566  0  2.487132  0  0  0.136733  0  2.803023  0  0  0.135898  0  2.8034  0  0  0.122353  0.137373  0  2.801028  0
S  S69  1  0.28912135  0.76796474  0.61414735  1  0  0.118665  0  2.487242  0  0  0.136833  0  2.803165  0  0  0.136  0  2.803538  0  0  0.12245  0.137471  0  2.80117  0
S  S70  1  0.78914166  0.26796054  0.88585399  1  0  0.118583  0  2.487521  0  0  0.13675  0  2.803429  0  0  0.135917  0  2.80381  0  0  0.122462  0.137385  0  2.801433  0
S  S71  1  0.71087285  0.23202672  0.38582314  1  0  0.118591  0  2.487194  0  0  0.13675  0  2.803086  0  0  0.135914  0  2.803462  0  0  0.1224  0.137386  0  2.801089  0
N  N72  1  0.92772229  0.75059443  0.05758768  1  0  -0.246212  0  3.013079  0  0  -0.214888  0  3.277728  0  0  -0.226491  0  3.29556  0  0  -0.210214  -0.206957  0  3.265358  0
N  N73  1  0.57225887  0.74942522  0.55757087  1  0  -0.245916  0  3.013032  0  0  -0.214572  0  3.277651  0  0  -0.226174  0  3.295485  0  0  -0.209978  -0.206643  0  3.265282  0
N  N74  1  0.07228730  0.24942367  0.94241946  1  0  -0.246219  0  3.012949  0  0  -0.214917  0  3.277642  0  0  -0.226519  0  3.295474  0  0  -0.210217  -0.206986  0  3.26527  0
N  N75  1  0.42774343  0.25058600  0.44240145  1  0  -0.246027  0  3.013248  0  0  -0.214684  0  3.277865  0  0  -0.226286  0  3.295695  0  0  -0.210111  -0.206753  0  3.265495  0
N  N76  1  0.94663930  0.80287362  0.17181188  1  0  -0.175298  0  3.236092  0  0  -0.107361  0  3.491574  0  0  -0.118692  0  3.511864  0  0  -0.192174  -0.098964  0  3.477443  0
N  N77  1  0.55333678  0.69713483  0.67180107  1  0  -0.175556  0  3.235385  0  0  -0.107603  0  3.490897  0  0  -0.118936  0  3.511179  0  0  -0.192335  -0.099207  0  3.476772  0
N  N78  1  0.05335748  0.19714062  0.82819342  1  0  -0.175436  0  3.235614  0  0  -0.107494  0  3.491125  0  0  -0.118825  0  3.511413  0  0  -0.192161  -0.099098  0  3.476994  0
N  N79  1  0.44666267  0.30286749  0.32817584  1  0  -0.175293  0  3.23603  0  0  -0.107388  0  3.491589  0  0  -0.118722  0  3.511877  0  0  -0.192185  -0.098993  0  3.47746  0
