# generated using pymatgen
data_CaH16C16(N5O3)2
_symmetry_space_group_name_H-M   'P 1'
_cell_length_a   7.53315733
_cell_length_b   15.70931119
_cell_length_c   19.92548465
_cell_angle_alpha   104.89277387
_cell_angle_beta   100.90475923
_cell_angle_gamma   103.86694472
_symmetry_Int_Tables_number   1
_chemical_formula_structural   CaH16C16(N5O3)2
_chemical_formula_sum   'Ca4 H64 C64 N40 O24'
_cell_volume   2131.88291259
_cell_formula_units_Z   4
loop_
 _symmetry_equiv_pos_site_id
 _symmetry_equiv_pos_as_xyz
  1  'x, y, z'
loop_
 _atom_site_type_symbol
 _atom_site_label
 _atom_site_symmetry_multiplicity
 _atom_site_fract_x
 _atom_site_fract_y
 _atom_site_fract_z
 _atom_site_occupancy
 _atom_site_pbe_bader_charge
 _atom_site_pbe_bader_spin_density
 _atom_site_pbe_cm5_charge
 _atom_site_pbe_ddec_charge
 _atom_site_pbe_ddec_spin_density
 _atom_site_pbe_ddec_sum_bond_order
 _atom_site_pbe_magmom
Ca  Ca0  1  0.21804465  0.45361199  0.49659155  1  1.641571  0  0.856491  1.396997  0  1.451049  0
Ca  Ca1  1  0.76783408  0.04656202  0.00348839  1  1.643395  0  0.856457  1.397553  0  1.450773  0
Ca  Ca2  1  0.78195478  0.54638672  0.50340777  1  1.641616  0  0.856513  1.39699  0  1.45113  0
Ca  Ca3  1  0.23215356  0.95343945  0.99651167  1  1.643268  0  0.856452  1.397466  0  1.450916  0
H  H4  1  0.04027441  0.55409846  0.40021164  1  0.636233  0  0.293743  0.339653  0  1.028075  0
H  H5  1  0.58565673  0.94570905  0.09965639  1  0.635771  0  0.29389  0.339732  0  1.027844  0
H  H6  1  0.95973480  0.44590510  0.59979085  1  0.635916  0  0.293755  0.339697  0  1.028028  0
H  H7  1  0.41434222  0.05429104  0.90034419  1  0.635882  0  0.29389  0.339749  0  1.027826  0
H  H8  1  0.88388522  0.45651268  0.38176330  1  0.617023  0  0.328028  0.397644  0  0.896096  0
H  H9  1  0.54519718  0.04328017  0.11817490  1  0.607803  0  0.328211  0.397073  0  0.89677  0
H  H10  1  0.11611805  0.54349225  0.61823504  1  0.616985  0  0.328003  0.397619  0  0.89608  0
H  H11  1  0.45480220  0.95672062  0.88182685  1  0.607859  0  0.328197  0.397019  0  0.896905  0
H  H12  1  0.36545327  0.35338067  0.91062446  1  0.092676  0  0.106113  0.110689  0  1.049193  0
H  H13  1  0.60234031  0.14659191  0.58913113  1  0.101685  0  0.106407  0.111293  0  1.048903  0
H  H14  1  0.63456145  0.64662083  0.08938202  1  0.0927  0  0.106118  0.110662  0  1.049168  0
H  H15  1  0.39766476  0.85341371  0.41086898  1  0.101602  0  0.106445  0.11139  0  1.048848  0
H  H16  1  0.54905704  0.20799066  0.73462440  1  0.101755  0  0.106489  0.11475  0  1.039031  0
H  H17  1  0.10634699  0.29219071  0.76556301  1  0.094576  0  0.106413  0.114807  0  1.038806  0
H  H18  1  0.45094990  0.79201359  0.26537858  1  0.101873  0  0.106466  0.114734  0  1.038958  0
H  H19  1  0.89366684  0.70780730  0.23443367  1  0.094541  0  0.106351  0.114789  0  1.038749  0
H  H20  1  0.49902618  0.07389305  0.78264920  1  0.124945  0  0.113798  0.082337  0  1.018849  0
H  H21  1  0.14215130  0.42640922  0.71767913  1  0.112752  0  0.114783  0.083567  0  1.019654  0
H  H22  1  0.50097588  0.92610773  0.21734972  1  0.124788  0  0.113814  0.082341  0  1.018851  0
H  H23  1  0.85786558  0.57359364  0.28232126  1  0.112888  0  0.114753  0.083529  0  1.019784  0
H  H24  1  0.31445378  0.21203665  0.94893520  1  0.092457  0  0.12114  0.089382  0  0.994308  0
H  H25  1  0.65386394  0.28813084  0.55105517  1  0.083388  0  0.12146  0.089851  0  0.993367  0
H  H26  1  0.68555690  0.78796276  0.05106657  1  0.092142  0  0.121125  0.08944  0  0.994238  0
H  H27  1  0.34614106  0.71187685  0.44894435  1  0.083633  0  0.121456  0.089858  0  0.993429  0
H  H28  1  0.16881724  0.13274862  0.65251667  1  0.110984  0  0.104169  0.113755  0  1.035899  0
H  H29  1  0.88435412  0.36774361  0.84768300  1  0.105736  0  0.103808  0.113091  0  1.03613  0
H  H30  1  0.83118631  0.86724802  0.34748253  1  0.110951  0  0.104138  0.113697  0  1.035972  0
H  H31  1  0.11564860  0.63224957  0.15231393  1  0.10561  0  0.103798  0.113141  0  1.036069  0
H  H32  1  0.79298130  0.48877356  0.68678183  1  0.155666  0  0.130944  0.135283  0  1.014507  0
H  H33  1  0.11753388  0.01127769  0.81329311  1  0.140326  0  0.130619  0.134228  0  1.014581  0
H  H34  1  0.20702077  0.51122723  0.31321860  1  0.155467  0  0.130944  0.135286  0  1.014483  0
H  H35  1  0.88246451  0.98872586  0.18670762  1  0.140283  0  0.130597  0.13426  0  1.014587  0
H  H36  1  0.70798158  0.58418746  0.71821933  1  0.090039  0  0.141459  0.155529  0  0.928989  0
H  H37  1  0.90575786  0.91587009  0.78181950  1  0.146844  0  0.14145  0.155214  0  0.929076  0
H  H38  1  0.29201779  0.41581332  0.28178041  1  0.090058  0  0.141473  0.15557  0  0.928964  0
H  H39  1  0.09424142  0.08413277  0.21817864  1  0.146604  0  0.14143  0.155171  0  0.92912  0
H  H40  1  0.28629017  0.96908476  0.46594726  1  0.112105  0  0.10621  0.11445  0  1.033706  0
H  H41  1  0.35213335  0.53149177  0.03422806  1  0.144319  0  0.106483  0.116132  0  1.033372  0
H  H42  1  0.71369313  0.03090979  0.53404859  1  0.112121  0  0.106225  0.114489  0  1.033674  0
H  H43  1  0.64786071  0.46850486  0.96576896  1  0.144227  0  0.106508  0.116177  0  1.033389  0
H  H44  1  0.19048224  0.25889621  0.59535398  1  0.105787  0  0.115814  0.088424  0  1.010634  0
H  H45  1  0.83702821  0.24166361  0.90490005  1  0.076272  0  0.116185  0.088951  0  1.009596  0
H  H46  1  0.80951958  0.74109766  0.40464403  1  0.10569  0  0.115788  0.088377  0  1.010541  0
H  H47  1  0.16297452  0.75832957  0.09509789  1  0.076193  0  0.116153  0.088901  0  1.009559  0
H  H48  1  0.29685418  0.09931132  0.41622964  1  0.082096  0  0.108994  0.069454  0  1.052262  0
H  H49  1  0.28263274  0.40117315  0.08388551  1  0.09899  0  0.10922  0.070327  0  1.053343  0
H  H50  1  0.70312828  0.90068186  0.58376737  1  0.082116  0  0.108932  0.069355  0  1.052259  0
H  H51  1  0.71736668  0.59882556  0.91611331  1  0.09898  0  0.109211  0.070308  0  1.053331  0
H  H52  1  0.37416209  0.77418622  0.67837969  1  0.089495  0  0.133443  0.1415  0  0.947808  0
H  H53  1  0.42310911  0.72585732  0.82148423  1  0.089412  0  0.133213  0.141832  0  0.948804  0
H  H54  1  0.62583826  0.22581181  0.32162056  1  0.089495  0  0.133441  0.14148  0  0.947834  0
H  H55  1  0.57687574  0.27414832  0.17852048  1  0.089498  0  0.133222  0.14189  0  0.948796  0
H  H56  1  0.50344250  0.79714666  0.61604375  1  0.125761  0  0.125738  0.128015  0  1.004941  0
H  H57  1  0.59150181  0.70303599  0.88405294  1  0.133807  0  0.125861  0.128995  0  1.0046  0
H  H58  1  0.49655743  0.20285067  0.38395684  1  0.125674  0  0.12572  0.127974  0  1.005006  0
H  H59  1  0.40848757  0.29696826  0.11594980  1  0.13412  0  0.125849  0.128959  0  1.00463  0
H  H60  1  0.43568529  0.33909170  0.43934195  1  0.614686  0  0.288562  0.370104  0  0.978966  0
H  H61  1  0.15724349  0.16084521  0.06050010  1  0.634783  0  0.28787  0.368405  0  0.981647  0
H  H62  1  0.56431727  0.66090770  0.56065824  1  0.614699  0  0.288592  0.370119  0  0.978949  0
H  H63  1  0.84274424  0.83915420  0.93950256  1  0.635075  0  0.287922  0.368497  0  0.98154  0
H  H64  1  0.27655346  0.27191075  0.46227129  1  0.619258  0  0.27759  0.331285  0  1.036388  0
H  H65  1  0.04297480  0.22834651  0.03767502  1  0.638427  0  0.277377  0.331198  0  1.036387  0
H  H66  1  0.72344960  0.72808728  0.53772915  1  0.619283  0  0.277584  0.331228  0  1.036462  0
H  H67  1  0.95702100  0.77165289  0.96232419  1  0.63844  0  0.277367  0.331184  0  1.036402  0
C  C68  1  0.50232905  0.37386104  0.79671431  1  0.928996  0  0.220678  0.214336  0  4.063169  0
C  C69  1  0.83213234  0.12616366  0.70320427  1  0.929276  0  0.220181  0.213454  0  4.063181  0
C  C70  1  0.49768110  0.62614183  0.20329012  1  0.929617  0  0.220758  0.214524  0  4.062972  0
C  C71  1  0.16786783  0.87384058  0.29679672  1  0.929401  0  0.22014  0.213379  0  4.063167  0
C  C72  1  0.23573988  0.68502111  0.56943407  1  1.632686  0  0.224584  0.623383  0  4.203701  0
C  C73  1  0.48178517  0.81501441  0.93034434  1  1.639248  0  0.224386  0.625842  0  4.203541  0
C  C74  1  0.76425549  0.31497760  0.43056446  1  1.633154  0  0.224682  0.623441  0  4.203537  0
C  C75  1  0.51820212  0.18498640  0.06966308  1  1.638919  0  0.224316  0.625619  0  4.203787  0
C  C76  1  0.46474502  0.29207219  0.81988236  1  -0.018878  0  0.013851  0.064385  0  4.018725  0
C  C77  1  0.85322529  0.20800477  0.68008868  1  -0.04614  0  0.014151  0.064691  0  4.015034  0
C  C78  1  0.53526913  0.70793276  0.18012277  1  -0.019513  0  0.013909  0.064332  0  4.018646  0
C  C79  1  0.14678032  0.79199739  0.31990926  1  -0.046526  0  0.014218  0.06471  0  4.014921  0
C  C80  1  0.22718792  0.96753122  0.59654184  1  0.943433  0  0.220467  0.223274  0  4.061229  0
C  C81  1  0.16395439  0.53286337  0.90351448  1  0.929952  0  0.219571  0.22357  0  4.055633  0
C  C82  1  0.77280978  0.03246472  0.40345680  1  0.943632  0  0.220463  0.223219  0  4.061204  0
C  C83  1  0.83604059  0.46713257  0.09648247  1  0.92999  0  0.219653  0.223677  0  4.055516  0
C  C84  1  0.39594968  0.29271026  0.88057961  1  0.003369  0  -0.079282  -0.166508  0  3.943419  0
C  C85  1  0.72328272  0.20734050  0.61930291  1  -0.01116  0  -0.080091  -0.167879  0  3.941499  0
C  C86  1  0.60406766  0.70729330  0.11942446  1  0.003813  0  -0.079285  -0.166403  0  3.943252  0
C  C87  1  0.27672284  0.79266374  0.38069695  1  -0.011241  0  -0.08009  -0.167864  0  3.941447  0
C  C88  1  0.49922629  0.21157802  0.78275156  1  -0.026715  0  -0.081421  -0.16449  0  3.931797  0
C  C89  1  0.00494425  0.28861110  0.71739088  1  0.003691  0  -0.081527  -0.164836  0  3.932693  0
C  C90  1  0.50078114  0.78842485  0.21725117  1  -0.026883  0  -0.081403  -0.164437  0  3.931608  0
C  C91  1  0.99506592  0.71138968  0.28260862  1  0.004253  0  -0.081506  -0.164819  0  3.932574  0
C  C92  1  0.46983545  0.13696482  0.80890611  1  0.486798  0  0.05288  0.102487  0  3.952499  0
C  C93  1  0.02386541  0.36328205  0.69131133  1  0.497767  0  0.05218  0.101028  0  3.954703  0
C  C94  1  0.53016841  0.86303666  0.19109458  1  0.486934  0  0.052857  0.102515  0  3.952461  0
C  C95  1  0.97615060  0.63671943  0.30868871  1  0.497273  0  0.052249  0.101  0  3.954622  0
C  C96  1  0.51601601  0.47812331  0.62231995  1  1.630386  0  0.217048  0.6273  0  4.209868  0
C  C97  1  0.91579076  0.02194109  0.87773463  1  1.641852  0  0.218347  0.628714  0  4.207142  0
C  C98  1  0.48396894  0.52187817  0.37768142  1  1.630684  0  0.217161  0.627492  0  4.209703  0
C  C99  1  0.08419779  0.97805969  0.12226384  1  1.641898  0  0.218399  0.628801  0  4.206991  0
C  C100  1  0.36880020  0.21434588  0.90223947  1  0.547536  0  0.058822  0.107387  0  3.945424  0
C  C101  1  0.75252703  0.28581306  0.59777320  1  0.5375  0  0.058661  0.107647  0  3.946504  0
C  C102  1  0.63120952  0.78565630  0.09776379  1  0.547821  0  0.058825  0.107314  0  3.945384  0
C  C103  1  0.24748295  0.71419394  0.40222754  1  0.538068  0  0.058516  0.107343  0  3.946554  0
C  C104  1  0.19625545  0.12298956  0.59979108  1  -0.012679  0  -0.084065  -0.167642  0  3.928748  0
C  C105  1  0.97434566  0.37752500  0.90041037  1  -0.044123  0  -0.084502  -0.168333  0  3.930581  0
C  C106  1  0.80374624  0.87700846  0.40020826  1  -0.012679  0  -0.084018  -0.167557  0  3.928651  0
C  C107  1  0.02565750  0.62246886  0.09958673  1  -0.042942  0  -0.084571  -0.168607  0  3.930505  0
C  C108  1  0.22554739  0.04033716  0.56358995  1  -0.026919  0  0.013802  0.068282  0  4.006262  0
C  C109  1  0.12246775  0.46018542  0.93658797  1  0.015324  0  0.014654  0.069395  0  4.005695  0
C  C110  1  0.77445203  0.95966155  0.43640887  1  -0.026751  0  0.013798  0.068268  0  4.006177  0
C  C111  1  0.87752815  0.53980983  0.06340890  1  0.014832  0  0.014716  0.069558  0  4.005493  0
C  C112  1  0.66718914  0.50877543  0.69468977  1  0.286223  0  -0.036681  -0.270472  0  3.843308  0
C  C113  1  0.96382619  0.99128534  0.80536052  1  0.244821  0  -0.035717  -0.269132  0  3.844127  0
C  C114  1  0.33281158  0.49122536  0.30531056  1  0.286364  0  -0.036694  -0.270564  0  3.843365  0
C  C115  1  0.03616906  0.00871752  0.19463935  1  0.245324  0  -0.03564  -0.269046  0  3.844089  0
C  C116  1  0.26241296  0.03160419  0.49621745  1  -0.041136  0  -0.081731  -0.159258  0  3.928372  0
C  C117  1  0.23544190  0.46897926  0.00398253  1  -0.084596  0  -0.082544  -0.161656  0  3.932633  0
C  C118  1  0.73758204  0.96839176  0.50378101  1  -0.041061  0  -0.081787  -0.159344  0  3.928361  0
C  C119  1  0.76455572  0.53101875  0.99601451  1  -0.08462  0  -0.082591  -0.161773  0  3.932636  0
C  C120  1  0.20807071  0.19286532  0.56809843  1  0.485529  0  0.048346  0.094191  0  3.949353  0
C  C121  1  0.94801959  0.30767510  0.93212196  1  0.517154  0  0.048885  0.09494  0  3.949208  0
C  C122  1  0.79192649  0.80713201  0.43189895  1  0.486033  0  0.048377  0.094276  0  3.949329  0
C  C123  1  0.05197910  0.69231808  0.06787670  1  0.516637  0  0.048932  0.095152  0  3.949076  0
C  C124  1  0.26945502  0.10480927  0.46866739  1  0.526878  0  0.041597  0.087675  0  3.980152  0
C  C125  1  0.19709938  0.39571444  0.03149497  1  0.514946  0  0.041588  0.086131  0  3.982186  0
C  C126  1  0.73053326  0.89518459  0.53132867  1  0.526941  0  0.041749  0.087889  0  3.980084  0
C  C127  1  0.80290005  0.60428427  0.96850435  1  0.514948  0  0.041588  0.086224  0  3.982067  0
C  C128  1  0.36065540  0.77937597  0.62386372  1  0.279852  0  -0.042432  -0.278909  0  3.873917  0
C  C129  1  0.45856087  0.72070735  0.87601854  1  0.277475  0  -0.04239  -0.272346  0  3.886367  0
C  C130  1  0.63934360  0.22062206  0.37613644  1  0.279966  0  -0.04239  -0.278779  0  3.873774  0
C  C131  1  0.54142632  0.27929552  0.12398578  1  0.277215  0  -0.042443  -0.27246  0  3.886497  0
N  N132  1  0.58956182  0.38308916  0.74488323  1  -0.578167  0  -0.183154  -0.268555  0  3.071438  0
N  N133  1  0.96179571  0.11696079  0.75512935  1  -0.582279  0  -0.183354  -0.268237  0  3.070503  0
N  N134  1  0.41044520  0.61691302  0.25512034  1  -0.578231  0  -0.183246  -0.268731  0  3.071459  0
N  N135  1  0.03820266  0.88304276  0.24486936  1  -0.58223  0  -0.183325  -0.268173  0  3.070437  0
N  N136  1  0.59685294  0.46841276  0.74563082  1  -0.320285  0  0.004575  0.306109  0  3.8514  0
N  N137  1  0.88298609  0.03164245  0.75438136  1  -0.329808  0  0.003925  0.305687  0  3.851805  0
N  N138  1  0.40314464  0.53158734  0.25436916  1  -0.320301  0  0.00455  0.306077  0  3.851564  0
N  N139  1  0.11701049  0.96836040  0.24561710  1  -0.33009  0  0.003956  0.305716  0  3.851856  0
N  N140  1  0.28538285  0.85560491  0.62230004  1  -0.314561  0  0.000815  0.303833  0  3.825839  0
N  N141  1  0.30857115  0.64451088  0.87755473  1  -0.302991  0  0.000667  0.274723  0  3.876123  0
N  N142  1  0.71461844  0.14439243  0.37770064  1  -0.315027  0  0.000802  0.303832  0  3.82585  0
N  N143  1  0.69141834  0.35548922  0.12244669  1  -0.302831  0  0.000736  0.274881  0  3.876234  0
N  N144  1  0.45795465  0.45149703  0.82661084  1  -0.589812  0  -0.192416  -0.232957  0  3.231815  0
N  N145  1  0.68027330  0.04849602  0.67324690  1  -0.607262  0  -0.191673  -0.232357  0  3.230967  0
N  N146  1  0.54205009  0.54850584  0.17339170  1  -0.589835  0  -0.192468  -0.233012  0  3.231794  0
N  N147  1  0.31973138  0.95150683  0.32675062  1  -0.607643  0  -0.191673  -0.232289  0  3.231047  0
N  N148  1  0.40724147  0.13830848  0.86789512  1  -1.263399  0  -0.297301  -0.225369  0  3.41332  0
N  N149  1  0.90108229  0.36192539  0.63226601  1  -1.224115  0  -0.297525  -0.22525  0  3.414567  0
N  N150  1  0.59276373  0.86169299  0.13210567  1  -1.26366  0  -0.2973  -0.225411  0  3.413309  0
N  N151  1  0.09893362  0.63808024  0.36773738  1  -1.224536  0  -0.29745  -0.22497  0  3.414203  0
N  N152  1  0.29493194  0.89711564  0.57248595  1  -0.599175  0  -0.185537  -0.271992  0  3.076121  0
N  N153  1  0.32632548  0.60315409  0.92746721  1  -0.607592  0  -0.184878  -0.262457  0  3.085118  0
N  N154  1  0.70506668  0.10287961  0.42751212  1  -0.598853  0  -0.185479  -0.271937  0  3.076193  0
N  N155  1  0.67366585  0.39684462  0.07253304  1  -0.607677  0  -0.18498  -0.262621  0  3.085115  0
N  N156  1  0.51800375  0.51091542  0.79348053  1  -0.086848  0  -0.070692  -0.108918  0  3.131919  0
N  N157  1  0.71391591  0.98910141  0.70642943  1  -0.066836  0  -0.070342  -0.108346  0  3.131125  0
N  N158  1  0.48199783  0.48908675  0.20652014  1  -0.086861  0  -0.070629  -0.108845  0  3.131972  0
N  N159  1  0.28608294  0.01090075  0.29356753  1  -0.066468  0  -0.070426  -0.108533  0  3.131304  0
N  N160  1  0.17616689  0.96649003  0.65854756  1  -0.592335  0  -0.196873  -0.242166  0  3.230152  0
N  N161  1  0.05193586  0.53384211  0.84148417  1  -0.567673  0  -0.195809  -0.240301  0  3.229031  0
N  N162  1  0.82383124  0.03350661  0.34145176  1  -0.592456  0  -0.196871  -0.242076  0  3.230072  0
N  N163  1  0.94805778  0.46615384  0.15851369  1  -0.567557  0  -0.195783  -0.240288  0  3.228918  0
N  N164  1  0.24478401  0.18461963  0.50363996  1  -1.228908  0  -0.302127  -0.235267  0  3.371531  0
N  N165  1  0.05760444  0.31591132  0.99655384  1  -1.228752  0  -0.302424  -0.234286  0  3.369701  0
N  N166  1  0.75521103  0.81537424  0.49635707  1  -1.229494  0  -0.302211  -0.235406  0  3.371589  0
N  N167  1  0.94240169  0.68408947  0.00344687  1  -1.22866  0  -0.302428  -0.234438  0  3.36965  0
N  N168  1  0.21422310  0.89541663  0.67454576  1  -0.064626  0  -0.078344  -0.116903  0  3.097086  0
N  N169  1  0.14524115  0.60475967  0.82536421  1  -0.080763  0  -0.079109  -0.108374  0  3.110378  0
N  N170  1  0.78577861  0.10458140  0.32545459  1  -0.064558  0  -0.078389  -0.117013  0  3.097091  0
N  N171  1  0.85475197  0.39523973  0.17463681  1  -0.081083  0  -0.07914  -0.108423  0  3.110522  0
O  O172  1  0.06562351  0.67552654  0.54186257  1  -1.202389  0  -0.344787  -0.571196  0  2.192043  0
O  O173  1  0.34840341  0.82435504  0.95776533  1  -1.198739  0  -0.344897  -0.572879  0  2.191563  0
O  O174  1  0.93437693  0.32446942  0.45813928  1  -1.202367  0  -0.344857  -0.571307  0  2.191975  0
O  O175  1  0.65157891  0.17564437  0.04223745  1  -1.198374  0  -0.34483  -0.572745  0  2.191401  0
O  O176  1  0.57651832  0.49184975  0.56972572  1  -1.226042  0  -0.369828  -0.631979  0  2.271615  0
O  O177  1  0.01516947  0.00812753  0.93028084  1  -1.2317  0  -0.371262  -0.633388  0  2.269107  0
O  O178  1  0.42349895  0.50815379  0.43027232  1  -1.226281  0  -0.369781  -0.631881  0  2.271937  0
O  O179  1  0.98482270  0.99187256  0.06971775  1  -1.231697  0  -0.371296  -0.633452  0  2.269133  0
O  O180  1  0.99491349  0.49971766  0.41909920  1  -1.291447  0  -0.615838  -0.840327  0  2.172831  0
O  O181  1  0.57570955  0.00012262  0.08081691  1  -1.282192  0  -0.616148  -0.839819  0  2.174171  0
O  O182  1  0.00508992  0.50028312  0.58090031  1  -1.291134  0  -0.615844  -0.840345  0  2.172791  0
O  O183  1  0.42428534  0.99987748  0.91918337  1  -1.282382  0  -0.616127  -0.839749  0  2.174338  0
O  O184  1  0.32148237  0.62360623  0.56053278  1  -1.202451  0  -0.337522  -0.613829  0  2.215014  0
O  O185  1  0.63776076  0.87655314  0.93940425  1  -1.217384  0  -0.337143  -0.613773  0  2.215712  0
O  O186  1  0.67851661  0.37639179  0.43946537  1  -1.202949  0  -0.337562  -0.613832  0  2.214933  0
O  O187  1  0.36222920  0.12344766  0.06060135  1  -1.217383  0  -0.337081  -0.613591  0  2.216009  0
O  O188  1  0.34374397  0.44426064  0.61929752  1  -1.203489  0  -0.350345  -0.612146  0  2.15981  0
O  O189  1  0.78049404  0.05588267  0.88080702  1  -1.205325  0  -0.350774  -0.612751  0  2.159456  0
O  O190  1  0.65626930  0.55574082  0.38069881  1  -1.203511  0  -0.350522  -0.612401  0  2.159256  0
O  O191  1  0.21949062  0.94411188  0.11918942  1  -1.205578  0  -0.350805  -0.612779  0  2.159341  0
O  O192  1  0.30016599  0.32179634  0.43912562  1  -1.275811  0  -0.645699  -0.823121  0  2.0567  0
O  O193  1  0.03934942  0.17828943  0.06065960  1  -1.315961  0  -0.6449  -0.821564  0  2.059144  0
O  O194  1  0.69983615  0.67820238  0.56087489  1  -1.275911  0  -0.645736  -0.823074  0  2.056773  0
O  O195  1  0.96063736  0.82171066  0.93934011  1  -1.31621  0  -0.644934  -0.821605  0  2.059094  0
