# generated using pymatgen
data_CuH16C24N3O5
_symmetry_space_group_name_H-M   'P 1'
_cell_length_a   9.47799387
_cell_length_b   9.47794556
_cell_length_c   11.87743877
_cell_angle_alpha   81.58029018
_cell_angle_beta   81.58035288
_cell_angle_gamma   82.59170101
_symmetry_Int_Tables_number   1
_chemical_formula_structural   CuH16C24N3O5
_chemical_formula_sum   'Cu2 H32 C48 N6 O10'
_cell_volume   1037.77824726
_cell_formula_units_Z   2
loop_
 _symmetry_equiv_pos_site_id
 _symmetry_equiv_pos_as_xyz
  1  'x, y, z'
loop_
 _atom_site_type_symbol
 _atom_site_label
 _atom_site_symmetry_multiplicity
 _atom_site_fract_x
 _atom_site_fract_y
 _atom_site_fract_z
 _atom_site_occupancy
 _atom_site_hle17_bader_spin_density
 _atom_site_hle17_ddec_charge
 _atom_site_hle17_ddec_spin_density
 _atom_site_hle17_ddec_sum_bond_order
 _atom_site_hle17_magmom
 _atom_site_hse06_10hf_bader_spin_density
 _atom_site_hse06_10hf_ddec_charge
 _atom_site_hse06_10hf_ddec_spin_density
 _atom_site_hse06_10hf_ddec_sum_bond_order
 _atom_site_hse06_10hf_magmom
 _atom_site_hse06_bader_spin_density
 _atom_site_hse06_ddec_charge
 _atom_site_hse06_ddec_spin_density
 _atom_site_hse06_ddec_sum_bond_order
 _atom_site_hse06_magmom
 _atom_site_pbe_bader_spin_density
 _atom_site_pbe_cm5_charge
 _atom_site_pbe_ddec_charge
 _atom_site_pbe_ddec_spin_density
 _atom_site_pbe_ddec_sum_bond_order
 _atom_site_pbe_magmom
Cu  Cu0  1  0.88839993  0.11159863  0.75000108  1  0  0.486114  0  1.748639  0  0  0.36063  0  2.204784  0  0  0.367009  0  2.157737  0  0  0.534289  0.359162  0  2.234225  0
Cu  Cu1  1  0.11159454  0.88840489  0.25000099  1  0  0.486126  0  1.748511  0  0  0.360645  0  2.204627  0  0  0.366987  0  2.157533  0  0  0.534294  0.359184  0  2.234096  0
H  H2  1  0.75011528  0.05842378  0.93507352  1  0  0.087161  0  0.976428  0  0  0.093683  0  1.051591  0  0  0.100299  0  1.043823  0  0  0.09429  0.088688  0  1.057451  0
H  H3  1  0.94157690  0.24988280  0.56492843  1  0  0.087157  0  0.976443  0  0  0.093705  0  1.051578  0  0  0.100321  0  1.04381  0  0  0.094289  0.088711  0  1.057436  0
H  H4  1  0.24988143  0.94157864  0.06492504  1  0  0.087192  0  0.97637  0  0  0.093716  0  1.051525  0  0  0.100331  0  1.043758  0  0  0.094302  0.088723  0  1.057391  0
H  H5  1  0.05842206  0.75011854  0.43507336  1  0  0.087175  0  0.976376  0  0  0.093697  0  1.051539  0  0  0.100312  0  1.043772  0  0  0.094295  0.088702  0  1.057403  0
H  H6  1  0.36180267  0.90777334  0.86854810  1  0  0.116718  0  0.946927  0  0  0.119051  0  1.016794  0  0  0.123478  0  1.013447  0  0  0.108873  0.115853  0  1.019282  0
H  H7  1  0.09222933  0.63819707  0.63145074  1  0  0.116712  0  0.946921  0  0  0.119035  0  1.016793  0  0  0.12346  0  1.013447  0  0  0.108867  0.115837  0  1.019277  0
H  H8  1  0.63819191  0.09222910  0.13144986  1  0  0.116696  0  0.946988  0  0  0.119044  0  1.016828  0  0  0.12347  0  1.01348  0  0  0.108883  0.115846  0  1.019313  0
H  H9  1  0.90777080  0.36180318  0.36855189  1  0  0.116672  0  0.946997  0  0  0.119034  0  1.01683  0  0  0.123462  0  1.013482  0  0  0.108877  0.115837  0  1.019316  0
H  H10  1  0.83927888  0.99610447  0.53510060  1  0  0.137438  0  0.951473  0  0  0.145796  0  1.010801  0  0  0.149319  0  1.00843  0  0  0.125647  0.143195  0  1.012627  0
H  H11  1  0.00389535  0.16071788  0.96490150  1  0  0.137443  0  0.95145  0  0  0.145836  0  1.010734  0  0  0.149361  0  1.008358  0  0  0.12564  0.143232  0  1.012559  0
H  H12  1  0.16071879  0.00389901  0.46490024  1  0  0.137452  0  0.951504  0  0  0.145797  0  1.010852  0  0  0.149316  0  1.008491  0  0  0.125676  0.143196  0  1.012676  0
H  H13  1  0.99610179  0.83928026  0.03510089  1  0  0.137428  0  0.951531  0  0  0.145773  0  1.010875  0  0  0.149292  0  1.008515  0  0  0.125667  0.143174  0  1.0127  0
H  H14  1  0.41932930  0.72981152  0.62775747  1  0  0.110196  0  0.964796  0  0  0.116955  0  1.030589  0  0  0.121086  0  1.026954  0  0  0.103188  0.11374  0  1.033734  0
H  H15  1  0.27018996  0.58066922  0.87224337  1  0  0.110177  0  0.964755  0  0  0.116948  0  1.030546  0  0  0.121079  0  1.026908  0  0  0.103172  0.113733  0  1.033692  0
H  H16  1  0.58067211  0.27018657  0.37224189  1  0  0.110182  0  0.964724  0  0  0.116936  0  1.030538  0  0  0.121068  0  1.0269  0  0  0.103176  0.113719  0  1.033684  0
H  H17  1  0.72981390  0.41932563  0.12775524  1  0  0.110203  0  0.964753  0  0  0.116933  0  1.030586  0  0  0.121063  0  1.026952  0  0  0.103186  0.113716  0  1.033731  0
H  H18  1  0.34831950  0.60775847  0.47756557  1  0  0.085729  0  0.961777  0  0  0.098915  0  1.017324  0  0  0.100506  0  1.018489  0  0  0.099288  0.097955  0  1.016236  0
H  H19  1  0.39224442  0.65168106  0.02243425  1  0  0.085722  0  0.961764  0  0  0.098896  0  1.017325  0  0  0.100487  0  1.018491  0  0  0.099302  0.097937  0  1.01624  0
H  H20  1  0.65167786  0.39223751  0.52243452  1  0  0.085714  0  0.961876  0  0  0.098861  0  1.017465  0  0  0.100452  0  1.018631  0  0  0.099286  0.097904  0  1.016375  0
H  H21  1  0.60776296  0.34832125  0.97756139  1  0  0.085717  0  0.961879  0  0  0.098926  0  1.017403  0  0  0.100518  0  1.018567  0  0  0.099325  0.097964  0  1.016321  0
H  H22  1  0.47822418  0.63779927  0.27834681  1  0  0.078603  0  0.979751  0  0  0.092327  0  1.038367  0  0  0.095028  0  1.036634  0  0  0.096732  0.090168  0  1.04001  0
H  H23  1  0.36220035  0.52177645  0.22165423  1  0  0.078608  0  0.979724  0  0  0.092333  0  1.038341  0  0  0.095034  0  1.036609  0  0  0.096743  0.090174  0  1.039984  0
H  H24  1  0.52177530  0.36219669  0.72165050  1  0  0.078512  0  0.979729  0  0  0.092225  0  1.038375  0  0  0.094925  0  1.036645  0  0  0.096686  0.090059  0  1.040028  0
H  H25  1  0.63780245  0.47822914  0.77834661  1  0  0.078553  0  0.979755  0  0  0.092273  0  1.03838  0  0  0.094979  0  1.036642  0  0  0.096729  0.090118  0  1.040019  0
H  H26  1  0.68091587  0.78652432  0.23148602  1  0  0.082245  0  0.967463  0  0  0.092553  0  1.030257  0  0  0.094341  0  1.031311  0  0  0.094934  0.09109  0  1.029902  0
H  H27  1  0.21347492  0.31908470  0.26851508  1  0  0.082287  0  0.96744  0  0  0.092574  0  1.030253  0  0  0.094361  0  1.031309  0  0  0.094929  0.09111  0  1.029901  0
H  H28  1  0.31908116  0.21347488  0.76851372  1  0  0.082357  0  0.967392  0  0  0.092649  0  1.030197  0  0  0.094436  0  1.031251  0  0  0.094964  0.091183  0  1.029846  0
H  H29  1  0.78652552  0.68092305  0.73148326  1  0  0.082295  0  0.967387  0  0  0.092583  0  1.030207  0  0  0.09437  0  1.031264  0  0  0.094919  0.091117  0  1.029857  0
H  H30  1  0.75816527  0.90237046  0.38308347  1  0  0.09575  0  0.985248  0  0  0.104347  0  1.050628  0  0  0.106941  0  1.050022  0  0  0.09785  0.102477  0  1.050849  0
H  H31  1  0.09762970  0.24183370  0.11691855  1  0  0.095902  0  0.98515  0  0  0.104407  0  1.050628  0  0  0.107004  0  1.05001  0  0  0.097886  0.102537  0  1.050851  0
H  H32  1  0.24183816  0.09762868  0.61691384  1  0  0.095856  0  0.985173  0  0  0.104421  0  1.050592  0  0  0.107026  0  1.049954  0  0  0.097883  0.102544  0  1.050829  0
H  H33  1  0.90237182  0.75816332  0.88308598  1  0  0.095914  0  0.985107  0  0  0.104448  0  1.050568  0  0  0.107053  0  1.04993  0  0  0.097898  0.102573  0  1.050806  0
C  C34  1  0.63989432  0.03387111  0.96329865  1  0  -0.075765  0  3.724229  0  0  -0.094701  0  3.971076  0  0  -0.09607  0  3.987836  0  0  -0.078847  -0.093568  0  3.959795  0
C  C35  1  0.96612758  0.36010344  0.53670188  1  0  -0.0758  0  3.724248  0  0  -0.094773  0  3.971095  0  0  -0.096141  0  3.987851  0  0  -0.078843  -0.09364  0  3.959815  0
C  C36  1  0.36010026  0.96613133  0.03670353  1  0  -0.075856  0  3.724283  0  0  -0.094807  0  3.971127  0  0  -0.096173  0  3.987874  0  0  -0.078878  -0.093678  0  3.959853  0
C  C37  1  0.03386924  0.63989791  0.46329847  1  0  -0.075805  0  3.724253  0  0  -0.09476  0  3.971087  0  0  -0.096124  0  3.987835  0  0  -0.078848  -0.093628  0  3.959807  0
C  C38  1  0.42253760  0.94768815  0.92607730  1  0  -0.073734  0  3.696735  0  0  -0.096636  0  3.94723  0  0  -0.096723  0  3.964251  0  0  -0.079674  -0.096645  0  3.935997  0
C  C39  1  0.05231190  0.57745994  0.57392464  1  0  -0.073748  0  3.696791  0  0  -0.096636  0  3.947278  0  0  -0.096725  0  3.964299  0  0  -0.079708  -0.096649  0  3.936044  0
C  C40  1  0.57745601  0.05231324  0.07392344  1  0  -0.073752  0  3.696847  0  0  -0.096662  0  3.947319  0  0  -0.096757  0  3.96435  0  0  -0.079702  -0.096674  0  3.936081  0
C  C41  1  0.94768588  0.42254247  0.42607548  1  0  -0.073707  0  3.696749  0  0  -0.096636  0  3.947226  0  0  -0.096729  0  3.964253  0  0  -0.079714  -0.096648  0  3.935991  0
C  C42  1  0.56347760  0.98211011  0.88759269  1  0  -0.022765  0  3.821231  0  0  -0.007739  0  4.05601  0  0  -0.009884  0  4.07752  0  0  -0.010475  -0.006708  0  4.041543  0
C  C43  1  0.01789002  0.43652164  0.61240737  1  0  -0.022737  0  3.8213  0  0  -0.007697  0  4.056038  0  0  -0.009838  0  4.077547  0  0  -0.01045  -0.006666  0  4.041568  0
C  C44  1  0.43651922  0.01789124  0.11240683  1  0  -0.022702  0  3.821379  0  0  -0.007643  0  4.056091  0  0  -0.009778  0  4.077583  0  0  -0.010501  -0.006611  0  4.041623  0
C  C45  1  0.98211000  0.56347968  0.38759262  1  0  -0.02273  0  3.821296  0  0  -0.007681  0  4.056006  0  0  -0.009821  0  4.0775  0  0  -0.010486  -0.006649  0  4.041537  0
C  C46  1  0.62677996  0.96519202  0.77158044  1  0  0.367682  0  3.706271  0  0  0.331635  0  3.976863  0  0  0.351011  0  3.985014  0  0  0.216006  0.319105  0  3.971067  0
C  C47  1  0.03480586  0.37321936  0.72841988  1  0  0.367706  0  3.706144  0  0  0.331683  0  3.976697  0  0  0.351048  0  3.984865  0  0  0.216028  0.319149  0  3.970897  0
C  C48  1  0.37321921  0.03480716  0.22841653  1  0  0.367493  0  3.706386  0  0  0.331469  0  3.976937  0  0  0.350835  0  3.985098  0  0  0.215969  0.318936  0  3.971143  0
C  C49  1  0.96519128  0.62677878  0.27158334  1  0  0.367495  0  3.706508  0  0  0.331488  0  3.977024  0  0  0.350862  0  3.985171  0  0  0.215981  0.318961  0  3.971231  0
C  C50  1  0.75420250  0.96905785  0.60337604  1  0  -0.048277  0  3.662612  0  0  -0.088484  0  3.927801  0  0  -0.089496  0  3.945813  0  0  -0.000802  -0.087387  0  3.915864  0
C  C51  1  0.03094323  0.24579413  0.89662760  1  0  -0.04838  0  3.662536  0  0  -0.088627  0  3.927692  0  0  -0.08964  0  3.945705  0  0  -0.000842  -0.087524  0  3.91575  0
C  C52  1  0.24579656  0.03094241  0.39662502  1  0  -0.048384  0  3.662733  0  0  -0.088627  0  3.927923  0  0  -0.089637  0  3.945928  0  0  -0.000853  -0.087531  0  3.915985  0
C  C53  1  0.96905926  0.75420395  0.10337584  1  0  -0.048376  0  3.662788  0  0  -0.088611  0  3.927988  0  0  -0.089623  0  3.945994  0  0  -0.00087  -0.087513  0  3.916059  0
C  C54  1  0.64074091  0.89367107  0.60164670  1  0  0.183883  0  3.712836  0  0  0.164663  0  3.98117  0  0  0.171813  0  3.998993  0  0  0.086622  0.159497  0  3.969075  0
C  C55  1  0.10632823  0.35925640  0.89835539  1  0  0.183939  0  3.712771  0  0  0.164737  0  3.981103  0  0  0.171887  0  3.998928  0  0  0.086626  0.159567  0  3.969009  0
C  C56  1  0.35925751  0.10632490  0.39835327  1  0  0.183991  0  3.712718  0  0  0.164887  0  3.980918  0  0  0.17204  0  3.998743  0  0  0.086705  0.159719  0  3.968818  0
C  C57  1  0.89367542  0.64074060  0.10164468  1  0  0.183966  0  3.712634  0  0  0.164836  0  3.98087  0  0  0.171991  0  3.998694  0  0  0.086711  0.159671  0  3.968774  0
C  C58  1  0.59528940  0.82192873  0.51581596  1  0  0.006525  0  3.854612  0  0  0.023962  0  4.089099  0  0  0.021968  0  4.1141  0  0  -0.016372  0.025666  0  4.071269  0
C  C59  1  0.17807281  0.40470714  0.98418427  1  0  0.006542  0  3.854576  0  0  0.023984  0  4.089035  0  0  0.021992  0  4.114038  0  0  -0.016345  0.02569  0  4.071204  0
C  C60  1  0.40471031  0.17806509  0.48418579  1  0  0.006519  0  3.854331  0  0  0.023944  0  4.088789  0  0  0.021949  0  4.113794  0  0  -0.016365  0.025649  0  4.070949  0
C  C61  1  0.82193415  0.59528874  0.01581217  1  0  0.00649  0  3.854377  0  0  0.023899  0  4.088843  0  0  0.021905  0  4.113849  0  0  -0.016398  0.025605  0  4.07101  0
C  C62  1  0.47911575  0.73904795  0.54197074  1  0  -0.093707  0  3.708056  0  0  -0.117878  0  3.954768  0  0  -0.119422  0  3.97433  0  0  -0.089558  -0.117368  0  3.942026  0
C  C63  1  0.26095357  0.52088271  0.95803011  1  0  -0.09383  0  3.707944  0  0  -0.118013  0  3.954676  0  0  -0.119559  0  3.974241  0  0  -0.089632  -0.117502  0  3.941928  0
C  C64  1  0.52088342  0.26095123  0.45803044  1  0  -0.09383  0  3.707657  0  0  -0.117998  0  3.954368  0  0  -0.119546  0  3.973933  0  0  -0.089602  -0.11749  0  3.941629  0
C  C65  1  0.73904784  0.47911538  0.04196589  1  0  -0.093911  0  3.707887  0  0  -0.118056  0  3.954619  0  0  -0.119604  0  3.974184  0  0  -0.089623  -0.117546  0  3.941874  0
C  C66  1  0.43785969  0.67262025  0.45670766  1  0  -0.070273  0  3.789487  0  0  -0.078645  0  4.03567  0  0  -0.081374  0  4.059402  0  0  -0.093801  -0.077222  0  4.019701  0
C  C67  1  0.32738066  0.56214291  0.04329299  1  0  -0.070192  0  3.789447  0  0  -0.078552  0  4.035629  0  0  -0.081282  0  4.05936  0  0  -0.093784  -0.077131  0  4.019665  0
C  C68  1  0.56214482  0.32737888  0.54329206  1  0  -0.07013  0  3.789397  0  0  -0.078475  0  4.035595  0  0  -0.081201  0  4.059321  0  0  -0.09375  -0.077057  0  4.019628  0
C  C69  1  0.67262203  0.43785302  0.95670395  1  0  -0.070039  0  3.789524  0  0  -0.078429  0  4.035667  0  0  -0.081156  0  4.059394  0  0  -0.093794  -0.07701  0  4.019703  0
C  C70  1  0.51080679  0.68874394  0.34533091  1  0  -0.066128  0  3.7635  0  0  -0.083683  0  4.014384  0  0  -0.085286  0  4.035568  0  0  -0.091923  -0.082479  0  4.000382  0
C  C71  1  0.31125758  0.48919558  0.15466886  1  0  -0.066072  0  3.763368  0  0  -0.08363  0  4.014248  0  0  -0.08523  0  4.035431  0  0  -0.09191  -0.082426  0  4.000247  0
C  C72  1  0.48919728  0.31125948  0.65466414  1  0  -0.065935  0  3.763238  0  0  -0.083474  0  4.014088  0  0  -0.085072  0  4.035271  0  0  -0.09188  -0.082264  0  4.000093  0
C  C73  1  0.68874372  0.51080358  0.84533291  1  0  -0.066055  0  3.763374  0  0  -0.083614  0  4.014264  0  0  -0.085217  0  4.035442  0  0  -0.09191  -0.082406  0  4.000263  0
C  C74  1  0.62573091  0.77170933  0.31894123  1  0  -0.070428  0  3.781469  0  0  -0.086663  0  4.03848  0  0  -0.088985  0  4.06115  0  0  -0.101751  -0.085065  0  4.02318  0
C  C75  1  0.22829411  0.37426698  0.18105800  1  0  -0.070543  0  3.781469  0  0  -0.086754  0  4.038463  0  0  -0.089082  0  4.061137  0  0  -0.101758  -0.085156  0  4.023164  0
C  C76  1  0.37427360  0.22828979  0.68105596  1  0  -0.07075  0  3.781481  0  0  -0.086972  0  4.038493  0  0  -0.089301  0  4.061168  0  0  -0.101835  -0.085371  0  4.02319  0
C  C77  1  0.77170944  0.62573109  0.81894363  1  0  -0.070615  0  3.781422  0  0  -0.086829  0  4.038428  0  0  -0.089158  0  4.061105  0  0  -0.101755  -0.085229  0  4.023129  0
C  C78  1  0.66870604  0.83741834  0.40354088  1  0  -0.09436  0  3.711799  0  0  -0.117034  0  3.961056  0  0  -0.119766  0  3.983362  0  0  -0.092663  -0.114517  0  3.944714  0
C  C79  1  0.16258099  0.33129224  0.09646047  1  0  -0.094456  0  3.711867  0  0  -0.117063  0  3.961115  0  0  -0.119793  0  3.983424  0  0  -0.092684  -0.114548  0  3.944775  0
C  C80  1  0.33129334  0.16257870  0.59646136  1  0  -0.094347  0  3.711817  0  0  -0.117011  0  3.961063  0  0  -0.119739  0  3.983374  0  0  -0.092669  -0.114495  0  3.944714  0
C  C81  1  0.83742459  0.66870689  0.90353912  1  0  -0.094391  0  3.711768  0  0  -0.117021  0  3.961016  0  0  -0.119752  0  3.983327  0  0  -0.092651  -0.114508  0  3.944672  0
N  N82  1  0.74424967  0.01332219  0.71092890  1  0  -0.383587  0  3.420086  0  0  -0.316196  0  3.740464  0  0  -0.328668  0  3.744018  0  0  -0.393707  -0.308226  0  3.737337  0
N  N83  1  0.98667850  0.25574838  0.78907390  1  0  -0.383602  0  3.41996  0  0  -0.31619  0  3.740315  0  0  -0.328661  0  3.743872  0  0  -0.393703  -0.308218  0  3.737184  0
N  N84  1  0.25575014  0.98668128  0.28907086  1  0  -0.38353  0  3.420042  0  0  -0.316133  0  3.7404  0  0  -0.32859  0  3.743915  0  0  -0.393736  -0.308164  0  3.737287  0
N  N85  1  0.01331897  0.74424653  0.21093050  1  0  -0.383497  0  3.420162  0  0  -0.316114  0  3.740504  0  0  -0.328572  0  3.744016  0  0  -0.393716  -0.308157  0  3.737403  0
N  N86  1  0.11099612  0.88900389  0.75000081  1  0  0.686672  0  4.137566  0  0  0.713522  0  4.434366  0  0  0.741793  0  4.440399  0  0  0.090326  0.696548  0  4.429228  0
N  N87  1  0.88899931  0.11100069  0.25000018  1  0  0.686737  0  4.137747  0  0  0.713615  0  4.434491  0  0  0.741882  0  4.440516  0  0  0.090342  0.696636  0  4.429357  0
O  O88  1  0.56005117  0.89154947  0.70868084  1  0  -0.234979  0  2.362322  0  0  -0.159049  0  2.580159  0  0  -0.176872  0  2.586136  0  0  -0.09612  -0.147073  0  2.576  0
O  O89  1  0.10845188  0.43994850  0.79131903  1  0  -0.234965  0  2.362212  0  0  -0.159075  0  2.580064  0  0  -0.176895  0  2.586048  0  0  -0.096125  -0.147099  0  2.575903  0
O  O90  1  0.43994757  0.10844328  0.29131694  1  0  -0.234879  0  2.362275  0  0  -0.159027  0  2.580112  0  0  -0.17685  0  2.586098  0  0  -0.096086  -0.14705  0  2.575951  0
O  O91  1  0.89155690  0.56005059  0.20868271  1  0  -0.234866  0  2.362269  0  0  -0.15899  0  2.580091  0  0  -0.176814  0  2.586071  0  0  -0.096108  -0.147014  0  2.575931  0
O  O92  1  0.04770953  0.93138316  0.84411180  1  0  -0.489573  0  1.786562  0  0  -0.462929  0  2.014137  0  0  -0.479388  0  2.004906  0  0  -0.205987  -0.452347  0  2.01997  0
O  O93  1  0.06861565  0.95229004  0.65588916  1  0  -0.489596  0  1.786579  0  0  -0.462916  0  2.014104  0  0  -0.479372  0  2.00487  0  0  -0.205982  -0.452332  0  2.019936  0
O  O94  1  0.95228302  0.06861824  0.15589411  1  0  -0.489647  0  1.786751  0  0  -0.462973  0  2.014263  0  0  -0.479418  0  2.005018  0  0  -0.205974  -0.452387  0  2.0201  0
O  O95  1  0.93138340  0.04772093  0.34410644  1  0  -0.48963  0  1.786728  0  0  -0.462987  0  2.014271  0  0  -0.479434  0  2.005025  0  0  -0.206002  -0.452402  0  2.020107  0
O  O96  1  0.21077414  0.78922986  0.74999951  1  0  -0.429387  0  1.756843  0  0  -0.422582  0  1.966898  0  0  -0.436458  0  1.96046  0  0  -0.168042  -0.413282  0  1.970832  0
O  O97  1  0.78922449  0.21077469  0.25000110  1  0  -0.4294  0  1.756809  0  0  -0.422599  0  1.966846  0  0  -0.436476  0  1.960406  0  0  -0.168087  -0.413296  0  1.970777  0
