# generated using pymatgen
data_Gd2H20C28N2O17
_symmetry_space_group_name_H-M   'P 1'
_cell_length_a   10.23634291
_cell_length_b   12.16337623
_cell_length_c   13.05850000
_cell_angle_alpha   74.04634143
_cell_angle_beta   75.48173324
_cell_angle_gamma   70.92475480
_symmetry_Int_Tables_number   1
_chemical_formula_structural   Gd2H20C28N2O17
_chemical_formula_sum   'Gd4 H40 C56 N4 O34'
_cell_volume   1454.09839412
_cell_formula_units_Z   2
loop_
 _symmetry_equiv_pos_site_id
 _symmetry_equiv_pos_as_xyz
  1  'x, y, z'
loop_
 _atom_site_type_symbol
 _atom_site_label
 _atom_site_symmetry_multiplicity
 _atom_site_fract_x
 _atom_site_fract_y
 _atom_site_fract_z
 _atom_site_occupancy
 _atom_site_hle17_bader_spin_density
 _atom_site_hle17_ddec_charge
 _atom_site_hle17_ddec_spin_density
 _atom_site_hle17_ddec_sum_bond_order
 _atom_site_hle17_magmom
 _atom_site_hse06_10hf_bader_spin_density
 _atom_site_hse06_10hf_ddec_charge
 _atom_site_hse06_10hf_ddec_spin_density
 _atom_site_hse06_10hf_ddec_sum_bond_order
 _atom_site_hse06_10hf_magmom
 _atom_site_hse06_bader_spin_density
 _atom_site_hse06_ddec_charge
 _atom_site_hse06_ddec_spin_density
 _atom_site_hse06_ddec_sum_bond_order
 _atom_site_hse06_magmom
 _atom_site_pbe_bader_charge
 _atom_site_pbe_bader_spin_density
 _atom_site_pbe_cm5_charge
 _atom_site_pbe_ddec_charge
 _atom_site_pbe_ddec_spin_density
 _atom_site_pbe_ddec_sum_bond_order
 _atom_site_pbe_magmom
Gd  Gd0  1  0.79749146  0.78233865  0.89690904  1  0  2.160433  0  1.796532  0  0  2.0611  0  2.172132  0  0  2.122498  0  2.105601  0  2.183412  0  1.451262  2.0141  0  2.224522  0
Gd  Gd1  1  0.20251086  0.21766064  0.10308931  1  0  2.160369  0  1.796696  0  0  2.061076  0  2.172244  0  0  2.122489  0  2.105689  0  2.183406  0  1.451261  2.014073  0  2.224639  0
Gd  Gd2  1  0.19272327  0.71742980  0.05125537  1  0  2.169649  0  1.770537  0  0  2.086201  0  2.123951  0  0  2.139039  0  2.069135  0  2.187084  0  1.454747  2.045419  0  2.167297  0
Gd  Gd3  1  0.80727703  0.28256949  0.94874567  1  0  2.169709  0  1.770479  0  0  2.086242  0  2.123928  0  0  2.139075  0  2.069121  0  2.187128  0  1.454743  2.045447  0  2.167296  0
H  H4  1  0.72061674  0.01543830  0.96763154  1  0  0.446404  0  0.845132  0  0  0.418899  0  0.902308  0  0  0.429779  0  0.88653  0  0.641035  0  0.308964  0.411209  0  0.913445  0
H  H5  1  0.27938327  0.98456188  0.03236933  1  0  0.446408  0  0.845124  0  0  0.4189  0  0.902308  0  0  0.429779  0  0.88653  0  0.64103  0  0.308961  0.41121  0  0.913444  0
H  H6  1  0.87716328  0.95806724  0.97454671  1  0  0.449794  0  0.821609  0  0  0.422479  0  0.889271  0  0  0.43178  0  0.875745  0  0.639201  0  0.31973  0.415805  0  0.898984  0
H  H7  1  0.12283673  0.04193295  0.02545263  1  0  0.449766  0  0.821642  0  0  0.422451  0  0.889308  0  0  0.431753  0  0.875781  0  0.639202  0  0.319719  0.415776  0  0.899023  0
H  H8  1  0.31456348  0.53335734  0.23019835  1  0  0.434188  0  0.869601  0  0  0.402604  0  0.934314  0  0  0.414649  0  0.9169  0  0.643651  0  0.292632  0.394068  0  0.946631  0
H  H9  1  0.68543754  0.46664284  0.76980156  1  0  0.434194  0  0.869593  0  0  0.402611  0  0.934303  0  0  0.414656  0  0.91689  0  0.64366  0  0.292634  0.394076  0  0.94662  0
H  H10  1  0.30671582  0.46248692  0.14396974  1  0  0.439289  0  0.861402  0  0  0.409317  0  0.923395  0  0  0.420808  0  0.906708  0  0.636887  0  0.2999  0.401163  0  0.935232  0
H  H11  1  0.69328520  0.53751326  0.85603093  1  0  0.439266  0  0.861439  0  0  0.409294  0  0.923434  0  0  0.420786  0  0.906743  0  0.636894  0  0.29989  0.40114  0  0.935271  0
H  H12  1  0.26457849  0.50505438  0.94489539  1  0  0.454962  0  0.805814  0  0  0.432679  0  0.863603  0  0  0.441458  0  0.850822  0  0.637919  0  0.325711  0.426341  0  0.872896  0
H  H13  1  0.73542311  0.49494402  0.05510562  1  0  0.454897  0  0.805944  0  0  0.432634  0  0.863657  0  0  0.441411  0  0.850882  0  0.637948  0  0.325697  0.426296  0  0.872951  0
H  H14  1  0.11303195  0.57787283  0.92617889  1  0  0.446861  0  0.850579  0  0  0.414546  0  0.916668  0  0  0.424888  0  0.901691  0  0.640042  0  0.307122  0.407251  0  0.927223  0
H  H15  1  0.88696835  0.42212646  0.07382139  1  0  0.44686  0  0.850579  0  0  0.414545  0  0.916666  0  0  0.424887  0  0.901688  0  0.640004  0  0.307133  0.407251  0  0.927219  0
H  H16  1  0.00822844  0.36743387  0.43083672  1  0  0.097821  0  0.974  0  0  0.107919  0  1.038331  0  0  0.110633  0  1.036933  0  0.09742  0  0.107665  0.105978  0  1.039395  0
H  H17  1  0.99177115  0.63256453  0.56916239  1  0  0.097796  0  0.974015  0  0  0.10788  0  1.038369  0  0  0.110594  0  1.036972  0  0.097473  0  0.107657  0.10594  0  1.039431  0
H  H18  1  0.82889178  0.48769653  0.55798013  1  0  0.114851  0  0.934146  0  0  0.124513  0  0.990093  0  0  0.128012  0  0.988433  0  0.108466  0  0.112799  0.122007  0  0.99143  0
H  H19  1  0.17111155  0.51230276  0.44201878  1  0  0.11487  0  0.934138  0  0  0.124509  0  0.990119  0  0  0.128007  0  0.988459  0  0.108451  0  0.112796  0.122002  0  0.991456  0
H  H20  1  0.66000466  0.67497536  0.48057172  1  0  0.098426  0  0.975273  0  0  0.106555  0  1.040997  0  0  0.108789  0  1.041203  0  0.089088  0  0.103978  0.1049  0  1.041009  0
H  H21  1  0.34000040  0.32502482  0.51942739  1  0  0.098391  0  0.975292  0  0  0.106519  0  1.041026  0  0  0.108764  0  1.041224  0  0.089036  0  0.103941  0.104865  0  1.041038  0
H  H22  1  0.58896551  0.05704465  0.17875192  1  0  0.132118  0  0.954149  0  0  0.139996  0  1.016195  0  0  0.14383  0  1.014779  0  0.107978  0  0.116093  0.13697  0  1.017801  0
H  H23  1  0.41103694  0.94295732  0.82124878  1  0  0.132085  0  0.954157  0  0  0.139978  0  1.016172  0  0  0.143816  0  1.014756  0  0.10799  0  0.116094  0.136954  0  1.017775  0
H  H24  1  0.77694653  0.87231294  0.21608099  1  0  0.103859  0  0.945337  0  0  0.112174  0  1.009658  0  0  0.114487  0  1.007593  0  0.142282  0  0.129388  0.110494  0  1.011123  0
H  H25  1  0.22305765  0.12768991  0.78391914  1  0  0.103899  0  0.945344  0  0  0.112197  0  1.009661  0  0  0.114509  0  1.0076  0  0.142348  0  0.129392  0.110515  0  1.011129  0
H  H26  1  0.49188967  0.66674540  0.32634653  1  0  0.109455  0  0.959511  0  0  0.114034  0  1.027427  0  0  0.118445  0  1.02262  0  0.205387  0  0.125047  0.110717  0  1.030877  0
H  H27  1  0.50811278  0.33325656  0.67365111  1  0  0.109467  0  0.959463  0  0  0.113997  0  1.027434  0  0  0.118401  0  1.022633  0  0.205338  0  0.12504  0.11068  0  1.030883  0
H  H28  1  0.29104722  0.84453503  0.29381281  1  0  0.140798  0  0.935222  0  0  0.15103  0  0.990762  0  0  0.154664  0  0.990125  0  0.1081  0  0.11836  0.148622  0  0.991186  0
H  H29  1  0.70895351  0.15546604  0.70618310  1  0  0.140758  0  0.935222  0  0  0.15098  0  0.990774  0  0  0.154581  0  0.990178  0  0.108131  0  0.118348  0.148572  0  0.991198  0
H  H30  1  0.97293313  0.25231939  0.58611650  1  0  0.104649  0  0.959044  0  0  0.114904  0  1.020061  0  0  0.118245  0  1.017867  0  0.101758  0  0.107471  0.112482  0  1.021717  0
H  H31  1  0.02706718  0.74767990  0.41388531  1  0  0.104648  0  0.95902  0  0  0.114905  0  1.020035  0  0  0.118244  0  1.017846  0  0.101737  0  0.107474  0.112483  0  1.021691  0
H  H32  1  0.13019059  0.17715601  0.42192835  1  0  0.119702  0  0.971934  0  0  0.126658  0  1.034326  0  0  0.131002  0  1.031232  0  0.151476  0  0.108423  0.123449  0  1.036771  0
H  H33  1  0.86981072  0.82284328  0.57807326  1  0  0.11968  0  0.971924  0  0  0.126628  0  1.034328  0  0  0.130978  0  1.031222  0  0.151508  0  0.108415  0.12342  0  1.036772  0
H  H34  1  0.28963761  0.97025378  0.44916231  1  0  0.106862  0  0.963604  0  0  0.115207  0  1.027987  0  0  0.117985  0  1.026964  0  0.101607  0  0.10609  0.113144  0  1.028872  0
H  H35  1  0.71036240  0.02974641  0.55083779  1  0  0.106867  0  0.963605  0  0  0.11521  0  1.027991  0  0  0.117987  0  1.02697  0  0.101598  0  0.106093  0.113147  0  1.028875  0
H  H36  1  0.63488668  0.68262421  0.69347169  1  0  0.143073  0  0.937419  0  0  0.152658  0  0.993878  0  0  0.156686  0  0.992893  0  0.113322  0  0.12034  0.14984  0  0.994743  0
H  H37  1  0.36511362  0.31737508  0.30652935  1  0  0.143059  0  0.9374  0  0  0.152645  0  0.993873  0  0  0.156674  0  0.992886  0  0.113356  0  0.120333  0.149827  0  0.994738  0
H  H38  1  0.45957444  0.88030262  0.66223701  1  0  0.088436  0  0.954003  0  0  0.099139  0  1.016901  0  0  0.101278  0  1.015293  0  0.118141  0  0.123683  0.097428  0  1.018307  0
H  H39  1  0.54042688  0.11969667  0.33776383  1  0  0.088431  0  0.95398  0  0  0.099136  0  1.016877  0  0  0.101275  0  1.015269  0  0.118014  0  0.123692  0.097428  0  1.018281  0
H  H40  1  0.17171767  0.73816578  0.60637718  1  0  0.100374  0  0.927621  0  0  0.111174  0  0.988148  0  0  0.113399  0  0.986372  0  0.105064  0  0.128774  0.109529  0  0.989508  0
H  H41  1  0.82828364  0.26183351  0.39362289  1  0  0.100355  0  0.92764  0  0  0.111168  0  0.988151  0  0  0.113392  0  0.986376  0  0.105043  0  0.128784  0.109525  0  0.98951  0
H  H42  1  0.33627800  0.53356736  0.63085964  1  0  0.110027  0  1.005026  0  0  0.117948  0  1.070887  0  0  0.119835  0  1.073584  0  0.098138  0  0.102071  0.116596  0  1.069202  0
H  H43  1  0.66372331  0.46643193  0.36914044  1  0  0.110021  0  1.005012  0  0  0.117959  0  1.070866  0  0  0.119846  0  1.073564  0  0.09849  0  0.102074  0.116607  0  1.069181  0
C  C44  1  0.86515611  0.65023119  0.12470918  1  0  0.725851  0  3.872268  0  0  0.670822  0  4.183691  0  0  0.707048  0  4.170712  0  1.621759  0  0.230276  0.646275  0  4.191399  0
C  C45  1  0.13484650  0.34976722  0.87529011  1  0  0.725851  0  3.872298  0  0  0.670836  0  4.18373  0  0  0.707057  0  4.170761  0  1.621709  0  0.23026  0.646289  0  4.191435  0
C  C46  1  0.03853668  0.40009921  0.22047010  1  0  0.655667  0  3.893503  0  0  0.603955  0  4.195179  0  0  0.637841  0  4.188307  0  1.56302  0  0.207653  0.581047  0  4.198884  0
C  C47  1  0.96146391  0.59989919  0.77952882  1  0  0.655827  0  3.893307  0  0  0.604142  0  4.194928  0  0  0.638027  0  4.188047  0  1.562949  0  0.207687  0.581233  0  4.198634  0
C  C48  1  0.85358719  0.59651127  0.24400734  1  0  -0.090036  0  3.634743  0  0  -0.085145  0  3.873128  0  0  -0.08678  0  3.888435  0  -0.018253  0  0.015163  -0.084256  0  3.863064  0
C  C49  1  0.14641470  0.40348624  0.75599078  1  0  -0.090039  0  3.634743  0  0  -0.085206  0  3.873208  0  0  -0.086837  0  3.888513  0  -0.018202  0  0.015142  -0.084317  0  3.863144  0
C  C50  1  0.94388361  0.48746248  0.28797270  1  0  -0.053364  0  3.693149  0  0  -0.037304  0  3.925651  0  0  -0.043388  0  3.945881  0  0.07089  0  -0.000277  -0.033563  0  3.912483  0
C  C51  1  0.05611800  0.51253592  0.71202678  1  0  -0.053454  0  3.693047  0  0  -0.037399  0  3.925601  0  0  -0.043482  0  3.945827  0  0.070973  0  -0.000287  -0.033658  0  3.912432  0
C  C52  1  0.93528515  0.45112712  0.40031424  1  0  -0.066684  0  3.727587  0  0  -0.093199  0  3.97661  0  0  -0.09289  0  3.996249  0  -0.069564  0  -0.075314  -0.093458  0  3.963534  0
C  C53  1  0.06471515  0.54887217  0.59968451  1  0  -0.066557  0  3.727519  0  0  -0.093069  0  3.976543  0  0  -0.092758  0  3.99618  0  -0.069586  0  -0.075273  -0.093329  0  3.963468  0
C  C54  1  0.83620709  0.51790480  0.47061519  1  0  -0.050844  0  3.744582  0  0  -0.06315  0  3.997715  0  0  -0.065405  0  4.017154  0  0.006114  0  -0.080928  -0.061663  0  3.984582  0
C  C55  1  0.16379422  0.48209449  0.52938412  1  0  -0.050907  0  3.74468  0  0  -0.063182  0  3.997816  0  0  -0.065437  0  4.017257  0  0.006142  0  -0.080939  -0.061695  0  3.984683  0
C  C56  1  0.74150937  0.62223347  0.42785631  1  0  -0.11819  0  3.73369  0  0  -0.143393  0  3.989671  0  0  -0.144061  0  4.00824  0  -0.097412  0  -0.078949  -0.142849  0  3.977097  0
C  C57  1  0.25849438  0.37776760  0.57214130  1  0  -0.118104  0  3.733681  0  0  -0.143313  0  3.989645  0  0  -0.14399  0  4.008209  0  -0.097278  0  -0.078869  -0.142768  0  3.977069  0
C  C58  1  0.74962982  0.65994108  0.31595960  1  0  0.130794  0  3.733858  0  0  0.118097  0  3.986666  0  0  0.121288  0  4.008787  0  0.318876  0  0.093527  0.115923  0  3.971685  0
C  C59  1  0.25037422  0.34005910  0.68403818  1  0  0.130748  0  3.733896  0  0  0.118083  0  3.986698  0  0  0.121271  0  4.008826  0  0.3187  0  0.093474  0.11591  0  3.971718  0
C  C60  1  0.56088129  0.97409822  0.21476550  1  0  -0.24186  0  3.672643  0  0  -0.260829  0  3.933366  0  0  -0.273743  0  3.950129  0  0.018391  0  -0.093327  -0.252643  0  3.922471  0
C  C61  1  0.43911943  0.02590285  0.78523500  1  0  -0.241775  0  3.67266  0  0  -0.260745  0  3.933321  0  0  -0.273663  0  3.950089  0  0.018572  0  -0.093284  -0.252556  0  3.922423  0
C  C62  1  0.66745733  0.87222662  0.23459634  1  0  0.123096  0  3.63549  0  0  0.078268  0  3.891811  0  0  0.090364  0  3.906612  0  0.367935  0  0.0586  0.070508  0  3.88176  0
C  C63  1  0.33254613  0.12777534  0.76540416  1  0  0.123051  0  3.635551  0  0  0.078228  0  3.891904  0  0  0.090323  0  3.906708  0  0.367702  0  0.05859  0.07047  0  3.881851  0
C  C64  1  0.50612515  0.75610386  0.29848686  1  0  0.106538  0  3.628548  0  0  0.062947  0  3.884243  0  0  0.074675  0  3.896601  0  0.317675  0  0.051863  0.05572  0  3.875959  0
C  C65  1  0.49387601  0.24389899  0.70151157  1  0  0.106413  0  3.628674  0  0  0.06285  0  3.884428  0  0  0.074598  0  3.896751  0  0.31766  0  0.051824  0.055625  0  3.876142  0
C  C66  1  0.39599659  0.85527635  0.27982079  1  0  -0.231441  0  3.661747  0  0  -0.24922  0  3.9185  0  0  -0.261447  0  3.935045  0  -0.01136  0  -0.090364  -0.241664  0  3.907411  0
C  C67  1  0.60400427  0.14472740  0.72017594  1  0  -0.231229  0  3.661771  0  0  -0.24902  0  3.918498  0  0  -0.261223  0  3.935061  0  -0.011418  0  -0.090271  -0.241465  0  3.907408  0
C  C68  1  0.41758424  0.97117840  0.23900268  1  0  0.46598  0  3.852773  0  0  0.450193  0  4.116669  0  0  0.475219  0  4.121743  0  0.796098  0  0.124076  0.433778  0  4.112323  0
C  C69  1  0.58241562  0.02882534  0.76099501  1  0  0.46593  0  3.852973  0  0  0.450204  0  4.11677  0  0  0.475232  0  4.121839  0  0.79605  0  0.12403  0.433787  0  4.112426  0
C  C70  1  0.47496215  0.80092103  0.00603939  1  0  0.561006  0  3.923172  0  0  0.516249  0  4.226154  0  0  0.546043  0  4.217749  0  1.594531  0  0.22142  0.495916  0  4.231503  0
C  C71  1  0.52503526  0.19908093  0.99396077  1  0  0.561131  0  3.923055  0  0  0.516364  0  4.226048  0  0  0.546163  0  4.217633  0  1.594502  0  0.221459  0.496031  0  4.2314  0
C  C72  1  0.51844532  0.69107131  0.95456092  1  0  0.558367  0  3.916673  0  0  0.512529  0  4.2202  0  0  0.542552  0  4.211284  0  1.596624  0  0.221376  0.492048  0  4.225984  0
C  C73  1  0.48155267  0.30892887  0.04543881  1  0  0.558323  0  3.916682  0  0  0.512488  0  4.220209  0  0  0.542511  0  4.211293  0  1.596647  0  0.22135  0.492006  0  4.225996  0
C  C74  1  0.10823451  0.87980694  0.81686601  1  0  0.738811  0  3.873122  0  0  0.687195  0  4.178588  0  0  0.723686  0  4.164665  0  1.635018  0  0.235991  0.662159  0  4.187602  0
C  C75  1  0.89176752  0.12019324  0.18313523  1  0  0.738836  0  3.873191  0  0  0.687169  0  4.178744  0  0  0.723668  0  4.164808  0  1.635035  0  0.235953  0.662131  0  4.187759  0
C  C76  1  0.94938433  0.14529071  0.78972641  1  0  0.628975  0  3.93564  0  0  0.580292  0  4.240011  0  0  0.613896  0  4.232554  0  1.574255  0  0.196193  0.557912  0  4.243314  0
C  C77  1  0.05061467  0.85470947  0.21027465  1  0  0.629019  0  3.935535  0  0  0.580345  0  4.239891  0  0  0.613949  0  4.232436  0  1.574207  0  0.196222  0.557966  0  4.243197  0
C  C78  1  0.12092862  0.96987645  0.71127753  1  0  -0.09241  0  3.648433  0  0  -0.086258  0  3.88435  0  0  -0.087994  0  3.900935  0  0.029942  0  0.011847  -0.085299  0  3.873503  0
C  C79  1  0.87907269  0.03012284  0.28872255  1  0  -0.092343  0  3.648401  0  0  -0.086158  0  3.884305  0  0  -0.087895  0  3.900885  0  0.02997  0  0.01189  -0.085198  0  3.873457  0
C  C80  1  0.03636976  0.08847923  0.69688437  1  0  -0.070399  0  3.72093  0  0  -0.055287  0  3.956109  0  0  -0.062262  0  3.977199  0  -0.05067  0  -0.012081  -0.05069  0  3.941489  0
C  C81  1  0.96363126  0.91152095  0.30311631  1  0  -0.070451  0  3.720952  0  0  -0.055344  0  3.956128  0  0  -0.062319  0  3.977217  0  -0.050677  0  -0.01211  -0.050748  0  3.941509  0
C  C82  1  0.04056154  0.16137954  0.59284802  1  0  -0.066871  0  3.725474  0  0  -0.095194  0  3.978815  0  0  -0.094542  0  3.998638  0  -0.044539  0  -0.081287  -0.095452  0  3.965375  0
C  C83  1  0.95944006  0.83861886  0.40715300  1  0  -0.066882  0  3.725473  0  0  -0.095202  0  3.978813  0  0  -0.094551  0  3.998636  0  -0.044544  0  -0.081278  -0.095459  0  3.965372  0
C  C84  1  0.12837283  0.12022706  0.50278532  1  0  -0.068433  0  3.744151  0  0  -0.080555  0  3.996072  0  0  -0.083545  0  4.015157  0  -0.03763  0  -0.088952  -0.078745  0  3.983454  0
C  C85  1  0.87162949  0.87977223  0.49721532  1  0  -0.068375  0  3.744164  0  0  -0.080492  0  3.996078  0  0  -0.083483  0  4.015167  0  -0.037573  0  -0.088945  -0.078682  0  3.98346  0
C  C86  1  0.21751290  0.00468809  0.51740699  1  0  -0.109878  0  3.728656  0  0  -0.133783  0  3.981408  0  0  -0.133427  0  3.999168  0  -0.055976  0  -0.079953  -0.1339  0  3.969587  0
C  C87  1  0.78248812  0.99531209  0.48259291  1  0  -0.109896  0  3.72873  0  0  -0.133795  0  3.981478  0  0  -0.13344  0  3.999241  0  -0.056072  0  -0.079962  -0.133914  0  3.969658  0
C  C88  1  0.21340081  0.93197128  0.62063230  1  0  0.119705  0  3.773598  0  0  0.105132  0  4.030042  0  0  0.10739  0  4.053603  0  0.256704  0  0.085294  0.103434  0  4.014329  0
C  C89  1  0.78659877  0.06802713  0.37936834  1  0  0.119676  0  3.773672  0  0  0.105081  0  4.03013  0  0  0.107339  0  4.053693  0  0.256668  0  0.085274  0.103384  0  4.014417  0
C  C90  1  0.53409151  0.69002655  0.67457185  1  0  -0.246063  0  3.676163  0  0  -0.261097  0  3.931137  0  0  -0.27381  0  3.94776  0  0.00897  0  -0.097547  -0.252964  0  3.919915  0
C  C91  1  0.46591009  0.30997185  0.32543070  1  0  -0.246089  0  3.676126  0  0  -0.261149  0  3.931123  0  0  -0.273862  0  3.947747  0  0.009086  0  -0.097574  -0.253018  0  3.919903  0
C  C92  1  0.43935988  0.79943042  0.65781821  1  0  0.101495  0  3.679375  0  0  0.056591  0  3.935049  0  0  0.069095  0  3.948303  0  0.327875  0  0.046448  0.048663  0  3.925908  0
C  C93  1  0.56064042  0.20056887  0.34218283  1  0  0.101561  0  3.679315  0  0  0.056669  0  3.934986  0  0  0.069174  0  3.94824  0  0.32797  0  0.046461  0.048738  0  3.925844  0
C  C94  1  0.27578522  0.71885545  0.62505447  1  0  0.103066  0  3.672354  0  0  0.060004  0  3.926165  0  0  0.071687  0  3.941063  0  0.323553  0  0.047765  0.052286  0  3.916426  0
C  C95  1  0.72421638  0.28114295  0.37494654  1  0  0.103019  0  3.672448  0  0  0.059931  0  3.92628  0  0  0.07162  0  3.94117  0  0.323637  0  0.047727  0.052213  0  3.91654  0
C  C96  1  0.36682849  0.60753202  0.63965720  1  0  -0.242079  0  3.699549  0  0  -0.260622  0  3.955596  0  0  -0.273752  0  3.975106  0  0.050019  0  -0.10238  -0.252171  0  3.942472  0
C  C97  1  0.63317282  0.39246727  0.36034364  1  0  -0.241971  0  3.699476  0  0  -0.260528  0  3.955503  0  0  -0.273659  0  3.975016  0  0.049564  0  -0.102343  -0.252076  0  3.942377  0
C  C98  1  0.50119277  0.58539353  0.66878207  1  0  0.432363  0  3.871098  0  0  0.41594  0  4.134337  0  0  0.440687  0  4.139167  0  0.842055  0  0.114573  0.399575  0  4.130283  0
C  C99  1  0.49880854  0.41460577  0.33121878  1  0  0.432348  0  3.870969  0  0  0.415948  0  4.134202  0  0  0.440693  0  4.139033  0  0.841963  0  0.114589  0.399583  0  4.130148  0
N  N100  1  0.64108019  0.76439790  0.27836115  1  0  -0.085581  0  3.576977  0  0  0.004497  0  3.787265  0  0  -0.012509  0  3.813077  0  -1.250572  0  -0.217435  0.015443  0  3.769665  0
N  N101  1  0.35892256  0.23560317  0.72163666  1  0  -0.085532  0  3.577152  0  0  0.004551  0  3.787409  0  0  -0.012455  0  3.813227  0  -1.250572  0  -0.217403  0.015496  0  3.769809  0
N  N102  1  0.31052624  0.81450029  0.63472846  1  0  -0.093653  0  3.606629  0  0  -0.002919  0  3.817961  0  0  -0.020686  0  3.844649  0  -1.276314  0  -0.225056  0.008824  0  3.799637  0
N  N103  1  0.68947507  0.18549900  0.36527238  1  0  -0.093721  0  3.606651  0  0  -0.002977  0  3.817999  0  0  -0.020746  0  3.844689  0  -1.276298  0  -0.22509  0.008764  0  3.799677  0
O  O104  1  0.96471113  0.69792546  0.07945404  1  0  -0.749085  0  2.063124  0  0  -0.708333  0  2.331813  0  0  -0.736386  0  2.320641  0  -1.207689  0  -0.385276  -0.687673  0  2.33868  0
O  O105  1  0.03528989  0.30207472  0.92054510  1  0  -0.749068  0  2.063094  0  0  -0.708314  0  2.331781  0  0  -0.736366  0  2.320613  0  -1.207653  0  -0.38526  -0.687651  0  2.338647  0
O  O106  1  0.76937783  0.65556446  0.07702527  1  0  -0.679505  0  2.025348  0  0  -0.638161  0  2.269713  0  0  -0.664159  0  2.260049  0  -1.17529  0  -0.356779  -0.619707  0  2.276223  0
O  O107  1  0.23062218  0.34443572  0.92297407  1  0  -0.679523  0  2.025425  0  0  -0.638169  0  2.269771  0  0  -0.664167  0  2.260103  0  -1.175299  0  -0.356778  -0.619715  0  2.276279  0
O  O108  1  0.03135021  0.41810403  0.12032976  1  0  -0.679625  0  2.026902  0  0  -0.622025  0  2.256463  0  0  -0.64772  0  2.247367  0  -1.184532  0  -0.340311  -0.603884  0  2.262379  0
O  O109  1  0.96865039  0.58189437  0.87966916  1  0  -0.679737  0  2.026929  0  0  -0.62212  0  2.256434  0  0  -0.647832  0  2.247382  0  -1.184483  0  -0.340343  -0.603979  0  2.262352  0
O  O110  1  0.11998359  0.30503726  0.26570803  1  0  -0.672978  0  1.975921  0  0  -0.632759  0  2.220041  0  0  -0.657869  0  2.210148  0  -1.182509  0  -0.361989  -0.614868  0  2.22594  0
O  O111  1  0.88001642  0.69496292  0.73429131  1  0  -0.673067  0  1.975849  0  0  -0.632829  0  2.219933  0  0  -0.657935  0  2.210038  0  -1.182503  0  -0.361989  -0.614937  0  2.225831  0
O  O112  1  0.31408336  0.06550866  0.22616377  1  0  -0.703967  0  2.027846  0  0  -0.659602  0  2.274537  0  0  -0.685869  0  2.264977  0  -1.187128  0  -0.424062  -0.640325  0  2.280106  0
O  O113  1  0.68591880  0.93449419  0.77383522  1  0  -0.704043  0  2.027927  0  0  -0.659694  0  2.274585  0  0  -0.68596  0  2.265024  0  -1.187036  0  -0.424091  -0.640416  0  2.280155  0
O  O114  1  0.56460455  0.85516956  0.99437577  1  0  -0.601381  0  2.071151  0  0  -0.562549  0  2.315732  0  0  -0.586904  0  2.310002  0  -1.147088  0  -0.351041  -0.545514  0  2.31973  0
O  O115  1  0.43539459  0.14483330  0.00562153  1  0  -0.601402  0  2.071244  0  0  -0.562551  0  2.315808  0  0  -0.586911  0  2.310076  0  -1.147042  0  -0.351013  -0.545515  0  2.319806  0
O  O116  1  0.34752444  0.82960221  0.05404757  1  0  -0.677133  0  2.110096  0  0  -0.627876  0  2.345524  0  0  -0.654022  0  2.338529  0  -1.187762  0  -0.357844  -0.609523  0  2.35023  0
O  O117  1  0.65247499  0.17039976  0.94595219  1  0  -0.677217  0  2.110062  0  0  -0.627982  0  2.345527  0  0  -0.654129  0  2.338527  0  -1.187749  0  -0.357881  -0.609627  0  2.350236  0
O  O118  1  0.64447678  0.66395016  0.90335813  1  0  -0.673725  0  2.140759  0  0  -0.6213  0  2.378862  0  0  -0.648221  0  2.370868  0  -1.189603  0  -0.35285  -0.602396  0  2.384355  0
O  O119  1  0.35552294  0.33605091  0.09664104  1  0  -0.673719  0  2.140871  0  0  -0.62129  0  2.378956  0  0  -0.648214  0  2.370964  0  -1.18968  0  -0.352849  -0.602384  0  2.384446  0
O  O120  1  0.42749243  0.63865780  0.96442404  1  0  -0.610398  0  2.068227  0  0  -0.571786  0  2.308169  0  0  -0.594677  0  2.300152  0  -1.162837  0  -0.354919  -0.555591  0  2.313533  0
O  O121  1  0.57250859  0.36134238  0.03557587  1  0  -0.610415  0  2.068173  0  0  -0.571804  0  2.308117  0  0  -0.594697  0  2.300101  0  -1.162874  0  -0.354927  -0.555607  0  2.313481  0
O  O122  1  0.01075418  0.83104209  0.83224293  1  0  -0.746366  0  2.060959  0  0  -0.70525  0  2.324632  0  0  -0.733389  0  2.311817  0  -1.202075  0  -0.389152  -0.684617  0  2.332897  0
O  O123  1  0.98924986  0.16895809  0.16775715  1  0  -0.746416  0  2.061033  0  0  -0.705287  0  2.324727  0  0  -0.733434  0  2.311909  0  -1.202132  0  -0.389145  -0.684652  0  2.332995  0
O  O124  1  0.19607805  0.85466764  0.87846175  1  0  -0.686441  0  1.986789  0  0  -0.650705  0  2.236564  0  0  -0.676084  0  2.225897  0  -1.171062  0  -0.367233  -0.632425  0  2.243654  0
O  O125  1  0.80392254  0.14533076  0.12153946  1  0  -0.686423  0  1.986785  0  0  -0.650649  0  2.236553  0  0  -0.67603  0  2.225881  0  -1.170997  0  -0.367195  -0.632367  0  2.243645  0
O  O126  1  0.96375578  0.09325097  0.88744142  1  0  -0.679187  0  1.970441  0  0  -0.630867  0  2.205347  0  0  -0.654435  0  2.195062  0  -1.177448  0  -0.348146  -0.61421  0  2.21172  0
O  O127  1  0.03624178  0.90674743  0.11255962  1  0  -0.679164  0  1.970418  0  0  -0.630853  0  2.205332  0  0  -0.654421  0  2.195048  0  -1.177412  0  -0.348138  -0.614195  0  2.211697  0
O  O128  1  0.86772492  0.24986233  0.76712067  1  0  -0.664787  0  1.972024  0  0  -0.624227  0  2.209891  0  0  -0.649046  0  2.201473  0  -1.17242  0  -0.37881  -0.606526  0  2.21475  0
O  O129  1  0.13227538  0.75013696  0.23288037  1  0  -0.664797  0  1.971949  0  0  -0.624262  0  2.209847  0  0  -0.649084  0  2.201432  0  -1.172397  0  -0.378831  -0.606564  0  2.214706  0
O  O130  1  0.58460299  0.48102570  0.68673842  1  0  -0.559987  0  1.929823  0  0  -0.506217  0  2.130459  0  0  -0.529022  0  2.122771  0  -1.154493  0  -0.304224  -0.490255  0  2.135224  0
O  O131  1  0.41539832  0.51897359  0.31326166  1  0  -0.559986  0  1.929785  0  0  -0.506224  0  2.130431  0  0  -0.529029  0  2.122742  0  -1.154459  0  -0.304218  -0.490263  0  2.135196  0
O  O132  1  0.79056266  0.93641197  0.98180231  1  0  -0.88965  0  1.882813  0  0  -0.850928  0  2.085505  0  0  -0.871414  0  2.055271  0  -1.248254  0  -0.632196  -0.83596  0  2.10689  0
O  O133  1  0.20943765  0.06358732  0.01819720  1  0  -0.889627  0  1.882852  0  0  -0.850932  0  2.085581  0  0  -0.87142  0  2.055343  0  -1.248259  0  -0.632176  -0.835963  0  2.106965  0
O  O134  1  0.26343298  0.53772595  0.17122086  1  0  -0.930357  0  1.879402  0  0  -0.890656  0  2.078581  0  0  -0.912039  0  2.044689  0  -1.271784  0  -0.667598  -0.874905  0  2.102436  0
O  O135  1  0.73656804  0.46227423  0.82877981  1  0  -0.930365  0  1.879408  0  0  -0.89067  0  2.078599  0  0  -0.912052  0  2.044706  0  -1.271812  0  -0.667603  -0.874921  0  2.102462  0
O  O136  1  0.19969878  0.58456857  0.94214442  1  0  -0.89134  0  1.859795  0  0  -0.853224  0  2.057231  0  0  -0.872133  0  2.027776  0  -1.2435  0  -0.636044  -0.839304  0  2.077846  0
O  O137  1  0.80030283  0.41542983  0.05785660  1  0  -0.891283  0  1.859907  0  0  -0.853168  0  2.057344  0  0  -0.872078  0  2.027886  0  -1.243482  0  -0.636035  -0.839248  0  2.077956  0
