# generated using pymatgen
data_ZnH10C28I5NO4
_symmetry_space_group_name_H-M   'P 1'
_cell_length_a   14.46090566
_cell_length_b   15.08234921
_cell_length_c   15.08245813
_cell_angle_alpha   79.54876705
_cell_angle_beta   84.29172469
_cell_angle_gamma   84.29605753
_symmetry_Int_Tables_number   1
_chemical_formula_structural   ZnH10C28I5NO4
_chemical_formula_sum   'Zn2 H20 C56 I10 N2 O8'
_cell_volume   3207.79287557
_cell_formula_units_Z   2
loop_
 _symmetry_equiv_pos_site_id
 _symmetry_equiv_pos_as_xyz
  1  'x, y, z'
loop_
 _atom_site_type_symbol
 _atom_site_label
 _atom_site_symmetry_multiplicity
 _atom_site_fract_x
 _atom_site_fract_y
 _atom_site_fract_z
 _atom_site_occupancy
 _atom_site_pbe_bader_charge
 _atom_site_pbe_bader_spin_density
 _atom_site_pbe_cm5_charge
 _atom_site_pbe_ddec_charge
 _atom_site_pbe_ddec_spin_density
 _atom_site_pbe_ddec_sum_bond_order
 _atom_site_pbe_magmom
Zn  Zn0  1  0.58192149  0.53820231  0.51858387  1  1.294303  0  0.67626  0.841194  0  2.37506  0
Zn  Zn1  1  0.41807539  0.48139949  0.46180344  1  1.29612  0  0.676281  0.841272  0  2.37491  0
H  H2  1  0.64573068  0.93305331  0.72107048  1  0.087295  0  0.101531  0.117312  0  1.002826  0
H  H3  1  0.21285405  0.05861258  0.51491561  1  0.113409  0  0.099512  0.114334  0  1.005987  0
H  H4  1  0.35424525  0.27894457  0.06695629  1  0.086925  0  0.101445  0.117191  0  1.002724  0
H  H5  1  0.78718064  0.48501740  0.94139883  1  0.113365  0  0.099498  0.114284  0  1.006233  0
H  H6  1  0.87723109  0.41108697  0.42193021  1  0.095161  0  0.105176  0.108598  0  1.018498  0
H  H7  1  0.12275100  0.57796064  0.58906983  1  0.094815  0  0.104988  0.108077  0  1.018732  0
H  H8  1  0.49730281  0.78191535  0.55648308  1  0.119943  0  0.095899  0.108851  0  1.050549  0
H  H9  1  0.45094381  0.22613486  0.52219097  1  0.116623  0  0.092392  0.106639  0  1.069807  0
H  H10  1  0.50268588  0.44352547  0.21807055  1  0.119783  0  0.095911  0.108847  0  1.050442  0
H  H11  1  0.54910251  0.47773756  0.77386346  1  0.1157  0  0.09225  0.106394  0  1.070289  0
H  H12  1  0.72756239  0.07473529  0.67225454  1  0.081333  0  0.101366  0.114265  0  0.999848  0
H  H13  1  0.19783124  0.92398510  0.44509792  1  0.081959  0  0.099823  0.112749  0  1.003962  0
H  H14  1  0.27243955  0.32771898  0.92527592  1  0.083409  0  0.101474  0.114467  0  0.999824  0
H  H15  1  0.80218679  0.55488568  0.07599916  1  0.082104  0  0.099818  0.112774  0  1.004053  0
H  H16  1  0.01387665  0.33196532  0.35444931  1  0.105014  0  0.096366  0.106591  0  1.02551  0
H  H17  1  0.98609126  0.64542518  0.66817761  1  0.104754  0  0.09638  0.106828  0  1.025914  0
H  H18  1  0.76897650  0.48447315  0.46683896  1  0.131722  0  0.118692  0.098962  0  1.032325  0
H  H19  1  0.23101531  0.53313776  0.51557160  1  0.131204  0  0.11866  0.098869  0  1.032428  0
H  H20  1  0.65194301  0.64301664  0.65177361  1  0.126077  0  0.105909  0.091128  0  1.038197  0
H  H21  1  0.34804714  0.34822345  0.35699460  1  0.126035  0  0.105959  0.091138  0  1.038107  0
C  C22  1  0.57581906  0.52047151  0.32775229  1  1.536014  0  0.214488  0.60544  0  4.156256  0
C  C23  1  0.43494563  0.47543033  0.65807104  1  1.587322  0  0.209959  0.598727  0  4.159896  0
C  C24  1  0.42417979  0.67223644  0.47953009  1  1.535846  0  0.214363  0.605228  0  4.156681  0
C  C25  1  0.56508738  0.34193390  0.52453419  1  1.58753  0  0.210152  0.59923  0  4.159049  0
C  C26  1  0.59147244  0.96314042  0.67697507  1  0.050003  0  -0.097848  -0.175218  0  3.993203  0
C  C27  1  0.28280795  0.03094156  0.53150822  1  -0.007272  0  -0.100508  -0.175901  0  4.003647  0
C  C28  1  0.40851899  0.32302453  0.03687208  1  0.050125  0  -0.097731  -0.174996  0  3.993759  0
C  C29  1  0.71722282  0.46843733  0.96905874  1  -0.005788  0  -0.100607  -0.175883  0  4.004027  0
C  C30  1  0.19683786  0.35506203  0.37297480  1  -0.249695  0  -0.045723  -0.030908  0  3.897873  0
C  C31  1  0.80313021  0.62701034  0.64500001  1  -0.251023  0  -0.045659  -0.030555  0  3.897056  0
C  C32  1  0.28346401  0.37932123  0.38599173  1  0.5282  0  0.0324  0.042385  0  3.957009  0
C  C33  1  0.71651784  0.61401183  0.62070267  1  0.528016  0  0.032434  0.042325  0  3.957373  0
C  C34  1  0.21721296  0.48276638  0.47637544  1  0.512197  0  0.056643  0.054581  0  3.910847  0
C  C35  1  0.78277155  0.52365557  0.51723342  1  0.51157  0  0.056643  0.05449  0  3.910942  0
C  C36  1  0.12596349  0.46249384  0.46749783  1  0.005373  0  0.001358  -0.002574  0  3.936157  0
C  C37  1  0.87402102  0.53252465  0.53752624  1  0.005367  0  0.001259  -0.002589  0  3.936106  0
C  C38  1  0.11448282  0.39790975  0.41153582  1  0.029311  0  0.000956  0.07413  0  3.992407  0
C  C39  1  0.88550163  0.58845058  0.60214843  1  0.029297  0  0.001084  0.074182  0  3.992247  0
C  C40  1  0.04510715  0.50547494  0.51210612  1  0.055462  0  0.003254  0.043797  0  3.945382  0
C  C41  1  0.95486365  0.48793347  0.49452464  1  -0.011752  0  0.003124  0.044369  0  3.945211  0
C  C42  1  0.94617403  0.42541519  0.43575999  1  -0.047432  0  -0.077895  -0.10586  0  3.985665  0
C  C43  1  0.05380802  0.56416333  0.57470039  1  -0.045777  0  -0.077393  -0.104246  0  3.985231  0
C  C44  1  0.02262079  0.38083882  0.39739884  1  -0.039777  0  -0.087365  -0.110214  0  3.966409  0
C  C45  1  0.97736416  0.60253870  0.61925986  1  -0.039403  0  -0.087569  -0.11118  0  3.967263  0
C  C46  1  0.58260440  0.24287320  0.56172954  1  -0.013626  0  -0.021221  -0.056513  0  3.937579  0
C  C47  1  0.38000641  0.76448137  0.49069372  1  0.019293  0  -0.019657  -0.052946  0  3.932743  0
C  C48  1  0.41742718  0.43822110  0.75712625  1  -0.012093  0  -0.021479  -0.05688  0  3.937969  0
C  C49  1  0.61999551  0.50930875  0.23550465  1  0.019752  0  -0.019714  -0.052935  0  3.932763  0
C  C50  1  0.66528050  0.10851511  0.64176626  1  -0.002642  0  -0.096182  -0.17203  0  3.965134  0
C  C51  1  0.26208397  0.89156189  0.47268060  1  0.007212  0  -0.098924  -0.175714  0  3.97206  0
C  C52  1  0.33473043  0.35819558  0.89149012  1  -0.003568  0  -0.095965  -0.171901  0  3.964508  0
C  C53  1  0.73794383  0.52729534  0.10843105  1  0.006798  0  -0.09897  -0.175925  0  3.972338  0
C  C54  1  0.66237314  0.19950462  0.60389281  1  -0.19171  0  -0.039277  0.055041  0  3.883748  0
C  C55  1  0.29338078  0.80450187  0.45999486  1  -0.249771  0  -0.041156  0.05438  0  3.890023  0
C  C56  1  0.33765967  0.39605749  0.80049600  1  -0.192973  0  -0.039424  0.055031  0  3.883335  0
C  C57  1  0.70663259  0.53999317  0.19548490  1  -0.249952  0  -0.041166  0.054481  0  3.890307  0
C  C58  1  0.50873331  0.19135254  0.55876731  1  -0.024152  0  -0.084198  -0.119067  0  3.946952  0
C  C59  1  0.42941160  0.81291763  0.53756074  1  0.003529  0  -0.082795  -0.120604  0  3.948985  0
C  C60  1  0.49131482  0.44115080  0.80863954  1  -0.02447  0  -0.083844  -0.118507  0  3.946722  0
C  C61  1  0.57058570  0.46243771  0.18708003  1  0.004025  0  -0.082784  -0.120564  0  3.949045  0
C  C62  1  0.50791450  0.09958405  0.59773611  1  0.004418  0  -0.009202  0.029685  0  3.970699  0
C  C63  1  0.39716635  0.89907952  0.55645760  1  -0.051708  0  -0.009993  0.026058  0  3.976207  0
C  C64  1  0.49211400  0.40221598  0.90041790  1  0.004618  0  -0.009329  0.029452  0  3.970317  0
C  C65  1  0.60283860  0.44352331  0.10092542  1  -0.051721  0  -0.009967  0.025881  0  3.976235  0
C  C66  1  0.58925668  0.05702586  0.63912879  1  -0.02251  0  -0.00296  0.108083  0  4.00486  0
C  C67  1  0.31331813  0.94074959  0.51941844  1  0.043468  0  -0.005512  0.107011  0  4.009198  0
C  C68  1  0.41073632  0.36085248  0.94298794  1  -0.022964  0  -0.003115  0.107876  0  4.005173  0
C  C69  1  0.68670258  0.48055498  0.05924859  1  0.043202  0  -0.005464  0.107068  0  4.009157  0
C  C70  1  0.43312903  0.04603998  0.58815541  1  -0.001752  0  0.001668  0.022797  0  3.917235  0
C  C71  1  0.45146885  0.95033085  0.60121956  1  0.023964  0  0.001868  0.021783  0  3.925135  0
C  C72  1  0.56689059  0.41181173  0.95396837  1  -0.001428  0  0.00182  0.022697  0  3.917045  0
C  C73  1  0.54853393  0.39875152  0.04968181  1  0.023745  0  0.001593  0.021898  0  3.925143  0
C  C74  1  0.52509117  0.91207235  0.65802138  1  -0.26187  0  -0.042992  0.02083  0  3.882155  0
C  C75  1  0.34081394  0.08178065  0.56408096  1  -0.264374  0  -0.048585  0.012126  0  3.874757  0
C  C76  1  0.47490170  0.34196834  0.08793336  1  -0.26257  0  -0.042936  0.020791  0  3.882518  0
C  C77  1  0.65921815  0.43585762  0.91823239  1  -0.264921  0  -0.048257  0.012521  0  3.874508  0
I  I78  1  0.20948167  0.74205796  0.38643851  1  0.101756  0  0.05488  -0.042991  0  1.409118  0
I  I79  1  0.78635084  0.26327443  0.60307674  1  0.107878  0  0.073224  -0.021153  0  1.567566  0
I  I80  1  0.79052070  0.61356798  0.25791213  1  0.101575  0  0.054964  -0.042931  0  1.409372  0
I  I81  1  0.21370665  0.39680776  0.73672371  1  0.108032  0  0.07328  -0.021176  0  1.567891  0
I  I82  1  0.51933760  0.78060482  0.73666428  1  0.11056  0  0.095287  -0.015498  0  1.490629  0
I  I83  1  0.27894345  0.20452513  0.60307234  1  0.120626  0  0.075338  -0.038507  0  1.636269  0
I  I84  1  0.48062297  0.26333704  0.21941855  1  0.110542  0  0.0953  -0.015485  0  1.490543  0
I  I85  1  0.72110617  0.39688132  0.79547388  1  0.120116  0  0.075252  -0.038604  0  1.635528  0
I  I86  1  0.19128528  0.25081768  0.29859340  1  0.128031  0  0.090508  -0.017895  0  1.425469  0
I  I87  1  0.80867299  0.70138898  0.74925494  1  0.127994  0  0.09049  -0.017958  0  1.425283  0
N  N88  1  0.29245678  0.44375930  0.43600368  1  -1.253288  0  -0.324869  -0.189633  0  3.544059  0
N  N89  1  0.70753190  0.56402467  0.55623794  1  -1.253135  0  -0.324658  -0.18953  0  3.544472  0
O  O90  1  0.62990972  0.52250778  0.38870170  1  -1.164504  0  -0.313679  -0.545158  0  2.400092  0
O  O91  1  0.39163973  0.44433406  0.60284060  1  -1.171113  0  -0.312802  -0.543965  0  2.372333  0
O  O92  1  0.37009235  0.61127219  0.47750541  1  -1.165045  0  -0.31368  -0.54518  0  2.400287  0
O  O93  1  0.60839537  0.39716076  0.55563253  1  -1.17112  0  -0.312893  -0.544252  0  2.372155  0
O  O94  1  0.48718978  0.52339574  0.33831343  1  -1.118084  0  -0.319308  -0.537121  0  2.299704  0
O  O95  1  0.49695643  0.53192975  0.63706008  1  -1.15833  0  -0.322297  -0.548576  0  2.32856  0
O  O96  1  0.51280888  0.66168332  0.47659365  1  -1.117901  0  -0.31928  -0.536988  0  2.299902  0
O  O97  1  0.50306405  0.36295102  0.46804052  1  -1.158604  0  -0.32235  -0.54882  0  2.328316  0
