# generated using pymatgen
data_CoH24C18S2(N3O)2
_symmetry_space_group_name_H-M   'P 1'
_cell_length_a   7.58861618
_cell_length_b   8.55147106
_cell_length_c   9.87956860
_cell_angle_alpha   65.09494720
_cell_angle_beta   81.53714488
_cell_angle_gamma   73.26078396
_symmetry_Int_Tables_number   1
_chemical_formula_structural   CoH24C18S2(N3O)2
_chemical_formula_sum   'Co1 H24 C18 S2 N6 O2'
_cell_volume   556.61493024
_cell_formula_units_Z   1
loop_
 _symmetry_equiv_pos_site_id
 _symmetry_equiv_pos_as_xyz
  1  'x, y, z'
loop_
 _atom_site_type_symbol
 _atom_site_label
 _atom_site_symmetry_multiplicity
 _atom_site_fract_x
 _atom_site_fract_y
 _atom_site_fract_z
 _atom_site_occupancy
 _atom_site_hle17_ddec_charge
 _atom_site_hle17_ddec_spin_density
 _atom_site_hle17_ddec_sum_bond_order
 _atom_site_hle17_magmom
 _atom_site_hse06_10hf_ddec_charge
 _atom_site_hse06_10hf_ddec_spin_density
 _atom_site_hse06_10hf_ddec_sum_bond_order
 _atom_site_hse06_10hf_magmom
 _atom_site_hse06_ddec_charge
 _atom_site_hse06_ddec_spin_density
 _atom_site_hse06_ddec_sum_bond_order
 _atom_site_hse06_magmom
 _atom_site_pbe_cm5_charge
 _atom_site_pbe_ddec_charge
 _atom_site_pbe_ddec_spin_density
 _atom_site_pbe_ddec_sum_bond_order
 _atom_site_pbe_magmom
Co  Co0  1  0.50000006  0.50000360  0.49999698  1  0.7653  1.13602  2.623658  1.027  0.755993  1.038539  3.06272  0.966  0.809798  1.034906  2.993604  0.972  0.719273  0.726254  1.034373  3.104701  0.952
H  H1  1  0.41760255  0.42739884  0.26222067  1  0.363995  -0.000372  0.946408  0.0  0.322832  -5.9e-05  1.048454  0.0  0.33384  -0.000135  1.034443  0.0  0.275643  0.315333  0.000169  1.055611  0.0
H  H2  1  0.58239736  0.57259903  0.73777874  1  0.364022  -0.000372  0.946324  0.0  0.322855  -5.9e-05  1.048394  0.0  0.333862  -0.000135  1.0344  0.0  0.275659  0.315358  0.000169  1.05555  0.0
H  H3  1  0.56922474  0.25936377  0.36088894  1  0.391519  -0.000303  0.853233  0.0  0.37917  0.000235  0.908649  0.0  0.386632  7.9e-05  0.899983  0.0  0.308179  0.37403  0.000558  0.914524  0.001
H  H4  1  0.43077551  0.74063276  0.63911293  1  0.391523  -0.000302  0.853278  0.0  0.379177  0.000235  0.90868  0.0  0.38664  7.9e-05  0.900014  0.0  0.30821  0.374038  0.000558  0.914556  0.001
H  H5  1  0.38562587  0.17078936  0.67544843  1  0.087693  -0.000137  0.953307  0.0  0.09726  -0.00019  1.010653  0.0  0.098943  -0.000152  1.008312  0.0  0.120333  0.09573  -0.000182  1.012989  0.0
H  H6  1  0.61438364  0.82921254  0.32454845  1  0.087571  -0.000136  0.953676  0.0  0.097224  -0.00019  1.010939  0.0  0.098909  -0.000152  1.008591  0.0  0.120305  0.095695  -0.000182  1.013272  0.0
H  H7  1  0.12744514  0.08132444  0.84870720  1  0.101483  -0.000427  0.974091  0.0  0.107176  -0.000109  1.044843  0.0  0.109788  -9.3e-05  1.044729  0.0  0.098927  0.105239  -0.000116  1.045188  0.0
H  H8  1  0.87256138  0.91867344  0.15130058  1  0.101583  -0.000426  0.97417  0.0  0.10727  -0.000109  1.04491  0.0  0.109875  -9.2e-05  1.04483  0.0  0.09895  0.105349  -0.000116  1.04524  0.0
H  H9  1  0.86260761  0.64087754  0.72310742  1  0.110579  -0.00044  0.986869  0.0  0.11727  -4e-05  1.053666  0.0  0.120684  -5.3e-05  1.051942  0.0  0.098762  0.114682  3e-06  1.055235  0.0
H  H10  1  0.13738167  0.35912030  0.27688913  1  0.110577  -0.00044  0.987058  0.0  0.117335  -4e-05  1.053773  0.0  0.120749  -5.3e-05  1.052048  0.0  0.098803  0.114747  2e-06  1.055342  0.0
H  H11  1  0.13492361  0.70651653  0.56690674  1  0.079742  -0.000193  0.966377  0.0  0.0864  -0.000265  1.031173  0.0  0.087692  -0.000204  1.029374  0.0  0.116198  0.085256  -0.000296  1.032883  0.0
H  H12  1  0.86505994  0.29348796  0.43308194  1  0.079873  -0.000192  0.966411  0.0  0.086464  -0.000266  1.031267  0.0  0.087751  -0.000205  1.029465  0.0  0.116236  0.085323  -0.000296  1.032972  0.0
H  H13  1  0.78728776  0.18871115  0.89596543  1  0.07917  -0.000467  0.97383  0.0  0.093678  -0.000219  1.042058  0.0  0.093632  -0.000154  1.04328  0.0  0.105651  0.093586  -0.000299  1.041246  0.0
H  H14  1  0.21271346  0.81128672  0.10403788  1  0.079091  -0.000468  0.973907  0.0  0.093611  -0.000219  1.042121  0.0  0.093563  -0.000154  1.043345  0.0  0.105625  0.09352  -0.000298  1.041309  0.0
H  H15  1  0.88376325  0.22000838  0.03112513  1  0.061127  -0.000634  0.960658  0.0  0.076543  -0.000293  1.033075  0.0  0.078091  -0.000202  1.031076  0.0  0.090451  0.07522  -0.000404  1.034838  0.0
H  H16  1  0.11623993  0.77999216  0.96887801  1  0.061137  -0.000636  0.960705  0.0  0.076529  -0.000293  1.033158  0.0  0.078078  -0.000202  1.031152  0.0  0.090463  0.075203  -0.000404  1.034924  0.0
H  H17  1  0.53422092  0.23686274  0.10047120  1  0.050113  8.4e-05  0.923847  0.0  0.064563  0.000128  0.993318  0.0  0.065545  8.4e-05  0.992073  0.0  0.092924  0.063505  0.000293  0.99466  0.0
H  H18  1  0.46577693  0.76313778  0.89953354  1  0.050128  8.1e-05  0.923842  0.0  0.06461  0.000128  0.99328  0.0  0.065592  8.4e-05  0.992041  0.0  0.092937  0.063552  0.000293  0.994623  0.0
H  H19  1  0.48310167  0.27390757  0.91766082  1  0.081407  -5.4e-05  0.926562  0.0  0.097795  -3.6e-05  0.987528  0.0  0.097462  -3e-05  0.989172  0.0  0.109714  0.097991  -7.4e-05  0.986411  0.0
H  H20  1  0.51689787  0.72609162  0.08234321  1  0.081398  -5.6e-05  0.92659  0.0  0.097793  -3.6e-05  0.98755  0.0  0.097462  -3e-05  0.989196  0.0  0.109701  0.097988  -7.4e-05  0.986435  0.0
H  H21  1  0.78495678  0.59232679  0.95666123  1  0.074933  -2.7e-05  0.947553  0.0  0.094565  -1.4e-05  1.007224  0.0  0.094261  -1.1e-05  1.008758  0.0  0.101444  0.094702  -2.8e-05  1.00628  0.0
H  H22  1  0.21504109  0.40767373  0.04333946  1  0.074934  -2.6e-05  0.947542  0.0  0.094556  -1.4e-05  1.007224  0.0  0.094251  -1.1e-05  1.008759  0.0  0.101425  0.094692  -2.8e-05  1.006281  0.0
H  H23  1  0.71686339  0.42797367  0.12232273  1  0.043914  -0.00011  0.946681  0.0  0.056853  -0.000106  1.021737  0.0  0.057424  -9.2e-05  1.021349  0.0  0.092275  0.056217  -9.7e-05  1.022313  0.0
H  H24  1  0.28313944  0.57202820  0.87767793  1  0.043958  -0.00011  0.946653  0.0  0.05688  -0.000106  1.021714  0.0  0.05745  -9.2e-05  1.021323  0.0  0.092279  0.056241  -9.7e-05  1.022293  0.0
C  C25  1  0.26970269  0.27046993  0.69294857  1  0.125263  -0.013785  3.682882  -0.009  0.097035  -0.004761  3.933265  -0.003  0.107077  -0.003664  3.950647  -0.002  0.044192  0.089885  -0.00572  3.922588  -0.003
C  C26  1  0.73027776  0.72953585  0.30706023  1  0.125592  -0.013822  3.682333  -0.009  0.097254  -0.004763  3.932719  -0.003  0.107307  -0.003665  3.950103  -0.002  0.044398  0.090105  -0.005721  3.922046  -0.003
C  C27  1  0.12429911  0.22210393  0.78917738  1  -0.172612  0.003578  3.730256  0.005  -0.191755  0.000398  3.980598  0.001  -0.201339  0.000532  4.002422  0.001  -0.089127  -0.185428  0.000339  3.966546  0.001
C  C28  1  0.87572265  0.77790202  0.21081567  1  -0.172867  0.00359  3.730036  0.005  -0.192003  0.000398  3.980413  0.001  -0.201597  0.000531  4.002236  0.001  -0.089261  -0.185692  0.000339  3.966352  0.001
C  C29  1  0.97332358  0.35244179  0.80799438  1  0.150766  -0.014758  3.685792  -0.01  0.16546  -0.005151  3.922436  -0.003  0.172782  -0.003486  3.942655  -0.002  0.013551  0.160135  -0.006988  3.908996  -0.004
C  C30  1  0.02666824  0.64756138  0.19201007  1  0.15074  -0.014762  3.686391  -0.01  0.165451  -0.005143  3.923028  -0.003  0.172765  -0.003482  3.943252  -0.002  0.013503  0.160131  -0.006978  3.909584  -0.004
C  C31  1  0.97652707  0.52964283  0.72203854  1  -0.160386  0.003419  3.68893  0.005  -0.179426  0.00039  3.933834  0.001  -0.187984  0.000519  3.953334  0.001  -0.088464  -0.17382  0.00034  3.921395  0.001
C  C32  1  0.02348645  0.47035910  0.27795283  1  -0.160317  0.003431  3.688487  0.005  -0.179428  0.00039  3.933367  0.001  -0.187983  0.000518  3.95286  0.001  -0.088435  -0.17382  0.00034  3.920923  0.001
C  C33  1  0.13000653  0.56874792  0.63143002  1  0.114609  -0.014577  3.688602  -0.01  0.085466  -0.005202  3.945472  -0.003  0.095931  -0.003953  3.962659  -0.002  0.042208  0.077866  -0.006378  3.934973  -0.004
C  C34  1  0.86996976  0.43124852  0.36857454  1  0.114463  -0.014606  3.688276  -0.01  0.085359  -0.005201  3.945156  -0.003  0.09584  -0.003952  3.962339  -0.002  0.042127  0.077747  -0.006376  3.934679  -0.004
C  C35  1  0.82359059  0.29072183  0.91856635  1  -0.060179  0.0  3.676944  0.001  -0.119049  -0.000191  3.918722  0.0  -0.116832  -0.000119  3.929956  0.0  -0.065376  -0.120346  -0.000285  3.911204  0.0
C  C36  1  0.17641393  0.70927871  0.08143562  1  -0.060062  3e-06  3.676869  0.001  -0.118931  -0.000191  3.918636  0.0  -0.116712  -0.000118  3.929871  0.0  -0.065354  -0.120231  -0.000284  3.911117  0.0
C  C37  1  0.50173228  0.34047501  0.98642321  1  -0.025891  -1.6e-05  3.662591  0.0  -0.084581  2.3e-05  3.924905  0.0  -0.080916  -0.0  3.936646  0.0  -0.070207  -0.086859  8.3e-05  3.916822  0.0
C  C38  1  0.49827161  0.65952287  0.01357980  1  -0.025938  -1e-05  3.66261  0.0  -0.084688  2.2e-05  3.925007  0.0  -0.08102  2e-06  3.936735  0.0  -0.070232  -0.086967  8.3e-05  3.916926  0.0
C  C39  1  0.67536372  0.52329582  0.00752958  1  -0.024756  -0.000126  3.662747  0.0  -0.084247  -8e-05  3.921497  0.0  -0.080995  -6.4e-05  3.93391  0.0  -0.072918  -0.086298  -8.1e-05  3.912843  0.0
C  C40  1  0.32463486  0.47670204  0.99247099  1  -0.024814  -0.000129  3.662636  0.0  -0.084278  -8e-05  3.921328  0.0  -0.081024  -6.3e-05  3.933732  0.0  -0.072878  -0.086334  -8.1e-05  3.912689  0.0
C  C41  1  0.27302354  0.86465962  0.30889607  1  0.264717  -0.023607  4.057077  -0.017  0.258164  -0.010105  4.360301  -0.007  0.283174  -0.008866  4.369314  -0.006  0.137639  0.241489  -0.010623  4.353933  -0.007
C  C42  1  0.72698832  0.13534364  0.69109095  1  0.264776  -0.023602  4.056744  -0.017  0.258239  -0.010104  4.359938  -0.007  0.283249  -0.008866  4.368951  -0.006  0.137722  0.241565  -0.010623  4.353569  -0.007
S  S43  1  0.15911052  0.06756373  0.21823384  1  -0.38799  -0.011508  2.045832  -0.005  -0.378006  -0.005376  2.336506  -0.002  -0.390203  -0.004523  2.327577  -0.002  -0.183509  -0.36927  -0.005779  2.342979  -0.002
S  S44  1  0.84090741  0.93243154  0.78176148  1  -0.388099  -0.011506  2.045535  -0.005  -0.378099  -0.005374  2.336177  -0.002  -0.3903  -0.004522  2.327243  -0.002  -0.183586  -0.369361  -0.005777  2.342648  -0.002
N  N45  1  0.35631030  0.71466520  0.37228360  1  -0.502827  -0.001841  3.200356  0.005  -0.481585  -0.002789  3.512343  -0.001  -0.504152  -0.002809  3.511736  -0.001  -0.422885  -0.468013  -0.002029  3.512352  0.0
N  N46  1  0.64369291  0.28533535  0.62771244  1  -0.502815  -0.001844  3.200302  0.005  -0.481551  -0.00279  3.512242  -0.001  -0.504116  -0.002808  3.511634  -0.001  -0.422864  -0.467975  -0.002029  3.512241  0.0
N  N47  1  0.27776160  0.44238944  0.61746673  1  -0.241044  -0.01576  3.336223  -0.01  -0.196921  -0.009464  3.618546  -0.007  -0.224228  -0.008783  3.63746  -0.006  -0.326402  -0.179853  -0.008922  3.605724  -0.006
N  N48  1  0.72223629  0.55761109  0.38252889  1  -0.241099  -0.015756  3.336704  -0.01  -0.196919  -0.009468  3.618989  -0.007  -0.224254  -0.008786  3.637935  -0.006  -0.326411  -0.179846  -0.008925  3.606159  -0.006
N  N49  1  0.65446694  0.42646660  0.92033718  1  -0.215132  0.000633  3.218113  0.001  -0.119523  0.000784  3.442829  0.001  -0.135913  0.00047  3.462945  0.001  -0.325825  -0.108424  0.000789  3.428774  0.001
N  N50  1  0.34553428  0.57353127  0.07966714  1  -0.215098  0.000635  3.218095  0.001  -0.119464  0.000783  3.442762  0.001  -0.135858  0.00047  3.462893  0.001  -0.325809  -0.108349  0.000789  3.428659  0.001
O  O51  1  0.45714603  0.34642251  0.36824138  1  -0.772882  0.023435  1.945054  0.041  -0.743183  0.023224  2.163379  0.039  -0.765331  0.018255  2.137193  0.031  -0.563063  -0.725737  0.028536  2.178249  0.046
O  O52  1  0.54285157  0.65357402  0.63175877  1  -0.772891  0.023434  1.945101  0.041  -0.743197  0.023223  2.163429  0.039  -0.765345  0.018255  2.137254  0.031  -0.563101  -0.725752  0.028534  2.178296  0.046
