# generated using pymatgen
data_CuH9C17NO4
_symmetry_space_group_name_H-M   'P 1'
_cell_length_a   11.55937217
_cell_length_b   14.71792672
_cell_length_c   21.75003019
_cell_angle_alpha   89.99987105
_cell_angle_beta   90.00031667
_cell_angle_gamma   89.99972001
_symmetry_Int_Tables_number   1
_chemical_formula_structural   CuH9C17NO4
_chemical_formula_sum   'Cu8 H72 C136 N8 O32'
_cell_volume   3700.33247413
_cell_formula_units_Z   8
loop_
 _symmetry_equiv_pos_site_id
 _symmetry_equiv_pos_as_xyz
  1  'x, y, z'
loop_
 _atom_site_type_symbol
 _atom_site_label
 _atom_site_symmetry_multiplicity
 _atom_site_fract_x
 _atom_site_fract_y
 _atom_site_fract_z
 _atom_site_occupancy
 _atom_site_pbe_bader_charge
 _atom_site_pbe_bader_spin_density
 _atom_site_pbe_cm5_charge
 _atom_site_pbe_ddec_charge
 _atom_site_pbe_ddec_spin_density
 _atom_site_pbe_ddec_sum_bond_order
 _atom_site_pbe_magmom
Cu  Cu0  1  0.98633508  0.04683403  0.94835460  1  1.078892  0.560277  0.691225  0.782175  0.715264  2.356108  0.558
Cu  Cu1  1  0.01365381  0.45316903  0.44835492  1  1.07838  -0.560285  0.691228  0.782173  -0.715281  2.356012  -0.558
Cu  Cu2  1  0.48634362  0.95316843  0.55164706  1  1.078892  0.560295  0.691216  0.782214  0.715283  2.355965  0.558
Cu  Cu3  1  0.51366220  0.54683142  0.05164304  1  1.078528  -0.560257  0.691201  0.782008  -0.715249  2.356345  -0.558
Cu  Cu4  1  0.01365449  0.95317286  0.05164659  1  1.078403  -0.560283  0.691173  0.782076  -0.715276  2.356084  -0.558
Cu  Cu5  1  0.98633403  0.54682835  0.55164719  1  1.078805  0.560269  0.691204  0.782076  0.715254  2.356236  0.558
Cu  Cu6  1  0.51366239  0.04682895  0.44835459  1  1.078291  -0.560259  0.69122  0.782156  -0.715251  2.356165  -0.558
Cu  Cu7  1  0.48634121  0.45317411  0.94835079  1  1.079015  0.560298  0.691225  0.782198  0.715282  2.356005  0.558
H  H8  1  0.98360446  0.50688426  0.32156892  1  0.102013  0.000115  0.114828  0.084848  7.7e-05  1.000052  0.0
H  H9  1  0.01640066  0.99311605  0.82157239  1  0.101865  -0.000115  0.114837  0.08485  -7.7e-05  0.999958  0.0
H  H10  1  0.48360084  0.49311650  0.17842769  1  0.101874  0.000115  0.114869  0.084905  7.7e-05  1.000008  0.0
H  H11  1  0.51639914  0.00688271  0.67842787  1  0.101894  -0.000115  0.11483  0.084863  -7.7e-05  1.000039  0.0
H  H12  1  0.01639809  0.49311312  0.67842998  1  0.101929  -0.000115  0.114843  0.084862  -7.7e-05  1.000001  0.0
H  H13  1  0.98360102  0.00688473  0.17843478  1  0.102004  0.000115  0.114814  0.0848  7.7e-05  1.000109  0.0
H  H14  1  0.51639306  0.50688360  0.82156707  1  0.102038  -0.000115  0.114827  0.084841  -7.7e-05  1.000099  0.0
H  H15  1  0.48359908  0.99311467  0.32157148  1  0.101844  0.000115  0.114835  0.084838  7.7e-05  0.99997  0.0
H  H16  1  0.03510528  0.46966220  0.21307435  1  0.084252  2.9e-05  0.108938  0.120734  1.5e-05  0.992691  0.0
H  H17  1  0.96490457  0.03034097  0.71307537  1  0.084215  -2.9e-05  0.108924  0.120677  -1.5e-05  0.992723  0.0
H  H18  1  0.53509801  0.53034225  0.28692414  1  0.084263  2.9e-05  0.108905  0.120647  1.5e-05  0.992766  0.0
H  H19  1  0.46489637  0.96966361  0.78692393  1  0.084309  -2.9e-05  0.108975  0.120741  -1.5e-05  0.992696  0.0
H  H20  1  0.96490938  0.53034266  0.78692685  1  0.084103  -2.9e-05  0.108907  0.120697  -1.5e-05  0.992733  0.0
H  H21  1  0.03510577  0.96965777  0.28692950  1  0.084181  2.9e-05  0.108911  0.120637  1.5e-05  0.992843  0.0
H  H22  1  0.46489675  0.46965581  0.71307154  1  0.084235  -2.9e-05  0.108883  0.120593  -1.5e-05  0.992722  0.0
H  H23  1  0.53508888  0.03034261  0.21307496  1  0.084133  2.9e-05  0.108918  0.12071  1.5e-05  0.992706  0.0
H  H24  1  0.09215692  0.26734313  0.44232346  1  0.126708  8.9e-05  0.107454  0.123579  7.5e-05  1.026715  0.0
H  H25  1  0.90783624  0.23264636  0.94232769  1  0.12666  -8.9e-05  0.107482  0.123615  -7.5e-05  1.026706  0.0
H  H26  1  0.59215897  0.73264820  0.05767014  1  0.126551  8.9e-05  0.107462  0.123578  7.5e-05  1.026784  0.0
H  H27  1  0.40784777  0.76734212  0.55768018  1  0.126651  -8.9e-05  0.107446  0.123564  -7.5e-05  1.026667  0.0
H  H28  1  0.90784044  0.73264746  0.55767267  1  0.12665  -8.9e-05  0.107484  0.123594  -7.5e-05  1.026728  0.0
H  H29  1  0.09215506  0.76735510  0.05767810  1  0.126778  8.9e-05  0.107471  0.123529  7.5e-05  1.026695  0.0
H  H30  1  0.40785482  0.26734510  0.94232462  1  0.126534  -8.9e-05  0.107435  0.123515  -7.5e-05  1.026686  0.0
H  H31  1  0.59216429  0.23264507  0.44232837  1  0.12662  8.9e-05  0.107471  0.123601  7.5e-05  1.02671  0.0
H  H32  1  0.21060058  0.12669201  0.42739181  1  0.067606  1.3e-05  0.103492  0.110391  1.2e-05  0.996179  0.0
H  H33  1  0.78939069  0.37329617  0.92739639  1  0.067739  -1.3e-05  0.103504  0.110311  -1.2e-05  0.996197  0.0
H  H34  1  0.71060966  0.87329617  0.07259984  1  0.067636  1.3e-05  0.10355  0.110387  1.2e-05  0.996409  0.0
H  H35  1  0.28940416  0.62669071  0.57261204  1  0.068595  -1.3e-05  0.103521  0.110382  -1.2e-05  0.996102  0.0
H  H36  1  0.78938639  0.87329654  0.57260111  1  0.067628  -1.3e-05  0.103475  0.110315  -1.2e-05  0.996141  0.0
H  H37  1  0.21060407  0.62670393  0.07260710  1  0.067667  1.3e-05  0.10354  0.110385  1.2e-05  0.996168  0.0
H  H38  1  0.28940240  0.12669782  0.92739629  1  0.067666  -1.3e-05  0.103501  0.110301  -1.2e-05  0.996199  0.0
H  H39  1  0.71060877  0.37329580  0.42739651  1  0.067734  1.3e-05  0.103503  0.110301  1.2e-05  0.996219  0.0
H  H40  1  0.28768049  0.08859360  0.32465508  1  0.082625  -3e-05  0.097673  0.094427  -3e-05  1.038504  0.0
H  H41  1  0.71232358  0.41140375  0.82465846  1  0.082309  3e-05  0.09766  0.094414  3e-05  1.038516  0.0
H  H42  1  0.78767913  0.91140312  0.17533680  1  0.082721  -3e-05  0.097662  0.094454  -3e-05  1.03852  0.0
H  H43  1  0.21231930  0.58859292  0.67534882  1  0.082571  3e-05  0.09765  0.094366  3e-05  1.038489  0.0
H  H44  1  0.71231341  0.91140106  0.67533921  1  0.082834  3e-05  0.097711  0.094568  3e-05  1.038475  0.0
H  H45  1  0.28768243  0.58859567  0.17534227  1  0.082274  -3e-05  0.097661  0.094445  -3e-05  1.038472  0.0
H  H46  1  0.21231477  0.08859834  0.82466026  1  0.082929  3e-05  0.097662  0.094475  3e-05  1.03843  0.0
H  H47  1  0.78767805  0.41140310  0.32465927  1  0.082354  -3e-05  0.09766  0.094433  -3e-05  1.038478  0.0
H  H48  1  0.24039168  0.18385998  0.23422196  1  0.090927  4e-06  0.100236  0.102609  4e-06  1.018993  0.0
H  H49  1  0.75961751  0.31614720  0.73422241  1  0.090599  -4e-06  0.100251  0.102597  -4e-06  1.018994  0.0
H  H50  1  0.74038408  0.81614507  0.26577254  1  0.090742  4e-06  0.100313  0.102743  4e-06  1.018996  0.0
H  H51  1  0.25960490  0.68385950  0.76578134  1  0.090812  -4e-06  0.100292  0.10271  -4e-06  1.018957  0.0
H  H52  1  0.75961519  0.81614284  0.76577463  1  0.091036  -4e-06  0.100268  0.102662  -4e-06  1.019049  0.0
H  H53  1  0.24039023  0.68385290  0.26577879  1  0.090855  4e-06  0.100281  0.102711  4e-06  1.019026  0.0
H  H54  1  0.25960636  0.18385774  0.73422452  1  0.090993  -4e-06  0.100249  0.102635  -4e-06  1.019054  0.0
H  H55  1  0.74038294  0.31614400  0.23422399  1  0.09066  4e-06  0.10027  0.102673  4e-06  1.019014  0.0
H  H56  1  0.23987487  0.44485610  0.16100348  1  0.087036  -0.000285  0.104956  0.10666  -0.00026  1.034256  0.0
H  H57  1  0.76014223  0.05514181  0.66100707  1  0.087017  0.000285  0.104998  0.106729  0.00026  1.034172  0.0
H  H58  1  0.73987662  0.55514963  0.33899378  1  0.087067  -0.000285  0.105019  0.106761  -0.00026  1.034243  0.0
H  H59  1  0.26013127  0.94486217  0.83899575  1  0.086938  0.000285  0.105012  0.106809  0.00026  1.034206  0.0
H  H60  1  0.76013287  0.55515011  0.83899220  1  0.087115  0.000285  0.10502  0.106738  0.00026  1.034194  0.0
H  H61  1  0.23988108  0.94484606  0.33899596  1  0.08711  -0.000285  0.104998  0.106673  -0.00026  1.034233  0.0
H  H62  1  0.26012333  0.44484979  0.66100557  1  0.087116  0.000285  0.105048  0.10683  0.00026  1.034171  0.0
H  H63  1  0.73986609  0.05514676  0.16100682  1  0.087076  -0.000285  0.104998  0.106745  -0.00026  1.034202  0.0
H  H64  1  0.21357116  0.27982402  0.99853757  1  0.144769  0.000385  0.113095  0.126195  0.000375  1.007806  0.0
H  H65  1  0.78643555  0.22017003  0.49853825  1  0.144838  -0.000385  0.113157  0.126252  -0.000375  1.00766  0.0
H  H66  1  0.71356839  0.72017944  0.50145914  1  0.144875  0.000385  0.113169  0.126255  0.000374  1.007662  0.0
H  H67  1  0.28643086  0.77983146  0.00146329  1  0.144796  -0.000385  0.113156  0.126265  -0.000374  1.007642  0.0
H  H68  1  0.78643398  0.72017947  0.00145948  1  0.14508  -0.000385  0.113166  0.126249  -0.000374  1.007717  0.0
H  H69  1  0.21356354  0.77981988  0.50146478  1  0.144885  0.000385  0.113106  0.12623  0.000375  1.007741  0.0
H  H70  1  0.28643415  0.27982337  0.49853654  1  0.144929  -0.000385  0.113116  0.126246  -0.000374  1.00768  0.0
H  H71  1  0.71356996  0.22017951  0.99853882  1  0.144847  0.000385  0.11316  0.126183  0.000375  1.007651  0.0
H  H72  1  0.06103298  0.18787185  0.16809259  1  0.090774  -0.000153  0.108786  0.114932  -0.00013  1.001019  0.0
H  H73  1  0.93895738  0.31213622  0.66809587  1  0.090557  0.000153  0.108819  0.115058  0.00013  1.000999  0.0
H  H74  1  0.56103905  0.81213454  0.33189954  1  0.090502  -0.000153  0.10879  0.114984  -0.00013  1.000944  0.0
H  H75  1  0.43896012  0.68787253  0.83190565  1  0.090684  0.000153  0.108786  0.114945  0.00013  1.001048  0.0
H  H76  1  0.93895832  0.81213776  0.83190217  1  0.090487  0.000153  0.108804  0.115011  0.00013  1.001025  0.0
H  H77  1  0.06103738  0.68786320  0.33190808  1  0.090701  -0.000153  0.10884  0.115084  -0.00013  1.000967  0.0
H  H78  1  0.43895831  0.18786149  0.66809614  1  0.090548  0.000153  0.108828  0.115045  0.00013  1.001004  0.0
H  H79  1  0.56103724  0.31213572  0.16809462  1  0.090661  -0.000153  0.108844  0.115074  -0.00013  1.000975  0.0
C  C80  1  0.02614604  0.44263582  0.31067973  1  0.505047  0.000739  0.048565  0.113786  0.000489  3.994521  0.0
C  C81  1  0.97385529  0.05736362  0.81068121  1  0.505687  -0.000739  0.048571  0.113815  -0.00049  3.994461  0.0
C  C82  1  0.52614452  0.55736322  0.18931918  1  0.504712  0.000739  0.048499  0.113667  0.00049  3.994484  0.0
C  C83  1  0.47385492  0.94263549  0.68931812  1  0.505157  -0.000739  0.048546  0.113715  -0.00049  3.994597  0.0
C  C84  1  0.97385651  0.55736224  0.68932008  1  0.50496  -0.000739  0.048527  0.113736  -0.00049  3.994464  0.0
C  C85  1  0.02614553  0.94263716  0.18932229  1  0.505097  0.000739  0.04847  0.113687  0.000489  3.994491  0.0
C  C86  1  0.47385457  0.44263620  0.81067741  1  0.505008  -0.000739  0.048444  0.113617  -0.00049  3.994454  0.0
C  C87  1  0.52614157  0.05736461  0.31068031  1  0.505083  0.000739  0.048511  0.113764  0.00049  3.994349  0.0
C  C88  1  0.05647356  0.42195225  0.24970609  1  -0.061535  5.1e-05  -0.092144  -0.19578  3.5e-05  3.980643  0.0
C  C89  1  0.94353320  0.07804876  0.74971020  1  -0.061785  -5e-05  -0.092178  -0.19574  -3.5e-05  3.980885  0.0
C  C90  1  0.55647080  0.57804872  0.25028832  1  -0.061182  5e-05  -0.092142  -0.19566  3.5e-05  3.981053  0.0
C  C91  1  0.44352666  0.92195454  0.75029272  1  -0.061645  -5e-05  -0.092179  -0.195694  -3.5e-05  3.980738  0.0
C  C92  1  0.94353244  0.57804785  0.75029051  1  -0.061119  -5.1e-05  -0.092181  -0.195789  -3.5e-05  3.980922  0.0
C  C93  1  0.05647281  0.92195066  0.25029743  1  -0.06163  5.1e-05  -0.092015  -0.195475  3.5e-05  3.980474  0.0
C  C94  1  0.44352742  0.42194730  0.74970551  1  -0.06158  -5.1e-05  -0.091979  -0.195348  -3.5e-05  3.980585  0.0
C  C95  1  0.55646464  0.07804895  0.24970985  1  -0.061145  5.1e-05  -0.09217  -0.195781  3.5e-05  3.980952  0.0
C  C96  1  0.11232281  0.34088029  0.23650855  1  -0.019663  0.000884  0.014149  0.069206  0.000591  3.971635  0.001
C  C97  1  0.88768468  0.15912008  0.73651053  1  -0.01984  -0.000884  0.014124  0.069129  -0.000592  3.97133  -0.001
C  C98  1  0.61232139  0.65911912  0.26348649  1  -0.020059  0.000884  0.014085  0.069061  0.000592  3.971451  0.001
C  C99  1  0.38767535  0.84088410  0.76349176  1  -0.019581  -0.000884  0.014166  0.069093  -0.000591  3.971728  -0.001
C  C100  1  0.88768319  0.65911913  0.76348805  1  -0.019902  -0.000884  0.014106  0.069139  -0.000591  3.971399  -0.001
C  C101  1  0.11232047  0.84087866  0.26349342  1  -0.019536  0.000883  0.01411  0.069101  0.000591  3.971561  0.001
C  C102  1  0.38767769  0.34087826  0.73650965  1  -0.019679  -0.000884  0.014051  0.068931  -0.000591  3.971655  -0.001
C  C103  1  0.61231509  0.15911871  0.23651173  1  -0.019803  0.000884  0.014138  0.06912  0.000592  3.971472  0.001
C  C104  1  0.13956522  0.28161977  0.28643040  1  -0.061075  1.9e-05  -0.004661  -0.006104  8e-06  3.956938  0.0
C  C105  1  0.86043759  0.21838179  0.78643267  1  -0.060787  -1.9e-05  -0.00466  -0.006127  -8e-06  3.956984  0.0
C  C106  1  0.63956377  0.71838090  0.21356380  1  -0.061111  1.9e-05  -0.004625  -0.005956  8e-06  3.956757  0.0
C  C107  1  0.36043418  0.78161910  0.71357091  1  -0.060633  -1.9e-05  -0.004665  -0.00605  -8e-06  3.957012  0.0
C  C108  1  0.86043473  0.71838169  0.71356573  1  -0.061279  -1.9e-05  -0.004608  -0.006062  -8e-06  3.956865  0.0
C  C109  1  0.13956410  0.78161763  0.21357082  1  -0.060579  1.9e-05  -0.004619  -0.005963  8e-06  3.956872  0.0
C  C110  1  0.36043358  0.28161648  0.78643188  1  -0.061439  -1.9e-05  -0.004611  -0.00599  -8e-06  3.95693  0.0
C  C111  1  0.63956490  0.21837896  0.28643442  1  -0.061274  1.9e-05  -0.004606  -0.006018  8e-06  3.956861  0.0
C  C112  1  0.10164471  0.30708800  0.34703714  1  0.449822  0.000308  0.114087  0.213335  0.000183  3.963186  0.0
C  C113  1  0.89835699  0.19291064  0.84703910  1  0.449834  -0.000309  0.114078  0.213372  -0.000183  3.963073  0.0
C  C114  1  0.60164280  0.69290941  0.15295695  1  0.449882  0.000309  0.113993  0.213169  0.000183  3.96316  0.0
C  C115  1  0.39835886  0.80708807  0.65296552  1  0.449415  -0.000309  0.114132  0.213424  -0.000183  3.963049  0.0
C  C116  1  0.89835698  0.69290666  0.65295945  1  0.449905  -0.000309  0.114026  0.213291  -0.000183  3.963098  0.0
C  C117  1  0.10164036  0.80709149  0.15296393  1  0.449308  0.000308  0.114005  0.213183  0.000183  3.963434  0.0
C  C118  1  0.39835974  0.30709001  0.84703827  1  0.449849  -0.000309  0.114038  0.213206  -0.000183  3.963149  0.0
C  C119  1  0.60164455  0.19290727  0.34704027  1  0.449809  0.000308  0.114005  0.213269  0.000183  3.963149  0.0
C  C120  1  0.12482029  0.24827728  0.39720543  1  0.055777  -0.000145  -0.084277  -0.154704  -8.4e-05  3.93011  0.0
C  C121  1  0.87517933  0.25171848  0.89720815  1  0.05588  0.000145  -0.08429  -0.154786  8.4e-05  3.930214  0.0
C  C122  1  0.62482182  0.75171733  0.10278873  1  0.055868  -0.000145  -0.0843  -0.154748  -8.4e-05  3.930139  0.0
C  C123  1  0.37518020  0.74827081  0.60279870  1  0.055714  0.000145  -0.084303  -0.154739  8.4e-05  3.930335  0.0
C  C124  1  0.87517361  0.75172078  0.60279117  1  0.055883  0.000145  -0.084253  -0.154671  8.4e-05  3.930295  0.0
C  C125  1  0.12481976  0.74828162  0.10279810  1  0.055797  -0.000145  -0.084217  -0.154492  -8.4e-05  3.930101  0.0
C  C126  1  0.37518246  0.24827734  0.89720648  1  0.055852  0.000145  -0.084218  -0.154538  8.4e-05  3.930016  0.0
C  C127  1  0.62482408  0.25171570  0.39720847  1  0.055871  -0.000145  -0.084267  -0.154748  -8.4e-05  3.930187  0.0
C  C128  1  0.18942262  0.17052641  0.38862904  1  -0.125082  6.8e-05  -0.083495  -0.05571  3.6e-05  3.98291  0.0
C  C129  1  0.81057691  0.32946733  0.88863237  1  -0.125506  -6.8e-05  -0.083392  -0.055407  -3.6e-05  3.983199  0.0
C  C130  1  0.68942460  0.82946863  0.11136301  1  -0.125393  6.8e-05  -0.083419  -0.055399  3.6e-05  3.983349  0.0
C  C131  1  0.31058270  0.67052627  0.61137474  1  -0.126046  -6.8e-05  -0.083452  -0.055603  -3.6e-05  3.983117  0.0
C  C132  1  0.81057474  0.82946485  0.61136572  1  -0.125399  -6.8e-05  -0.083445  -0.055478  -3.6e-05  3.983417  0.0
C  C133  1  0.18942045  0.67053141  0.11137112  1  -0.125229  6.8e-05  -0.083508  -0.055652  3.6e-05  3.983123  0.0
C  C134  1  0.31058228  0.17053078  0.88863129  1  -0.125244  -6.8e-05  -0.083463  -0.055502  -3.6e-05  3.983391  0.0
C  C135  1  0.68942417  0.32946772  0.38863335  1  -0.125473  6.8e-05  -0.083427  -0.055404  3.6e-05  3.983104  0.0
C  C136  1  0.23241089  0.14801647  0.32971932  1  -0.029883  -0.000134  -0.090823  -0.077567  -9.1e-05  4.01954  0.0
C  C137  1  0.76759064  0.35198223  0.82972157  1  -0.028462  0.000134  -0.09091  -0.077702  9.1e-05  4.019662  0.0
C  C138  1  0.73241072  0.85198046  0.17027332  1  -0.029023  -0.000134  -0.090913  -0.077855  -9.1e-05  4.019808  0.0
C  C139  1  0.26759112  0.64801628  0.67028542  1  -0.029692  0.000134  -0.090822  -0.077497  9.1e-05  4.01926  0.0
C  C140  1  0.76758647  0.85198295  0.67027452  1  -0.029127  0.000134  -0.090919  -0.077933  9.1e-05  4.019597  0.0
C  C141  1  0.23240932  0.64801855  0.17028008  1  -0.02936  -0.000134  -0.090865  -0.077699  -9.1e-05  4.019535  0.0
C  C142  1  0.26759009  0.14801624  0.82972419  1  -0.029203  0.000134  -0.090848  -0.077769  9.1e-05  4.019526  0.0
C  C143  1  0.73240710  0.35197906  0.32972267  1  -0.028492  -0.000134  -0.090882  -0.077733  -9.1e-05  4.01978  0.0
C  C144  1  0.20681910  0.20148609  0.27951057  1  -0.037936  -6.1e-05  -0.094267  -0.134715  -3.9e-05  4.005546  0.0
C  C145  1  0.79318537  0.29851210  0.77951160  1  -0.0387  6.2e-05  -0.094292  -0.134738  3.9e-05  4.005622  0.0
C  C146  1  0.70681720  0.79851161  0.22048475  1  -0.038144  -6.2e-05  -0.094368  -0.134894  -3.9e-05  4.005584  0.0
C  C147  1  0.29318169  0.70148700  0.72049316  1  -0.037862  6.2e-05  -0.094357  -0.134954  3.9e-05  4.005627  0.0
C  C148  1  0.79318518  0.79851061  0.72048786  1  -0.038525  6.2e-05  -0.094335  -0.134762  4e-05  4.005513  0.0
C  C149  1  0.20681804  0.70148664  0.22049189  1  -0.037878  -6.2e-05  -0.094333  -0.134886  -3.9e-05  4.005585  0.0
C  C150  1  0.29318275  0.20148849  0.77951231  1  -0.038277  6.2e-05  -0.094289  -0.134743  4e-05  4.005561  0.0
C  C151  1  0.70681653  0.29851106  0.27951309  1  -0.038188  -6.2e-05  -0.094326  -0.134836  -3.9e-05  4.005691  0.0
C  C152  1  0.14377409  0.32003433  0.17205583  1  -0.015687  0.001367  -0.006016  0.062597  0.000959  4.017727  0.001
C  C153  1  0.85623621  0.17996830  0.67205584  1  -0.015965  -0.001365  -0.005944  0.062919  -0.000958  4.017741  -0.001
C  C154  1  0.64377059  0.67997175  0.32794160  1  -0.015945  0.001366  -0.005969  0.062755  0.000959  4.017886  0.001
C  C155  1  0.35622680  0.82003940  0.82794497  1  -0.015735  -0.001365  -0.00602  0.062725  -0.000958  4.018009  -0.001
C  C156  1  0.85623711  0.67997324  0.82794215  1  -0.01589  -0.001366  -0.005869  0.062851  -0.000958  4.01774  -0.001
C  C157  1  0.14377413  0.82002773  0.32794535  1  -0.015754  0.001367  -0.006018  0.062648  0.000959  4.017795  0.001
C  C158  1  0.35622503  0.32002699  0.67205683  1  -0.015787  -0.001366  -0.006017  0.062682  -0.000959  4.017685  -0.001
C  C159  1  0.64376363  0.17996953  0.17205714  1  -0.015928  0.001367  -0.005933  0.062895  0.000959  4.017714  0.001
C  C160  1  0.20798654  0.38367095  0.13857040  1  -0.020188  0.000884  -0.074967  -0.129818  0.000541  3.917523  0.001
C  C161  1  0.79202774  0.11632771  0.63857354  1  -0.019819  -0.000885  -0.075048  -0.130066  -0.000542  3.917471  -0.001
C  C162  1  0.70798380  0.61633218  0.36142400  1  -0.020088  0.000884  -0.07503  -0.130044  0.000541  3.917491  0.001
C  C163  1  0.29201826  0.88367683  0.86142846  1  -0.020027  -0.000886  -0.075053  -0.130072  -0.000542  3.917595  -0.001
C  C164  1  0.79201860  0.61633254  0.86142389  1  -0.019866  -0.000885  -0.075089  -0.130091  -0.000542  3.917276  -0.001
C  C165  1  0.20799038  0.88366423  0.36142765  1  -0.020214  0.000885  -0.074996  -0.129832  0.000541  3.917194  0.001
C  C166  1  0.29201009  0.38366452  0.63857351  1  -0.020169  -0.000886  -0.074972  -0.12998  -0.000542  3.917336  -0.001
C  C167  1  0.70797736  0.11633075  0.13857503  1  -0.019867  0.000883  -0.075043  -0.130131  0.000541  3.917539  0.001
C  C168  1  0.23515470  0.36860502  0.07676870  1  -0.071707  -0.000864  -0.015008  -0.019238  -0.000609  3.978956  -0.001
C  C169  1  0.76485462  0.13139589  0.57676990  1  -0.072471  0.000874  -0.015018  -0.019133  0.000616  3.978868  0.001
C  C170  1  0.73515163  0.63140005  0.42322900  1  -0.072159  -0.000872  -0.014959  -0.019091  -0.000615  3.978655  -0.001
C  C171  1  0.26484760  0.86861011  0.92323248  1  -0.072032  0.000868  -0.01497  -0.019245  0.000612  3.978791  0.001
C  C172  1  0.76485131  0.63140527  0.92322743  1  -0.072307  0.000874  -0.014858  -0.018914  0.000617  3.978744  0.001
C  C173  1  0.23515053  0.86859810  0.42323451  1  -0.072315  -0.000866  -0.015016  -0.019332  -0.00061  3.978764  -0.001
C  C174  1  0.26484745  0.36859869  0.57676943  1  -0.072455  0.000869  -0.015066  -0.019219  0.000611  3.978673  0.001
C  C175  1  0.73514975  0.13140154  0.07677147  1  -0.072368  -0.00087  -0.014918  -0.018998  -0.000614  3.978789  -0.001
C  C176  1  0.19472095  0.29063289  0.04704093  1  -0.020238  -0.002277  -0.068273  -0.09432  -0.001457  3.888709  -0.002
C  C177  1  0.80528374  0.20936676  0.54704534  1  -0.019819  0.002275  -0.068239  -0.094326  0.001456  3.888748  0.002
C  C178  1  0.69472200  0.70937301  0.45295390  1  -0.019773  -0.002277  -0.068274  -0.094303  -0.001457  3.888766  -0.002
C  C179  1  0.30528100  0.79063773  0.95295762  1  -0.020255  0.002274  -0.068328  -0.094334  0.001455  3.888748  0.002
C  C180  1  0.80527901  0.70937197  0.95295245  1  -0.020022  0.002273  -0.068295  -0.094331  0.001455  3.889046  0.002
C  C181  1  0.19471881  0.79062722  0.45295861  1  -0.020105  -0.002276  -0.068174  -0.094221  -0.001457  3.888908  -0.002
C  C182  1  0.30527968  0.29062845  0.54704500  1  -0.019998  0.002274  -0.06825  -0.094327  0.001456  3.888842  0.002
C  C183  1  0.69472155  0.20937120  0.04704587  1  -0.019822  -0.002275  -0.068239  -0.094147  -0.001456  3.888651  -0.002
C  C184  1  0.13327508  0.22550285  0.08047716  1  -0.011341  -0.000447  -0.010432  -0.011555  -0.000333  3.967467  0.0
C  C185  1  0.86672216  0.27450145  0.58047706  1  -0.011255  0.000444  -0.010499  -0.011497  0.000331  3.967265  0.0
C  C186  1  0.63327884  0.77450396  0.41951932  1  -0.011089  -0.000442  -0.010479  -0.011689  -0.00033  3.967556  0.0
C  C187  1  0.36672123  0.72550554  0.91952470  1  -0.011021  0.000453  -0.010431  -0.011605  0.000336  3.967385  0.0
C  C188  1  0.86672227  0.77450540  0.91952081  1  -0.011356  0.000445  -0.010477  -0.011595  0.000332  3.967296  0.0
C  C189  1  0.13327866  0.72549661  0.41952413  1  -0.011754  -0.000448  -0.010508  -0.011525  -0.000334  3.967468  0.0
C  C190  1  0.36671679  0.22549614  0.58047819  1  -0.011353  0.000452  -0.010455  -0.01158  0.000337  3.967539  0.0
C  C191  1  0.63327699  0.27450272  0.08047833  1  -0.011745  -0.00044  -0.010543  -0.011811  -0.000328  3.967337  0.0
C  C192  1  0.10928703  0.23941779  0.14289358  1  0.040307  0.001209  -0.071536  -0.12881  0.000779  3.906719  0.001
C  C193  1  0.89071258  0.26058290  0.64289771  1  0.040642  -0.001211  -0.071632  -0.129218  -0.000781  3.906829  -0.001
C  C194  1  0.60929024  0.76058435  0.35709961  1  0.040616  0.001209  -0.071577  -0.128954  0.000779  3.906906  0.001
C  C195  1  0.39071006  0.73942060  0.85710413  1  0.040519  -0.001211  -0.071531  -0.12882  -0.000781  3.90665  -0.001
C  C196  1  0.89071638  0.76058570  0.85710164  1  0.040557  -0.001211  -0.071687  -0.129125  -0.000781  3.906944  -0.001
C  C197  1  0.10928910  0.73941041  0.35710716  1  0.040209  0.001208  -0.0717  -0.12918  0.000779  3.906865  0.001
C  C198  1  0.39070799  0.23941032  0.64289468  1  0.040297  -0.00121  -0.071626  -0.129034  -0.00078  3.906776  -0.001
C  C199  1  0.60928471  0.26058561  0.14289569  1  0.04048  0.001209  -0.071662  -0.129146  0.000779  3.906852  0.001
C  C200  1  0.31764238  0.43102201  0.04474078  1  1.543083  -1e-06  0.213723  0.570242  7.6e-05  4.171367  0.0
C  C201  1  0.68236834  0.06897494  0.54474550  1  1.54395  -6e-06  0.213697  0.570338  -7.6e-05  4.171252  0.0
C  C202  1  0.81763658  0.56897665  0.45525349  1  1.543611  1e-06  0.213686  0.570305  7.6e-05  4.171305  0.0
C  C203  1  0.18235865  0.93102865  0.95525710  1  1.543656  -2e-06  0.213689  0.570413  -7.8e-05  4.171427  0.0
C  C204  1  0.68236536  0.56897877  0.95524938  1  1.544339  -5e-06  0.213638  0.570175  -7.7e-05  4.171151  0.0
C  C205  1  0.31763940  0.93102041  0.45526213  1  1.543906  3e-06  0.21377  0.570378  7.5e-05  4.171195  0.0
C  C206  1  0.18235558  0.43102005  0.54474264  1  1.543833  -6e-06  0.213702  0.570263  -7.7e-05  4.171303  0.0
C  C207  1  0.81763265  0.06897893  0.04474961  1  1.543717  0.0  0.213632  0.570365  7.7e-05  4.171002  0.0
C  C208  1  0.09171498  0.14076890  0.04923904  1  1.551842  -0.000159  0.214716  0.575383  -0.000123  4.166101  0.0
C  C209  1  0.90827329  0.35923686  0.54924032  1  1.551874  0.000158  0.214773  0.575308  0.000123  4.16611  0.0
C  C210  1  0.59172110  0.85923670  0.45075915  1  1.551766  -0.000157  0.214899  0.575577  -0.000123  4.165904  0.0
C  C211  1  0.40827842  0.64076929  0.95075881  1  1.551716  0.000158  0.214736  0.575357  0.000123  4.166192  0.0
C  C212  1  0.90827718  0.85924139  0.95075847  1  1.55197  0.000159  0.214841  0.575461  0.000123  4.166037  0.0
C  C213  1  0.09172061  0.64076188  0.45076133  1  1.552232  -0.00016  0.214668  0.575235  -0.000124  4.165931  0.0
C  C214  1  0.40827799  0.14076068  0.54924158  1  1.552043  0.000158  0.214828  0.575564  0.000123  4.165952  0.0
C  C215  1  0.59172154  0.35924032  0.04923825  1  1.552478  -0.000159  0.214903  0.575781  -0.000123  4.165562  0.0
N  N216  1  0.04599529  0.38778287  0.35792940  1  -1.196451  0.001548  -0.327693  -0.291554  0.000725  3.449156  0.0
N  N217  1  0.95400307  0.11221573  0.85793210  1  -1.196587  -0.001548  -0.327701  -0.291544  -0.000724  3.449043  0.0
N  N218  1  0.54599552  0.61221678  0.14206545  1  -1.196365  0.001548  -0.32763  -0.291382  0.000725  3.448883  0.0
N  N219  1  0.45400690  0.88778006  0.64207084  1  -1.196534  -0.001548  -0.327717  -0.291588  -0.000724  3.449136  0.0
N  N220  1  0.95400553  0.61221587  0.64206858  1  -1.196595  -0.001548  -0.327643  -0.291456  -0.000724  3.449126  0.0
N  N221  1  0.04599429  0.88778504  0.14207277  1  -1.196486  0.001548  -0.327614  -0.291478  0.000725  3.449341  0.0
N  N222  1  0.45400529  0.38778196  0.85792977  1  -1.196439  -0.001547  -0.327641  -0.291474  -0.000724  3.449144  0.0
N  N223  1  0.54599392  0.11221529  0.35793265  1  -1.196615  0.001549  -0.32767  -0.2915  0.000725  3.448832  0.0
O  O224  1  0.36321143  0.49341109  0.07759179  1  -1.110733  -0.084641  -0.308195  -0.521314  -0.054796  2.405881  -0.076
O  O225  1  0.63677540  0.00660680  0.57759922  1  -1.111057  0.084634  -0.308234  -0.521431  0.054789  2.406002  0.076
O  O226  1  0.86321349  0.50659623  0.42240400  1  -1.110627  -0.084633  -0.308176  -0.521363  -0.054791  2.406062  -0.076
O  O227  1  0.13677622  0.99340578  0.92240140  1  -1.110818  0.08464  -0.308264  -0.521542  0.054795  2.405982  0.076
O  O228  1  0.63677122  0.50661211  0.92239607  1  -1.111607  0.084626  -0.308252  -0.521376  0.054787  2.406103  0.076
O  O229  1  0.36320984  0.99340417  0.42240978  1  -1.110693  -0.084638  -0.308275  -0.521394  -0.054791  2.40568  -0.076
O  O230  1  0.13677176  0.49339436  0.57759949  1  -1.110942  0.084642  -0.308184  -0.521349  0.054794  2.405873  0.076
O  O231  1  0.86321421  0.00659500  0.07759888  1  -1.11074  -0.084634  -0.308206  -0.521456  -0.054792  2.405849  -0.076
O  O232  1  0.34042878  0.41338270  0.98875561  1  -1.107159  0.079396  -0.308782  -0.514823  0.051511  2.382586  0.071
O  O233  1  0.65960292  0.08659848  0.48875013  1  -1.107499  -0.079404  -0.30868  -0.514894  -0.051512  2.382294  -0.071
O  O234  1  0.84041573  0.58661351  0.51124332  1  -1.10736  0.079398  -0.308793  -0.514897  0.051513  2.382277  0.071
O  O235  1  0.15958016  0.91339804  0.01124505  1  -1.107542  -0.07939  -0.308709  -0.514826  -0.051506  2.382563  -0.071
O  O236  1  0.65959886  0.58660381  0.01124605  1  -1.10731  -0.079413  -0.308719  -0.514843  -0.05152  2.382098  -0.071
O  O237  1  0.34042212  0.91338056  0.51124509  1  -1.107216  0.079393  -0.30876  -0.514864  0.05151  2.382741  0.071
O  O238  1  0.15957989  0.41338999  0.48875695  1  -1.107039  -0.079384  -0.308737  -0.514806  -0.051503  2.382584  -0.071
O  O239  1  0.84041287  0.08661497  0.98875660  1  -1.107435  0.079412  -0.308745  -0.5149  0.051521  2.382099  0.071
O  O240  1  0.08376426  0.06987572  0.08250616  1  -1.108259  -0.083399  -0.309787  -0.521917  -0.054077  2.364206  -0.075
O  O241  1  0.91621484  0.43013265  0.58250690  1  -1.108411  0.083396  -0.309871  -0.521929  0.054074  2.364199  0.075
O  O242  1  0.58376525  0.93013467  0.41748787  1  -1.108496  -0.083425  -0.309897  -0.522056  -0.054092  2.364048  -0.075
O  O243  1  0.41621576  0.56987619  0.91749547  1  -1.108485  0.083388  -0.30984  -0.52193  0.05407  2.364495  0.075
O  O244  1  0.91622185  0.93013729  0.91749365  1  -1.108503  0.083392  -0.309823  -0.521938  0.054072  2.364519  0.075
O  O245  1  0.08376868  0.56986677  0.41749521  1  -1.108317  -0.083398  -0.309835  -0.521927  -0.054076  2.364326  -0.075
O  O246  1  0.41621740  0.06986339  0.58250597  1  -1.108601  0.083409  -0.309823  -0.521971  0.054082  2.364297  0.075
O  O247  1  0.58376257  0.43013206  0.08250756  1  -1.108406  -0.083393  -0.30983  -0.522077  -0.054072  2.364105  -0.075
O  O248  1  0.06663710  0.14802517  0.99237700  1  -1.104438  0.087253  -0.305511  -0.513086  0.056397  2.362285  0.079
O  O249  1  0.93335137  0.35197978  0.49237930  1  -1.104468  -0.087251  -0.305526  -0.512999  -0.056396  2.362346  -0.079
O  O250  1  0.56665172  0.85198427  0.50761835  1  -1.104419  0.087227  -0.305602  -0.513098  0.05638  2.362413  0.079
O  O251  1  0.43337009  0.64802796  0.00762268  1  -1.104315  -0.087265  -0.305498  -0.513039  -0.056405  2.362183  -0.079
O  O252  1  0.93335766  0.85198036  0.00762051  1  -1.104405  -0.087257  -0.305583  -0.513111  -0.056399  2.362148  -0.079
O  O253  1  0.06664252  0.64801760  0.50762695  1  -1.104395  0.087265  -0.305401  -0.512947  0.056403  2.36208  0.079
O  O254  1  0.43337159  0.14801990  0.49237962  1  -1.104292  -0.087244  -0.30562  -0.513259  -0.056391  2.362236  -0.079
O  O255  1  0.56665668  0.35198572  0.99237668  1  -1.104568  0.08725  -0.305592  -0.51318  0.056393  2.362226  0.079
