# generated using pymatgen
data_ZnH10C17N2O3
_symmetry_space_group_name_H-M   'P 1'
_cell_length_a   10.66048008
_cell_length_b   12.57701759
_cell_length_c   13.67013330
_cell_angle_alpha   90.00003350
_cell_angle_beta   90.00034979
_cell_angle_gamma   91.25283058
_symmetry_Int_Tables_number   1
_chemical_formula_structural   ZnH10C17N2O3
_chemical_formula_sum   'Zn4 H40 C68 N8 O12'
_cell_volume   1832.41293771
_cell_formula_units_Z   4
loop_
 _symmetry_equiv_pos_site_id
 _symmetry_equiv_pos_as_xyz
  1  'x, y, z'
loop_
 _atom_site_type_symbol
 _atom_site_label
 _atom_site_symmetry_multiplicity
 _atom_site_fract_x
 _atom_site_fract_y
 _atom_site_fract_z
 _atom_site_occupancy
 _atom_site_hle17_bader_spin_density
 _atom_site_hle17_ddec_charge
 _atom_site_hle17_ddec_spin_density
 _atom_site_hle17_ddec_sum_bond_order
 _atom_site_hle17_magmom
 _atom_site_hse06_10hf_bader_spin_density
 _atom_site_hse06_10hf_ddec_charge
 _atom_site_hse06_10hf_ddec_spin_density
 _atom_site_hse06_10hf_ddec_sum_bond_order
 _atom_site_hse06_10hf_magmom
 _atom_site_hse06_bader_spin_density
 _atom_site_hse06_ddec_charge
 _atom_site_hse06_ddec_spin_density
 _atom_site_hse06_ddec_sum_bond_order
 _atom_site_hse06_magmom
 _atom_site_pbe_bader_spin_density
 _atom_site_pbe_cm5_charge
 _atom_site_pbe_ddec_charge
 _atom_site_pbe_ddec_spin_density
 _atom_site_pbe_ddec_sum_bond_order
 _atom_site_pbe_magmom
Zn  Zn0  1  0.46507498  0.12892584  0.43180015  1  0  1.038256  0  1.904569  0  0  0.854612  0  2.389628  0  0  0.902011  0  2.33058  0  0  0.697408  0.821691  0  2.430059  0
Zn  Zn1  1  0.03492119  0.37107511  0.93180089  1  0  1.038242  0  1.904561  0  0  0.854588  0  2.389614  0  0  0.901989  0  2.330562  0  0  0.697411  0.82168  0  2.430067  0
Zn  Zn2  1  0.53492182  0.87107442  0.56820079  1  0  1.038276  0  1.904561  0  0  0.854629  0  2.389623  0  0  0.902027  0  2.330573  0  0  0.697403  0.821678  0  2.430035  0
Zn  Zn3  1  0.96507565  0.62892595  0.06819785  1  0  1.038205  0  1.904544  0  0  0.854557  0  2.389584  0  0  0.901957  0  2.330539  0  0  0.697392  0.821644  0  2.430028  0
H  H4  1  0.68838886  0.08039046  0.15004044  1  0  0.102803  0  0.968295  0  0  0.112069  0  1.032331  0  0  0.115899  0  1.031049  0  0  0.096089  0.109434  0  1.033282  0
H  H5  1  0.81161342  0.41960819  0.65003960  1  0  0.102693  0  0.968418  0  0  0.112031  0  1.032379  0  0  0.115861  0  1.031098  0  0  0.096079  0.109393  0  1.033324  0
H  H6  1  0.31160975  0.91960819  0.84996197  1  0  0.102815  0  0.968358  0  0  0.112111  0  1.03236  0  0  0.11594  0  1.031077  0  0  0.096105  0.109474  0  1.033322  0
H  H7  1  0.18839353  0.58038797  0.34995476  1  0  0.102712  0  0.968335  0  0  0.111962  0  1.032396  0  0  0.115791  0  1.031115  0  0  0.096075  0.109322  0  1.033349  0
H  H8  1  0.80994567  0.21686792  0.05231896  1  0  0.090972  0  0.953223  0  0  0.099619  0  1.018628  0  0  0.102638  0  1.01552  0  0  0.098914  0.097403  0  1.020869  0
H  H9  1  0.69005317  0.28313387  0.55231894  1  0  0.090959  0  0.953238  0  0  0.099608  0  1.018643  0  0  0.102624  0  1.01554  0  0  0.0989  0.097384  0  1.020876  0
H  H10  1  0.19005391  0.78313152  0.94768344  1  0  0.090974  0  0.953229  0  0  0.099624  0  1.018634  0  0  0.102641  0  1.015529  0  0  0.098885  0.097404  0  1.020877  0
H  H11  1  0.30994818  0.71686316  0.44768273  1  0  0.090883  0  0.95328  0  0  0.099549  0  1.018676  0  0  0.102568  0  1.015566  0  0  0.098863  0.097319  0  1.020902  0
H  H12  1  0.67564950  0.46334113  0.23823423  1  0  0.093904  0  0.961762  0  0  0.102366  0  1.028588  0  0  0.105606  0  1.025473  0  0  0.101185  0.099929  0  1.030866  0
H  H13  1  0.82434694  0.03665847  0.73823399  1  0  0.09393  0  0.961757  0  0  0.102402  0  1.028576  0  0  0.105648  0  1.025453  0  0  0.101205  0.099963  0  1.030858  0
H  H14  1  0.32435015  0.53665990  0.76176598  1  0  0.093932  0  0.961796  0  0  0.102397  0  1.028615  0  0  0.105637  0  1.025499  0  0  0.101202  0.099963  0  1.030898  0
H  H15  1  0.17564882  0.96333942  0.26176988  1  0  0.093925  0  0.961746  0  0  0.102391  0  1.028574  0  0  0.105632  0  1.025459  0  0  0.101212  0.099983  0  1.030843  0
H  H16  1  0.53666892  0.43500206  0.35745877  1  0  0.052931  0  0.950226  0  0  0.065173  0  1.016857  0  0  0.067568  0  1.013153  0  0  0.108381  0.063279  0  1.019704  0
H  H17  1  0.96333217  0.06499680  0.85745848  1  0  0.05291  0  0.95028  0  0  0.065152  0  1.016905  0  0  0.067545  0  1.013204  0  0  0.108368  0.063251  0  1.019766  0
H  H18  1  0.46333258  0.56499815  0.64254363  1  0  0.052911  0  0.950303  0  0  0.065168  0  1.016911  0  0  0.067561  0  1.013212  0  0  0.108385  0.063256  0  1.019786  0
H  H19  1  0.03667203  0.93500099  0.14254027  1  0  0.05288  0  0.950332  0  0  0.065141  0  1.016937  0  0  0.067536  0  1.013236  0  0  0.108378  0.063256  0  1.019796  0
H  H20  1  0.37489389  0.50061326  0.41223768  1  0  0.095555  0  0.958918  0  0  0.107488  0  1.021078  0  0  0.110231  0  1.019819  0  0  0.102957  0.105453  0  1.022136  0
H  H21  1  0.12510918  0.99938853  0.91223453  1  0  0.095481  0  0.959026  0  0  0.107414  0  1.021184  0  0  0.110183  0  1.019895  0  0  0.102915  0.105384  0  1.022242  0
H  H22  1  0.62510944  0.49938613  0.58776400  1  0  0.095563  0  0.958942  0  0  0.107483  0  1.021111  0  0  0.110258  0  1.019814  0  0  0.102938  0.105453  0  1.02218  0
H  H23  1  0.87489238  0.00061327  0.08776129  1  0  0.095537  0  0.958965  0  0  0.107467  0  1.021125  0  0  0.110227  0  1.019845  0  0  0.102953  0.105441  0  1.022198  0
H  H24  1  0.22462589  0.57257414  0.53092235  1  0  0.095105  0  0.948698  0  0  0.109043  0  1.002526  0  0  0.111209  0  1.002691  0  0  0.106083  0.107473  0  1.002449  0
H  H25  1  0.27537507  0.92742574  0.03091793  1  0  0.095068  0  0.94874  0  0  0.109018  0  1.002565  0  0  0.111186  0  1.002726  0  0  0.106069  0.107449  0  1.002486  0
H  H26  1  0.77537654  0.42742605  0.46907859  1  0  0.095077  0  0.948751  0  0  0.109057  0  1.002531  0  0  0.111224  0  1.002695  0  0  0.106104  0.107497  0  1.002471  0
H  H27  1  0.72462271  0.07257532  0.96908008  1  0  0.095076  0  0.948726  0  0  0.10902  0  1.002559  0  0  0.111188  0  1.002719  0  0  0.106089  0.107464  0  1.002496  0
H  H28  1  0.13969726  0.46005043  0.66710587  1  0  0.120721  0  0.933341  0  0  0.130779  0  0.990903  0  0  0.13438  0  0.989029  0  0  0.112385  0.128112  0  0.992405  0
H  H29  1  0.36030219  0.03994387  0.16710531  1  0  0.120693  0  0.93338  0  0  0.130758  0  0.990931  0  0  0.134358  0  0.989061  0  0  0.112402  0.128091  0  0.992434  0
H  H30  1  0.86030427  0.53995057  0.33289507  1  0  0.120779  0  0.933281  0  0  0.130819  0  0.99087  0  0  0.134425  0  0.988992  0  0  0.11239  0.12815  0  0.992382  0
H  H31  1  0.63969556  0.96005638  0.83289270  1  0  0.120679  0  0.933402  0  0  0.130735  0  0.990975  0  0  0.134337  0  0.9891  0  0  0.112386  0.128066  0  0.992478  0
H  H32  1  0.13640471  0.28618919  0.75364850  1  0  0.102936  0  0.979925  0  0  0.109681  0  1.04872  0  0  0.112666  0  1.046539  0  0  0.108849  0.107535  0  1.050221  0
H  H33  1  0.36359458  0.21380759  0.25365171  1  0  0.102892  0  0.979894  0  0  0.109762  0  1.048548  0  0  0.112749  0  1.046365  0  0  0.108898  0.107614  0  1.050036  0
H  H34  1  0.86359397  0.71381105  0.24635317  1  0  0.102916  0  0.979886  0  0  0.109664  0  1.048684  0  0  0.11265  0  1.046502  0  0  0.108818  0.107514  0  1.050199  0
H  H35  1  0.63640604  0.78619422  0.74634558  1  0  0.102921  0  0.979888  0  0  0.109793  0  1.048538  0  0  0.112779  0  1.046355  0  0  0.108915  0.107635  0  1.050026  0
H  H36  1  0.20504963  0.09562885  0.75950372  1  0  0.09965  0  0.959974  0  0  0.110494  0  1.019121  0  0  0.113105  0  1.019222  0  0  0.104403  0.108608  0  1.01929  0
H  H37  1  0.29495061  0.40436712  0.25950596  1  0  0.099697  0  0.959856  0  0  0.110481  0  1.019069  0  0  0.113092  0  1.01917  0  0  0.104389  0.108592  0  1.019228  0
H  H38  1  0.79494617  0.90436984  0.24049722  1  0  0.09965  0  0.959949  0  0  0.11047  0  1.019124  0  0  0.113081  0  1.019224  0  0  0.104389  0.108591  0  1.019307  0
H  H39  1  0.70504814  0.59563471  0.74049059  1  0  0.099707  0  0.959845  0  0  0.110472  0  1.019084  0  0  0.113083  0  1.019185  0  0  0.10439  0.108581  0  1.01925  0
H  H40  1  0.34391254  0.02881735  0.62666334  1  0  0.093849  0  0.960701  0  0  0.099472  0  1.027392  0  0  0.10319  0  1.022903  0  0  0.117658  0.09671  0  1.030678  0
H  H41  1  0.15608680  0.47118170  0.12666568  1  0  0.093859  0  0.960689  0  0  0.099466  0  1.02741  0  0  0.103184  0  1.022921  0  0  0.117649  0.096707  0  1.030694  0
H  H42  1  0.65608517  0.97118211  0.37333687  1  0  0.093864  0  0.960693  0  0  0.099491  0  1.027387  0  0  0.10321  0  1.022897  0  0  0.117678  0.096732  0  1.030677  0
H  H43  1  0.84391004  0.52881937  0.87333233  1  0  0.093842  0  0.960732  0  0  0.099502  0  1.027386  0  0  0.103221  0  1.022896  0  0  0.117672  0.096746  0  1.030674  0
C  C44  1  0.61370332  0.19243902  0.25199906  1  0  0.386346  0  3.826556  0  0  0.370594  0  4.078786  0  0  0.393135  0  4.090451  0  0  0.108919  0.355657  0  4.070269  0
C  C45  1  0.88629607  0.30756135  0.75199998  1  0  0.386371  0  3.826479  0  0  0.370544  0  4.078821  0  0  0.393087  0  4.090487  0  0  0.108891  0.355612  0  4.070303  0
C  C46  1  0.38629636  0.80756280  0.74800261  1  0  0.386193  0  3.826957  0  0  0.370472  0  4.079152  0  0  0.393012  0  4.09082  0  0  0.108798  0.355532  0  4.070619  0
C  C47  1  0.11370532  0.69243647  0.24799949  1  0  0.3861  0  3.826934  0  0  0.370471  0  4.078999  0  0  0.393012  0  4.090669  0  0  0.108821  0.35554  0  4.070468  0
C  C48  1  0.68806929  0.16456196  0.16908489  1  0  -0.229164  0  3.745274  0  0  -0.246291  0  3.999215  0  0  -0.259089  0  4.019442  0  0  -0.119187  -0.238045  0  3.98544  0
C  C49  1  0.81193233  0.33543990  0.66908329  1  0  -0.22899  0  3.745117  0  0  -0.246156  0  3.999084  0  0  -0.258954  0  4.01931  0  0  -0.119164  -0.237912  0  3.98529  0
C  C50  1  0.31193321  0.83543982  0.83091970  1  0  -0.228967  0  3.745389  0  0  -0.246125  0  3.9993  0  0  -0.258924  0  4.019528  0  0  -0.119106  -0.237894  0  3.985539  0
C  C51  1  0.18807204  0.66456186  0.33091546  1  0  -0.228862  0  3.745267  0  0  -0.24601  0  3.999197  0  0  -0.258809  0  4.019428  0  0  -0.11913  -0.237776  0  3.985406  0
C  C52  1  0.75393152  0.23957025  0.11550915  1  0  -0.01984  0  3.764081  0  0  -0.045473  0  4.013939  0  0  -0.037444  0  4.032381  0  0  -0.081745  -0.050272  0  4.001215  0
C  C53  1  0.74606493  0.26043003  0.61551011  1  0  -0.019868  0  3.76413  0  0  -0.045567  0  4.013994  0  0  -0.037537  0  4.032432  0  0  -0.081751  -0.050356  0  4.001236  0
C  C54  1  0.24606795  0.76042680  0.88449252  1  0  -0.020009  0  3.76429  0  0  -0.045662  0  4.014176  0  0  -0.037631  0  4.032619  0  0  -0.081814  -0.050465  0  4.001451  0
C  C55  1  0.25393837  0.73956856  0.38449229  1  0  -0.01985  0  3.764149  0  0  -0.045549  0  4.013997  0  0  -0.037518  0  4.032435  0  0  -0.081765  -0.050335  0  4.00122  0
C  C56  1  0.75192852  0.34899703  0.14083372  1  0  -0.11926  0  3.809112  0  0  -0.097337  0  4.047331  0  0  -0.114277  0  4.074519  0  0  -0.042827  -0.086438  0  4.028891  0
C  C57  1  0.74806636  0.15100569  0.64083318  1  0  -0.119391  0  3.809291  0  0  -0.097316  0  4.047311  0  0  -0.114254  0  4.074496  0  0  -0.042883  -0.086406  0  4.028848  0
C  C58  1  0.24807575  0.65100235  0.85917014  1  0  -0.119261  0  3.80922  0  0  -0.097312  0  4.047403  0  0  -0.114255  0  4.074594  0  0  -0.042825  -0.086428  0  4.028969  0
C  C59  1  0.25193225  0.84899297  0.35916996  1  0  -0.119366  0  3.809359  0  0  -0.097324  0  4.04743  0  0  -0.114262  0  4.074614  0  0  -0.042853  -0.086418  0  4.028971  0
C  C60  1  0.67917359  0.37907931  0.21966454  1  0  -0.056152  0  3.729891  0  0  -0.090136  0  3.976157  0  0  -0.081655  0  3.996288  0  0  -0.075558  -0.095074  0  3.962194  0
C  C61  1  0.82082270  0.12092027  0.71966579  1  0  -0.056114  0  3.729825  0  0  -0.090153  0  3.976063  0  0  -0.081674  0  3.996191  0  0  -0.075557  -0.095093  0  3.962107  0
C  C62  1  0.32082787  0.62092010  0.78033494  1  0  -0.05619  0  3.729916  0  0  -0.090177  0  3.976199  0  0  -0.081694  0  3.996328  0  0  -0.075598  -0.095131  0  3.96225  0
C  C63  1  0.17917584  0.87907679  0.28033735  1  0  -0.056082  0  3.729906  0  0  -0.090104  0  3.976162  0  0  -0.081623  0  3.99629  0  0  -0.075546  -0.095082  0  3.962214  0
C  C64  1  0.60835185  0.30491543  0.27599079  1  0  -0.132374  0  3.79853  0  0  -0.111476  0  4.039736  0  0  -0.130074  0  4.069226  0  0  -0.038143  -0.099463  0  4.019768  0
C  C65  1  0.89164769  0.19508416  0.77598949  1  0  -0.132353  0  3.798532  0  0  -0.111468  0  4.0398  0  0  -0.130074  0  4.0693  0  0  -0.038127  -0.09946  0  4.019839  0
C  C66  1  0.39165065  0.69508635  0.72401234  1  0  -0.132279  0  3.79856  0  0  -0.111438  0  4.039815  0  0  -0.130037  0  4.069309  0  0  -0.03812  -0.099423  0  4.019824  0
C  C67  1  0.10835095  0.80491529  0.22401072  1  0  -0.132348  0  3.798605  0  0  -0.111514  0  4.03983  0  0  -0.130113  0  4.069321  0  0  -0.038155  -0.099503  0  4.019872  0
C  C68  1  0.53179259  0.34776663  0.35124665  1  0  0.171526  0  3.709642  0  0  0.127996  0  3.969769  0  0  0.146498  0  3.980242  0  0  0.072978  0.115829  0  3.962553  0
C  C69  1  0.96820653  0.15223145  0.85124716  1  0  0.17147  0  3.709748  0  0  0.127968  0  3.969845  0  0  0.146471  0  3.98032  0  0  0.07299  0.115816  0  3.962648  0
C  C70  1  0.46820793  0.65223280  0.64875502  1  0  0.171452  0  3.709741  0  0  0.127933  0  3.969862  0  0  0.146432  0  3.980341  0  0  0.072909  0.115765  0  3.962648  0
C  C71  1  0.03179399  0.84776797  0.14875232  1  0  0.171515  0  3.7098  0  0  0.127991  0  3.969911  0  0  0.14649  0  3.980387  0  0  0.072985  0.115818  0  3.962721  0
C  C72  1  0.37766322  0.34399910  0.47632261  1  0  0.141638  0  3.817184  0  0  0.13823  0  4.064215  0  0  0.141476  0  4.089666  0  0  0.089118  0.135883  0  4.047019  0
C  C73  1  0.12233691  0.15599866  0.97632073  1  0  0.141756  0  3.81711  0  0  0.138317  0  4.064165  0  0  0.141562  0  4.089624  0  0  0.089221  0.13598  0  4.046979  0
C  C74  1  0.62233827  0.65600111  0.52367906  1  0  0.141665  0  3.817148  0  0  0.138213  0  4.064195  0  0  0.141458  0  4.089654  0  0  0.089131  0.135871  0  4.046981  0
C  C75  1  0.87766552  0.84400153  0.02367582  1  0  0.141795  0  3.817108  0  0  0.138359  0  4.064155  0  0  0.141604  0  4.089612  0  0  0.089168  0.136025  0  4.046963  0
C  C76  1  0.33957783  0.44909298  0.47071836  1  0  -0.153945  0  3.74465  0  0  -0.178833  0  4.00559  0  0  -0.183027  0  4.028778  0  0  -0.094723  -0.175781  0  3.989751  0
C  C77  1  0.16041854  0.05090562  0.97071588  1  0  -0.153982  0  3.744814  0  0  -0.178865  0  4.005765  0  0  -0.183081  0  4.028947  0  0  -0.094758  -0.175814  0  3.989933  0
C  C78  1  0.66042265  0.55090565  0.52928259  1  0  -0.153984  0  3.744625  0  0  -0.178864  0  4.005585  0  0  -0.183084  0  4.02876  0  0  -0.094747  -0.175829  0  3.989773  0
C  C79  1  0.83958205  0.94909539  0.02927994  1  0  -0.154018  0  3.744779  0  0  -0.178895  0  4.005714  0  0  -0.183101  0  4.028895  0  0  -0.094739  -0.175859  0  3.989919  0
C  C80  1  0.25339474  0.49035900  0.53845122  1  0  -0.064504  0  3.80433  0  0  -0.079458  0  4.062071  0  0  -0.082715  0  4.085983  0  0  -0.089997  -0.077145  0  4.045519  0
C  C81  1  0.24660485  0.00963996  0.03844645  1  0  -0.064384  0  3.804285  0  0  -0.07934  0  4.061999  0  0  -0.0826  0  4.085922  0  0  -0.089902  -0.077015  0  4.045447  0
C  C82  1  0.74660675  0.50964121  0.46155045  1  0  -0.064471  0  3.8043  0  0  -0.07945  0  4.062028  0  0  -0.082711  0  4.085953  0  0  -0.08998  -0.077152  0  4.045522  0
C  C83  1  0.75339671  0.99036184  0.96155083  1  0  -0.064417  0  3.804322  0  0  -0.079375  0  4.062032  0  0  -0.082635  0  4.085954  0  0  -0.089959  -0.077077  0  4.045528  0
C  C84  1  0.20537746  0.42866085  0.61378320  1  0  -0.104212  0  3.714894  0  0  -0.126752  0  3.964344  0  0  -0.128481  0  3.984947  0  0  -0.083374  -0.125447  0  3.950336  0
C  C85  1  0.29462264  0.07133658  0.11378162  1  0  -0.104192  0  3.714927  0  0  -0.126772  0  3.964371  0  0  -0.128501  0  3.984973  0  0  -0.083401  -0.125465  0  3.950365  0
C  C86  1  0.79462590  0.57133933  0.38621774  1  0  -0.104246  0  3.714801  0  0  -0.126773  0  3.964271  0  0  -0.128505  0  3.984878  0  0  -0.083406  -0.125477  0  3.950284  0
C  C87  1  0.70537708  0.92866603  0.88621493  1  0  -0.104205  0  3.714794  0  0  -0.126737  0  3.964256  0  0  -0.128465  0  3.984861  0  0  -0.083386  -0.125421  0  3.950246  0
C  C88  1  0.24224232  0.32151658  0.62268442  1  0  0.028498  0  3.798926  0  0  0.048385  0  4.024169  0  0  0.044987  0  4.049345  0  0  -0.001847  0.050395  0  4.007327  0
C  C89  1  0.25776071  0.17848162  0.12268344  1  0  0.028529  0  3.798999  0  0  0.048483  0  4.024177  0  0  0.045087  0  4.04935  0  0  -0.001865  0.050495  0  4.007338  0
C  C90  1  0.75775824  0.67848364  0.37731652  1  0  0.028523  0  3.798966  0  0  0.048358  0  4.024244  0  0  0.04496  0  4.04942  0  0  -0.001843  0.050373  0  4.007389  0
C  C91  1  0.74224089  0.82152097  0.87731164  1  0  0.028577  0  3.798788  0  0  0.048407  0  4.024121  0  0  0.045011  0  4.049296  0  0  -0.001895  0.050419  0  4.007261  0
C  C92  1  0.19898747  0.25378257  0.69883425  1  0  -0.030988  0  3.674368  0  0  -0.057061  0  3.919502  0  0  -0.053472  0  3.93761  0  0  -0.058492  -0.059033  0  3.906983  0
C  C93  1  0.30101517  0.24621491  0.19883279  1  0  -0.031107  0  3.674294  0  0  -0.057295  0  3.919403  0  0  -0.053709  0  3.93751  0  0  -0.058565  -0.059255  0  3.906862  0
C  C94  1  0.80101207  0.74621607  0.30116669  1  0  -0.030981  0  3.674426  0  0  -0.057038  0  3.919558  0  0  -0.05345  0  3.937666  0  0  -0.058457  -0.05902  0  3.907045  0
C  C95  1  0.69898545  0.75378690  0.80116303  1  0  -0.031128  0  3.674299  0  0  -0.05728  0  3.919445  0  0  -0.053693  0  3.937553  0  0  -0.058585  -0.05924  0  3.906879  0
C  C96  1  0.23653878  0.14970772  0.70185916  1  0  -0.125751  0  3.737392  0  0  -0.136185  0  3.986027  0  0  -0.144347  0  4.007141  0  0  -0.085507  -0.130954  0  3.971654  0
C  C97  1  0.26346580  0.35029053  0.20185830  1  0  -0.125687  0  3.737204  0  0  -0.136069  0  3.985871  0  0  -0.144229  0  4.006985  0  0  -0.085497  -0.13083  0  3.971475  0
C  C98  1  0.76345983  0.85029093  0.29814178  1  0  -0.125678  0  3.737448  0  0  -0.13609  0  3.986085  0  0  -0.144252  0  4.0072  0  0  -0.085462  -0.130872  0  3.971742  0
C  C99  1  0.73653670  0.64971126  0.79813972  1  0  -0.125715  0  3.737265  0  0  -0.136083  0  3.985933  0  0  -0.144243  0  4.007049  0  0  -0.085517  -0.130853  0  3.971538  0
C  C100  1  0.31584035  0.11172756  0.62775106  1  0  0.167176  0  3.66203  0  0  0.135673  0  3.909418  0  0  0.146312  0  3.922948  0  0  0.064487  0.128862  0  3.899888  0
C  C101  1  0.18416081  0.38826987  0.12775057  1  0  0.167191  0  3.662105  0  0  0.135706  0  3.909454  0  0  0.146343  0  3.92299  0  0  0.064559  0.128903  0  3.899926  0
C  C102  1  0.68415826  0.88827109  0.37225061  1  0  0.167131  0  3.662036  0  0  0.135614  0  3.909431  0  0  0.146251  0  3.922961  0  0  0.064417  0.128786  0  3.899919  0
C  C103  1  0.81583694  0.61173039  0.87224817  1  0  0.167173  0  3.662054  0  0  0.135661  0  3.909387  0  0  0.146297  0  3.92292  0  0  0.064558  0.128846  0  3.89987  0
C  C104  1  0.32634218  0.27808172  0.55288719  1  0  0.129315  0  3.744303  0  0  0.125441  0  3.971022  0  0  0.129097  0  3.995267  0  0  0.112364  0.122955  0  3.954797  0
C  C105  1  0.17365936  0.22191643  0.05288657  1  0  0.129227  0  3.744477  0  0  0.125342  0  3.971189  0  0  0.128999  0  3.995437  0  0  0.112321  0.122859  0  3.954971  0
C  C106  1  0.67365928  0.72191769  0.44711448  1  0  0.129203  0  3.744404  0  0  0.125397  0  3.971055  0  0  0.129053  0  3.995299  0  0  0.112308  0.12291  0  3.954809  0
C  C107  1  0.82634126  0.77808537  0.94710998  1  0  0.129144  0  3.74445  0  0  0.125307  0  3.971159  0  0  0.128964  0  3.995407  0  0  0.112313  0.122823  0  3.95493  0
C  C108  1  0.82741525  0.42859645  0.08470207  1  0  0.675575  0  3.893961  0  0  0.625765  0  4.182211  0  0  0.661893  0  4.174951  0  0  0.213634  0.601238  0  4.186485  0
C  C109  1  0.67257915  0.07140542  0.58470185  1  0  0.675499  0  3.894175  0  0  0.625684  0  4.182354  0  0  0.661812  0  4.175091  0  0  0.213564  0.601143  0  4.18662  0
C  C110  1  0.17258426  0.57140139  0.91529741  1  0  0.675739  0  3.893769  0  0  0.625935  0  4.181995  0  0  0.662065  0  4.174733  0  0  0.213694  0.601414  0  4.186279  0
C  C111  1  0.32741946  0.92859323  0.41530055  1  0  0.675562  0  3.894258  0  0  0.625736  0  4.182476  0  0  0.661864  0  4.175214  0  0  0.213602  0.601201  0  4.186745  0
N  N112  1  0.45797735  0.29374474  0.41090133  1  0  -0.403595  0  3.307901  0  0  -0.329627  0  3.588778  0  0  -0.350623  0  3.599731  0  0  -0.344099  -0.315584  0  3.581236  0
N  N113  1  0.04202043  0.20625379  0.91090202  1  0  -0.403551  0  3.307832  0  0  -0.329583  0  3.588717  0  0  -0.350578  0  3.599667  0  0  -0.344139  -0.315551  0  3.581192  0
N  N114  1  0.54202411  0.70625467  0.58910034  1  0  -0.403506  0  3.307862  0  0  -0.329523  0  3.588726  0  0  -0.35052  0  3.599684  0  0  -0.344055  -0.315482  0  3.581159  0
N  N115  1  0.95798016  0.79374722  0.08909745  1  0  -0.403586  0  3.307912  0  0  -0.329621  0  3.588812  0  0  -0.350616  0  3.599762  0  0  -0.344134  -0.315588  0  3.581286  0
N  N116  1  0.35926740  0.17398444  0.55626907  1  0  -0.359501  0  3.281368  0  0  -0.28654  0  3.54908  0  0  -0.306031  0  3.564295  0  0  -0.320597  -0.273194  0  3.538435  0
N  N117  1  0.14073608  0.32601448  0.05626907  1  0  -0.359499  0  3.281531  0  0  -0.286543  0  3.549242  0  0  -0.306038  0  3.564464  0  0  -0.320578  -0.273198  0  3.538611  0
N  N118  1  0.64073125  0.82601501  0.44373333  1  0  -0.359483  0  3.281351  0  0  -0.286522  0  3.549033  0  0  -0.306014  0  3.564249  0  0  -0.320549  -0.273172  0  3.538375  0
N  N119  1  0.85926361  0.67398734  0.94372894  1  0  -0.359398  0  3.281405  0  0  -0.286449  0  3.549101  0  0  -0.305943  0  3.564321  0  0  -0.32056  -0.27311  0  3.53847  0
O  O120  1  0.55355489  0.11833806  0.29880678  1  0  -0.588819  0  2.069324  0  0  -0.522297  0  2.327395  0  0  -0.550576  0  2.318226  0  0  -0.322953  -0.502401  0  2.332793  0
O  O121  1  0.94644202  0.38166159  0.79880949  1  0  -0.588857  0  2.069378  0  0  -0.522275  0  2.327464  0  0  -0.550554  0  2.318291  0  0  -0.322912  -0.502382  0  2.332875  0
O  O122  1  0.44644008  0.88166303  0.70119197  1  0  -0.588805  0  2.069494  0  0  -0.522274  0  2.327541  0  0  -0.550549  0  2.318367  0  0  -0.322882  -0.502394  0  2.332957  0
O  O123  1  0.05355846  0.61833704  0.20118852  1  0  -0.588735  0  2.069517  0  0  -0.522224  0  2.327508  0  0  -0.550503  0  2.318341  0  0  -0.322859  -0.502336  0  2.332914  0
O  O124  1  0.87493504  0.39943914  0.00355227  1  0  -0.672076  0  2.119858  0  0  -0.606294  0  2.404349  0  0  -0.633277  0  2.385953  0  0  -0.335162  -0.587686  0  2.416571  0
O  O125  1  0.62506155  0.10056263  0.50355184  1  0  -0.672032  0  2.120021  0  0  -0.606256  0  2.40449  0  0  -0.633243  0  2.386105  0  0  -0.335105  -0.587652  0  2.4167  0
O  O126  1  0.12506253  0.60055714  0.99644940  1  0  -0.672172  0  2.119762  0  0  -0.606389  0  2.404241  0  0  -0.633368  0  2.385834  0  0  -0.335206  -0.587784  0  2.416466  0
O  O127  1  0.37493446  0.89944083  0.49645203  1  0  -0.672065  0  2.120163  0  0  -0.606295  0  2.404659  0  0  -0.633285  0  2.38628  0  0  -0.335161  -0.587684  0  2.416861  0
O  O128  1  0.83975989  0.52205757  0.12080638  1  0  -0.626551  0  2.056728  0  0  -0.55912  0  2.323454  0  0  -0.586811  0  2.307944  0  0  -0.321578  -0.539886  0  2.333482  0
O  O129  1  0.66023338  0.97794449  0.62080631  1  0  -0.626477  0  2.056764  0  0  -0.559074  0  2.323533  0  0  -0.586766  0  2.308025  0  0  -0.321561  -0.539848  0  2.333564  0
O  O130  1  0.16023695  0.47794349  0.87919164  1  0  -0.626589  0  2.056755  0  0  -0.559162  0  2.323501  0  0  -0.586854  0  2.307992  0  0  -0.321569  -0.539938  0  2.333549  0
O  O131  1  0.33976155  0.02205580  0.37919610  1  0  -0.626506  0  2.056699  0  0  -0.559088  0  2.323452  0  0  -0.58678  0  2.307946  0  0  -0.321547  -0.539871  0  2.333499  0
