# generated using pymatgen
data_MoH12C8(ClO)4
_symmetry_space_group_name_H-M   'P 1'
_cell_length_a   7.84430010
_cell_length_b   12.07324144
_cell_length_c   15.82938371
_cell_angle_alpha   90.01193619
_cell_angle_beta   90.02257062
_cell_angle_gamma   89.93716385
_symmetry_Int_Tables_number   1
_chemical_formula_structural   MoH12C8(ClO)4
_chemical_formula_sum   'Mo4 H48 C32 Cl16 O16'
_cell_volume   1499.13860682
_cell_formula_units_Z   4
loop_
 _symmetry_equiv_pos_site_id
 _symmetry_equiv_pos_as_xyz
  1  'x, y, z'
loop_
 _atom_site_type_symbol
 _atom_site_label
 _atom_site_symmetry_multiplicity
 _atom_site_fract_x
 _atom_site_fract_y
 _atom_site_fract_z
 _atom_site_occupancy
 _atom_site_pbe_cm5_charge
 _atom_site_pbe_ddec_charge
 _atom_site_pbe_ddec_spin_density
 _atom_site_pbe_ddec_sum_bond_order
 _atom_site_pbe_magmom
Mo  Mo0  1  0.37193282  0.12664708  0.24998469  1  0.971103  1.354654  1.580413  4.233266  1.425
Mo  Mo1  1  0.62800834  0.87314529  0.75003913  1  0.967417  1.351974  -1.631824  4.224957  -1.437
Mo  Mo2  1  0.62826831  0.62663182  0.24954778  1  0.971565  1.356609  1.569374  4.233879  1.415
Mo  Mo3  1  0.36972614  0.37459080  0.75013229  1  0.993634  1.367384  0.11805  4.325292  0.112
H  H4  1  0.56421849  0.07443518  0.42664674  1  0.105936  0.132101  0.000992  1.042561  0.0
H  H5  1  0.43570996  0.92551971  0.92652288  1  0.106033  0.13241  -0.00097  1.043113  0.0
H  H6  1  0.43573301  0.57442367  0.07329816  1  0.105793  0.131654  0.000893  1.043303  0.001
H  H7  1  0.56592801  0.42644134  0.57345062  1  0.105416  0.13174  -0.000334  1.042904  0.0
H  H8  1  0.43572636  0.92552118  0.57338847  1  0.106032  0.132802  -0.001008  1.043027  0.0
H  H9  1  0.56406016  0.07446403  0.07337080  1  0.106078  0.132348  0.000982  1.042854  0.0
H  H10  1  0.56501077  0.42580404  0.92636379  1  0.105307  0.131195  0.000366  1.044705  0.0
H  H11  1  0.43578153  0.57453979  0.42645280  1  0.106032  0.133185  0.000865  1.042122  0.0
H  H12  1  0.11155085  0.75343305  0.42346432  1  0.108066  0.080811  0.000612  0.977626  0.0
H  H13  1  0.88831373  0.24665516  0.92325717  1  0.107766  0.080391  0.000201  0.97795  0.0
H  H14  1  0.88859757  0.25306627  0.07643318  1  0.107207  0.079208  0.000561  0.977756  0.0
H  H15  1  0.11148488  0.74680544  0.57694355  1  0.108382  0.081349  -0.000357  0.97601  0.0
H  H16  1  0.88831112  0.24664596  0.57679073  1  0.107816  0.080381  -8.3e-05  0.977858  0.0
H  H17  1  0.11147417  0.75335838  0.07653796  1  0.108138  0.080686  0.000577  0.97711  0.0
H  H18  1  0.11158426  0.74682369  0.92314845  1  0.108101  0.080811  -0.000634  0.976445  0.0
H  H19  1  0.88859797  0.25305571  0.42370192  1  0.107274  0.079498  0.000588  0.977861  0.0
H  H20  1  0.15938117  0.83348391  0.33198093  1  0.104531  0.083057  -0.000114  0.990645  0.0
H  H21  1  0.84054484  0.16624054  0.83180858  1  0.103854  0.081575  0.000199  0.991509  0.0
H  H22  1  0.84067298  0.33324005  0.16793243  1  0.104231  0.082362  -0.00016  0.990935  0.0
H  H23  1  0.15899416  0.66635861  0.66833639  1  0.103799  0.081952  6.6e-05  0.991287  0.0
H  H24  1  0.84078190  0.16629267  0.66825264  1  0.103889  0.081442  0.0002  0.991981  0.0
H  H25  1  0.15954413  0.83352773  0.16800868  1  0.10489  0.083193  -0.000182  0.990148  0.0
H  H26  1  0.15871616  0.66638681  0.83168448  1  0.103869  0.081858  0.000136  0.991741  0.0
H  H27  1  0.84049105  0.33314327  0.33218265  1  0.104421  0.082651  -5.2e-05  0.991702  0.0
H  H28  1  0.91368876  0.90330839  0.47493928  1  0.085314  0.125268  -0.000129  1.005344  0.0
H  H29  1  0.08585228  0.09680233  0.97509890  1  0.086212  0.126812  9e-05  1.004218  0.0
H  H30  1  0.08624525  0.40290262  0.02498136  1  0.08536  0.125456  -0.000184  1.005979  0.0
H  H31  1  0.91451230  0.59709384  0.52466241  1  0.086502  0.127441  0.000146  1.00337  0.0
H  H32  1  0.08588747  0.09682120  0.52497334  1  0.086336  0.1267  0.00016  1.004858  0.0
H  H33  1  0.91356603  0.90324784  0.02505819  1  0.085516  0.125442  -0.000125  1.005033  0.0
H  H34  1  0.91459841  0.59711559  0.97535465  1  0.086501  0.127516  8.6e-05  1.003482  0.0
H  H35  1  0.08646110  0.40297807  0.47507220  1  0.085149  0.125091  0.000139  1.005694  0.0
H  H36  1  0.85263323  0.85771533  0.37255490  1  0.080308  0.137918  0.000328  1.046999  0.0
H  H37  1  0.14696568  0.14198556  0.87267615  1  0.079848  0.136753  0.000547  1.048103  0.0
H  H38  1  0.14732810  0.35708191  0.12730226  1  0.080165  0.137179  0.00023  1.048285  0.0
H  H39  1  0.85246571  0.64259164  0.62692612  1  0.080636  0.1377  -7.6e-05  1.047074  0.0
H  H40  1  0.14717534  0.14206548  0.62743984  1  0.080252  0.136259  2e-06  1.04672  0.0
H  H41  1  0.85286596  0.85772155  0.12748284  1  0.080364  0.137271  0.000196  1.047313  0.0
H  H42  1  0.85244500  0.64261117  0.87307215  1  0.080596  0.137501  -0.000141  1.046933  0.0
H  H43  1  0.14735818  0.35701519  0.37275085  1  0.080232  0.137515  0.000317  1.047992  0.0
H  H44  1  0.96290842  0.98522407  0.38371203  1  0.084462  0.131375  0.000231  1.015645  0.0
H  H45  1  0.03668649  0.01465962  0.88391473  1  0.085086  0.132399  -0.000239  1.014851  0.0
H  H46  1  0.03696028  0.48469863  0.11634668  1  0.085087  0.132212  0.000265  1.015094  0.0
H  H47  1  0.96308358  0.51495609  0.61588276  1  0.08425  0.130262  0.000217  1.015667  0.0
H  H48  1  0.03686808  0.01470996  0.61610647  1  0.085185  0.132577  -0.000235  1.014757  0.0
H  H49  1  0.96301884  0.98520657  0.11631060  1  0.084729  0.131778  0.000235  1.015223  0.0
H  H50  1  0.96302319  0.51498942  0.88409598  1  0.08422  0.130633  0.00048  1.015733  0.0
H  H51  1  0.03691620  0.48464072  0.38368684  1  0.084984  0.132128  0.000222  1.015334  0.0
C  C52  1  0.34207076  0.97053864  0.41153958  1  0.242345  0.574214  0.023752  4.037787  0.021
C  C53  1  0.65766973  0.02947682  0.91151325  1  0.241718  0.573575  -0.024127  4.037862  -0.021
C  C54  1  0.65788327  0.47065021  0.08829133  1  0.239354  0.570606  0.021349  4.040731  0.02
C  C55  1  0.34321903  0.52971883  0.58857540  1  0.239989  0.572059  0.020739  4.037206  0.014
C  C56  1  0.65776188  0.02945919  0.58854047  1  0.242193  0.573836  -0.023221  4.037858  -0.02
C  C57  1  0.34204299  0.97053179  0.08836906  1  0.242034  0.574018  0.023721  4.038137  0.021
C  C58  1  0.34292688  0.52951702  0.91144896  1  0.239035  0.571449  -0.027008  4.036088  -0.021
C  C59  1  0.65800163  0.47055348  0.41143847  1  0.242191  0.57507  0.027038  4.037415  0.021
C  C60  1  0.48465332  0.01481713  0.45960078  1  -0.075318  -0.176406  -0.032725  3.904455  -0.025
C  C61  1  0.51513167  0.98526940  0.95946653  1  -0.076305  -0.179085  0.032747  3.909085  0.025
C  C62  1  0.51565868  0.51490373  0.04036185  1  -0.077483  -0.17961  -0.041  3.90969  -0.03
C  C63  1  0.48581173  0.48595153  0.54059218  1  -0.077478  -0.180294  0.024068  3.914271  0.015
C  C64  1  0.51518182  0.98527099  0.54051591  1  -0.076175  -0.179129  0.032467  3.907706  0.025
C  C65  1  0.48454274  0.01480797  0.04038040  1  -0.076087  -0.178054  -0.033012  3.907456  -0.025
C  C66  1  0.48523660  0.48549287  0.95918388  1  -0.079368  -0.184807  0.031911  3.918125  0.025
C  C67  1  0.51583787  0.51514312  0.45948561  1  -0.077672  -0.181316  0.013264  3.907597  0.006
C  C68  1  0.11795086  0.83766152  0.39801391  1  -0.06504  0.087204  0.000662  3.839451  0.0
C  C69  1  0.88166031  0.16234531  0.89792983  1  -0.064875  0.087969  0.000585  3.84207  0.0
C  C70  1  0.88203382  0.33736181  0.10189190  1  -0.064711  0.089766  0.000618  3.841469  0.0
C  C71  1  0.11797071  0.66242906  0.60221642  1  -0.06473  0.088208  -0.000654  3.840581  0.0
C  C72  1  0.88181933  0.16235705  0.60213816  1  -0.064924  0.087744  0.000166  3.842668  0.0
C  C73  1  0.11805373  0.83762023  0.10196258  1  -0.064764  0.087698  0.000535  3.83907  0.0
C  C74  1  0.11795947  0.66244955  0.89782238  1  -0.064903  0.088559  -0.000373  3.840742  0.0
C  C75  1  0.88210577  0.33730285  0.39818266  1  -0.064958  0.088771  0.000688  3.841521  0.0
C  C76  1  0.95274905  0.90055040  0.40836984  1  -0.25568  -0.405272  0.001725  3.932985  0.001
C  C77  1  0.04678510  0.09937152  0.90852163  1  -0.255776  -0.406012  0.000149  3.932943  0.0
C  C78  1  0.04721900  0.40005398  0.09155035  1  -0.256578  -0.407059  0.001504  3.935294  0.001
C  C79  1  0.95293135  0.59972814  0.59132658  1  -0.255851  -0.40599  0.00061  3.932901  0.0
C  C80  1  0.04696881  0.09942923  0.59155668  1  -0.255274  -0.405158  -0.000649  3.933297  -0.001
C  C81  1  0.95285388  0.90052782  0.09161715  1  -0.255379  -0.404779  0.001436  3.932604  0.001
C  C82  1  0.95291472  0.59976319  0.90869017  1  -0.255944  -0.406274  -0.000964  3.932296  -0.001
C  C83  1  0.04729661  0.40001026  0.40850206  1  -0.256007  -0.406129  0.002089  3.934496  0.002
Cl  Cl84  1  0.07847420  0.16404581  0.25007969  1  -0.223817  -0.362413  0.036496  1.244785  0.017
Cl  Cl85  1  0.92147614  0.83536222  0.74979880  1  -0.22493  -0.364325  -0.037891  1.243768  -0.016
Cl  Cl86  1  0.92159165  0.66407072  0.25067543  1  -0.225406  -0.36432  0.036538  1.244648  0.017
Cl  Cl87  1  0.07791021  0.33591751  0.75105089  1  -0.213941  -0.348546  0.036175  1.255129  0.023
Cl  Cl88  1  0.63542552  0.03817502  0.25011455  1  -0.226593  -0.357231  0.034896  1.277124  0.011
Cl  Cl89  1  0.36501563  0.96270550  0.74968766  1  -0.228905  -0.36084  -0.035603  1.274272  -0.01
Cl  Cl90  1  0.36441454  0.53894594  0.25028391  1  -0.227065  -0.357749  0.034727  1.275073  0.011
Cl  Cl91  1  0.63556385  0.45899935  0.74968544  1  -0.219358  -0.346563  0.029611  1.281331  0.019
Cl  Cl92  1  0.43843158  0.25148931  0.14472977  1  -0.223678  -0.380982  0.064553  1.386212  0.033
Cl  Cl93  1  0.56058584  0.74818269  0.64467425  1  -0.22706  -0.386609  -0.067838  1.384452  -0.034
Cl  Cl94  1  0.56221013  0.75200317  0.35503803  1  -0.229317  -0.389363  0.069105  1.382244  0.037
Cl  Cl95  1  0.43523185  0.24909594  0.85480241  1  -0.215759  -0.369612  0.006808  1.394871  0.008
Cl  Cl96  1  0.56081354  0.74826354  0.85522385  1  -0.224815  -0.38253  -0.067317  1.384947  -0.033
Cl  Cl97  1  0.43836856  0.25166552  0.35534569  1  -0.22551  -0.383585  0.066264  1.384354  0.034
Cl  Cl98  1  0.43762973  0.25014490  0.64530626  1  -0.213629  -0.365914  -0.024486  1.394855  -0.017
Cl  Cl99  1  0.56275381  0.75179201  0.14450365  1  -0.220909  -0.376742  0.05955  1.388148  0.029
O  O100  1  0.29924389  0.00632406  0.33995892  1  -0.302492  -0.496933  0.004855  2.539342  -0.013
O  O101  1  0.70117557  0.99340078  0.84009217  1  -0.303305  -0.49822  -0.005802  2.539185  0.013
O  O102  1  0.70119182  0.50664730  0.15988743  1  -0.30477  -0.499223  0.003948  2.542636  -0.015
O  O103  1  0.30063712  0.49319354  0.66017316  1  -0.306954  -0.500636  -0.009067  2.559543  -0.011
O  O104  1  0.70112553  0.99353358  0.66001694  1  -0.302897  -0.497229  -0.005234  2.537633  0.013
O  O105  1  0.29913913  0.00636247  0.15993863  1  -0.302842  -0.49753  0.004944  2.539189  -0.013
O  O106  1  0.29975351  0.49335668  0.83965765  1  -0.308788  -0.50189  0.010175  2.553696  0.02
O  O107  1  0.70042538  0.50552991  0.33957083  1  -0.303339  -0.497762  0.013059  2.532166  -0.003
O  O108  1  0.25601876  0.88885798  0.44753053  1  -0.148803  -0.207751  0.008694  2.48416  0.009
O  O109  1  0.74326035  0.11164785  0.94733810  1  -0.149252  -0.208509  -0.008858  2.482922  -0.009
O  O110  1  0.74397267  0.38855461  0.05241689  1  -0.151225  -0.210502  0.00753  2.484638  0.008
O  O111  1  0.25631877  0.61140406  0.55287208  1  -0.148568  -0.207004  0.013244  2.485644  0.014
O  O112  1  0.74347962  0.11152182  0.55270303  1  -0.14944  -0.209008  -0.008264  2.483482  -0.008
O  O113  1  0.25611936  0.88866402  0.05244059  1  -0.149225  -0.208614  0.008416  2.483888  0.009
O  O114  1  0.25642323  0.61142720  0.94711108  1  -0.149055  -0.207629  -0.011042  2.485501  -0.011
O  O115  1  0.74426088  0.38882962  0.44763638  1  -0.149806  -0.210075  0.011606  2.484666  0.012
