# generated using pymatgen
data_CuH16C22(N3O5)2
_symmetry_space_group_name_H-M   'P 1'
_cell_length_a   9.02236642
_cell_length_b   7.36787944
_cell_length_c   12.67542727
_cell_angle_alpha   73.32940361
_cell_angle_beta   72.31622915
_cell_angle_gamma   64.54377128
_symmetry_Int_Tables_number   1
_chemical_formula_structural   CuH16C22(N3O5)2
_chemical_formula_sum   'Cu1 H16 C22 N6 O10'
_cell_volume   712.78717354
_cell_formula_units_Z   1
loop_
 _symmetry_equiv_pos_site_id
 _symmetry_equiv_pos_as_xyz
  1  'x, y, z'
loop_
 _atom_site_type_symbol
 _atom_site_label
 _atom_site_symmetry_multiplicity
 _atom_site_fract_x
 _atom_site_fract_y
 _atom_site_fract_z
 _atom_site_occupancy
 _atom_site_hle17_ddec_charge
 _atom_site_hle17_ddec_spin_density
 _atom_site_hle17_ddec_sum_bond_order
 _atom_site_hle17_magmom
 _atom_site_hse06_10hf_ddec_charge
 _atom_site_hse06_10hf_ddec_spin_density
 _atom_site_hse06_10hf_ddec_sum_bond_order
 _atom_site_hse06_10hf_magmom
 _atom_site_hse06_ddec_charge
 _atom_site_hse06_ddec_spin_density
 _atom_site_hse06_ddec_sum_bond_order
 _atom_site_hse06_magmom
 _atom_site_pbe_cm5_charge
 _atom_site_pbe_ddec_charge
 _atom_site_pbe_ddec_spin_density
 _atom_site_pbe_ddec_sum_bond_order
 _atom_site_pbe_magmom
Cu  Cu0  1  0.99999959  0.00000462  0.99999907  1  0.874487  0.679126  1.741739  0.507  0.845153  0.76857  2.132722  0.619  0.94022  0.829884  2.055666  0.699  0.739635  0.784656  0.726702  2.188717  0.569
H  H1  1  0.18064153  0.67591058  0.64106844  1  0.111984  -3.4e-05  0.952662  0.0  0.118534  -7e-06  1.019275  0.0  0.122554  -3e-06  1.016149  0.0  0.108094  0.115606  -0.0  1.021655  0.0
H  H2  1  0.81935221  0.32407481  0.35895291  1  0.112077  -3.6e-05  0.952514  0.0  0.118573  -6e-06  1.019177  0.0  0.122615  -3e-06  1.016025  0.0  0.108093  0.115649  -0.0  1.021555  0.0
H  H3  1  0.77146577  0.87666472  0.47083967  1  0.130328  -1.9e-05  0.923798  0.0  0.139917  -7e-06  0.983452  0.0  0.14384  -4e-06  0.980565  0.0  0.115495  0.137092  -2e-06  0.985595  0.0
H  H4  1  0.22855603  0.12332716  0.52915285  1  0.1304  -1.7e-05  0.923737  0.0  0.139975  -7e-06  0.983386  0.0  0.143892  -3e-06  0.980508  0.0  0.115531  0.13715  -2e-06  0.985524  0.0
H  H5  1  0.69324788  0.09007790  0.77346318  1  0.116169  0.00037  0.992182  0.0  0.117092  0.000384  1.071733  0.0  0.12236  0.000254  1.066351  0.0  0.10633  0.113364  0.000515  1.075473  0.0
H  H6  1  0.30674158  0.90992006  0.22653570  1  0.116157  0.00037  0.992204  0.0  0.117077  0.000384  1.071769  0.0  0.122341  0.000254  1.066397  0.0  0.10632  0.113351  0.000515  1.075506  0.0
H  H7  1  0.35627155  0.36926799  0.60982268  1  0.092626  -3.3e-05  0.944308  0.0  0.101058  1e-06  1.009826  0.0  0.102234  -2e-06  1.007896  0.0  0.129115  0.100338  4e-06  1.011489  0.0
H  H8  1  0.64373427  0.63072633  0.39016636  1  0.092763  -2.7e-05  0.944341  0.0  0.101188  1e-06  1.00985  0.0  0.102365  -2e-06  1.007924  0.0  0.12919  0.100464  4e-06  1.011519  0.0
H  H9  1  0.51868304  0.35062080  0.67179553  1  0.095214  0.00014  0.913908  0.0  0.104589  0.000116  0.975571  0.0  0.106313  7.6e-05  0.97249  0.0  0.133245  0.103492  0.000151  0.97805  0.0
H  H10  1  0.48131806  0.64937717  0.32819769  1  0.095414  0.000147  0.913728  0.0  0.104683  0.000116  0.975524  0.0  0.10641  7.6e-05  0.972443  0.0  0.133234  0.103588  0.000151  0.977998  0.0
H  H11  1  0.31405908  0.06450090  0.03764491  1  0.102477  -0.000264  0.948251  0.0  0.108597  -8.2e-05  1.012194  0.0  0.110649  -8.8e-05  1.010048  0.0  0.138016  0.107222  -5.9e-05  1.013529  0.0
H  H12  1  0.68591498  0.93556967  0.96235239  1  0.102434  -0.000258  0.948318  0.0  0.108585  -8.2e-05  1.012229  0.0  0.110635  -8.8e-05  1.010081  0.0  0.138074  0.107215  -5.9e-05  1.013572  0.0
H  H13  1  0.14636684  0.18496322  0.73989748  1  0.11671  -0.000247  0.952126  0.0  0.124979  -8.7e-05  1.016607  0.0  0.128045  -7.2e-05  1.012316  0.0  0.144876  0.122912  -9.3e-05  1.019786  0.0
H  H14  1  0.85364916  0.81499437  0.26009668  1  0.116818  -0.000251  0.951993  0.0  0.124897  -8.7e-05  1.016694  0.0  0.127959  -7.2e-05  1.012414  0.0  0.144882  0.122825  -9.3e-05  1.019867  0.0
H  H15  1  0.13119057  0.58891958  0.31549364  1  0.417985  4.8e-05  0.772752  0.0  0.403564  6.2e-05  0.821341  0.0  0.41297  3.3e-05  0.81194  0.0  0.352733  0.396716  6.2e-05  0.828344  0.0
H  H16  1  0.86882805  0.41108507  0.68450706  1  0.417902  4.8e-05  0.772946  0.0  0.403509  6.2e-05  0.821501  0.0  0.412913  3.3e-05  0.812108  0.0  0.352789  0.396661  6.2e-05  0.828505  0.0
C  C17  1  0.94246372  0.87961922  0.71693601  1  -0.025189  0.008993  3.756357  0.01  0.002758  0.005349  3.984597  0.006  -0.004159  0.003767  4.007133  0.005  -0.018411  0.007105  0.006591  3.969487  0.007
C  C18  1  0.05752476  0.12037135  0.28307423  1  -0.025244  0.008989  3.75636  0.01  0.002758  0.005352  3.984535  0.006  -0.004156  0.003765  4.007075  0.005  -0.018348  0.007111  0.006592  3.969421  0.007
C  C19  1  0.04981157  0.76190623  0.63554303  1  -0.092149  4.2e-05  3.716531  0.0  -0.134416  0.000463  3.970922  0.001  -0.133949  0.00017  3.991312  0.0  -0.085961  -0.134485  0.000818  3.957188  0.001
C  C20  1  0.95018048  0.23808071  0.36447121  1  -0.09247  6.5e-05  3.716733  0.0  -0.134732  0.000458  3.971193  0.001  -0.134285  0.000175  3.991568  0.0  -0.086138  -0.134808  0.000818  3.957469  0.001
C  C21  1  0.98952915  0.76146230  0.54598746  1  -0.077486  0.000791  3.835327  0.001  -0.053737  0.000398  4.076339  0.0  -0.062861  0.000272  4.102702  0.0  -0.025247  -0.047764  0.000533  4.058545  0.001
C  C22  1  0.01047927  0.23852442  0.45401778  1  -0.077359  0.000775  3.835536  0.001  -0.053585  0.000398  4.076479  0.0  -0.0627  0.000272  4.102841  0.0  -0.025212  -0.047621  0.000533  4.058696  0.001
C  C23  1  0.82113329  0.87464007  0.53948970  1  -0.146907  -0.000111  3.668456  0.0  -0.187731  5.1e-05  3.929059  0.0  -0.187888  -7e-05  3.94571  0.0  -0.08737  -0.187372  -7e-05  3.917904  0.0
C  C24  1  0.17887436  0.12534889  0.46051124  1  -0.147069  -9.5e-05  3.668601  0.0  -0.187849  5.4e-05  3.929212  0.0  -0.188006  -7.2e-05  3.945869  0.0  -0.087443  -0.18749  -7e-05  3.91805  0.0
C  C25  1  0.71424358  0.99279764  0.62138117  1  0.269874  -6.4e-05  3.793539  0.0  0.263482  -7.1e-05  4.062081  0.0  0.271478  -2.2e-05  4.079133  0.0  0.083329  0.257747  3.7e-05  4.050534  0.0
C  C26  1  0.28575651  0.00719302  0.37861625  1  0.269915  -6.9e-05  3.793452  0.0  0.263487  -7.4e-05  4.062039  0.0  0.271484  -2.2e-05  4.079089  0.0  0.083366  0.257764  3.7e-05  4.050475  0.0
C  C27  1  0.77449508  0.99729603  0.70964999  1  -0.188633  -0.000206  3.700122  0.0  -0.226323  0.000387  3.955382  0.0  -0.227862  0.000147  3.97275  0.0  -0.098821  -0.224899  0.000465  3.943581  0.0
C  C28  1  0.22549554  0.00269507  0.29035412  1  -0.188563  -0.000214  3.700312  0.0  -0.226257  0.00039  3.955556  0.0  -0.227797  0.000147  3.972934  0.0  -0.098834  -0.224845  0.000465  3.943754  0.0
C  C29  1  0.01013593  0.87909613  0.81226413  1  0.611049  -0.007423  3.934166  -0.007  0.572716  -0.002372  4.233935  -0.003  0.607781  -0.002747  4.230585  -0.003  0.187739  0.549098  -0.001813  4.235133  -0.003
C  C30  1  0.98984858  0.12090611  0.18774200  1  0.611177  -0.007423  3.933964  -0.007  0.572847  -0.002371  4.233717  -0.003  0.607911  -0.002746  4.230364  -0.003  0.187763  0.549232  -0.001812  4.234903  -0.003
C  C31  1  0.11013740  0.64597992  0.45705387  1  0.641624  7.2e-05  3.813979  0.0  0.59038  4.2e-05  4.121261  0.0  0.622608  2.5e-05  4.113924  0.0  0.230576  0.568379  0.000134  4.12585  0.0
C  C32  1  0.88986822  0.35401503  0.54295332  1  0.641691  7.1e-05  3.814069  0.0  0.590428  4.2e-05  4.12135  0.0  0.622652  2.5e-05  4.11401  0.0  0.230549  0.568437  0.000134  4.125933  0.0
C  C33  1  0.44763685  0.26897252  0.66262796  1  0.156025  0.000523  3.601943  0.001  0.079722  0.000437  3.860864  0.001  0.091678  0.000346  3.864181  0.0  0.051598  0.069552  0.000512  3.860147  0.001
C  C34  1  0.55236664  0.73102526  0.33736320  1  0.155595  0.000506  3.602073  0.001  0.079334  0.000437  3.861055  0.001  0.09127  0.000346  3.864398  0.0  0.051506  0.069164  0.000512  3.860322  0.001
C  C35  1  0.30507156  0.10949542  0.94997682  1  0.222873  -0.003907  3.666446  -0.002  0.178028  -0.001068  3.939834  0.0  0.19092  -0.001804  3.954412  -0.001  0.159843  0.170161  -0.000537  3.930124  0.0
C  C36  1  0.69491348  0.89054629  0.05001655  1  0.222992  -0.003934  3.666196  -0.002  0.178091  -0.001067  3.939626  0.0  0.190987  -0.001805  3.954205  -0.001  0.159826  0.17021  -0.000536  3.929932  0.0
C  C37  1  0.21663019  0.16767736  0.80038303  1  0.202725  -0.006224  3.598668  -0.003  0.1374  -0.002133  3.863412  -0.001  0.155514  -0.003122  3.87475  -0.001  0.17683  0.123769  -0.00142  3.856798  0.0
C  C38  1  0.78337296  0.83231112  0.19961025  1  0.202608  -0.0062  3.598791  -0.003  0.137401  -0.002133  3.863576  -0.001  0.155514  -0.003121  3.874912  -0.001  0.17678  0.12378  -0.00142  3.856945  0.0
N  N39  1  0.35760965  0.20620422  0.77403416  1  0.011339  0.001277  3.549273  0.002  0.097785  0.001013  3.778513  0.001  0.084699  0.000775  3.802618  0.001  -0.132751  0.109432  0.001181  3.761967  0.002
N  N40  1  0.64238937  0.79379982  0.22595816  1  0.011382  0.001249  3.549512  0.002  0.097868  0.001012  3.778686  0.001  0.084793  0.000773  3.80279  0.001  -0.132736  0.109519  0.00118  3.762135  0.002
N  N41  1  0.41585422  0.16929172  0.86876933  1  -0.256892  0.006112  2.853853  0.007  -0.245358  0.003437  3.117134  0.004  -0.254266  0.002559  3.130304  0.003  -0.212762  -0.241079  0.004322  3.108907  0.005
N  N42  1  0.58412900  0.83074850  0.13122556  1  -0.256965  0.006131  2.853841  0.007  -0.245419  0.003436  3.117153  0.004  -0.25433  0.00256  3.130323  0.003  -0.212806  -0.241138  0.004323  3.108928  0.005
N  N43  1  0.17981582  0.10588385  0.91157213  1  -0.376969  0.058953  3.262977  0.077  -0.33141  0.04495  3.576091  0.062  -0.364645  0.037143  3.589635  0.055  -0.359091  -0.310464  0.049385  3.568987  0.065
N  N44  1  0.82018195  0.89412386  0.08842283  1  -0.376973  0.058956  3.262945  0.077  -0.331354  0.044951  3.575984  0.062  -0.36459  0.037143  3.589533  0.055  -0.359054  -0.310401  0.049385  3.568876  0.065
O  O45  1  0.92258170  0.03740827  0.86202973  1  -0.614737  0.103181  2.021135  0.142  -0.592955  0.065912  2.30296  0.099  -0.637574  0.050012  2.294338  0.081  -0.343081  -0.56285  0.076094  2.308902  0.108
O  O46  1  0.07741197  0.96260125  0.13796809  1  -0.6148  0.103181  2.02105  0.142  -0.593023  0.065916  2.302876  0.099  -0.637642  0.050015  2.294251  0.081  -0.343094  -0.562914  0.076101  2.308807  0.108
O  O47  1  0.13897034  0.73588571  0.83796475  1  -0.592093  -0.001808  1.852729  0.001  -0.569534  -0.001625  2.057329  0.0  -0.592638  -0.002667  2.048897  -0.001  -0.339005  -0.553468  -0.000538  2.062711  0.002
O  O48  1  0.86101431  0.26411271  0.16204617  1  -0.592082  -0.001796  1.852721  0.001  -0.569521  -0.001628  2.057318  0.0  -0.592627  -0.002667  2.048895  -0.001  -0.338983  -0.553461  -0.000539  2.062699  0.002
O  O49  1  0.25944753  0.54377891  0.45682257  1  -0.538095  -7.8e-05  1.932115  0.0  -0.501854  -5.1e-05  2.148143  0.0  -0.520817  -5.4e-05  2.139411  0.0  -0.281895  -0.488756  4.4e-05  2.153926  0.0
O  O50  1  0.74057621  0.45621755  0.54318280  1  -0.538035  -7.4e-05  1.932651  0.0  -0.501774  -5.2e-05  2.148667  0.0  -0.520733  -5.4e-05  2.139936  0.0  -0.281735  -0.488674  4.3e-05  2.154435  0.0
O  O51  1  0.04041299  0.66330479  0.37161902  1  -0.548077  0.000173  2.108025  0.0  -0.499809  0.00016  2.326207  0.0  -0.520869  0.000109  2.31366  0.0  -0.323907  -0.484937  0.000205  2.334622  0.0
O  O52  1  0.95960424  0.33667997  0.62838793  1  -0.54801  0.000172  2.107794  0.0  -0.499861  0.00016  2.326136  0.0  -0.520924  0.00011  2.313587  0.0  -0.324068  -0.484986  0.000205  2.334547  0.0
O  O53  1  0.55225195  0.10194783  0.60581881  1  -0.279038  0.000174  2.26994  0.0  -0.220019  5.4e-05  2.503115  0.0  -0.236193  2.4e-05  2.502599  0.0  -0.179316  -0.208215  0.000125  2.503667  0.0
O  O54  1  0.44775298  0.89804571  0.39417457  1  -0.278978  0.000178  2.2699  0.0  -0.219934  5.5e-05  2.503084  0.0  -0.236097  2.4e-05  2.502572  0.0  -0.179288  -0.208133  0.000125  2.503627  0.0
