# generated using pymatgen
data_ZnH25C26N5O8
_symmetry_space_group_name_H-M   'P 1'
_cell_length_a   8.99286901
_cell_length_b   9.62614128
_cell_length_c   16.09979951
_cell_angle_alpha   73.34966236
_cell_angle_beta   76.62356480
_cell_angle_gamma   80.63083591
_symmetry_Int_Tables_number   1
_chemical_formula_structural   ZnH25C26N5O8
_chemical_formula_sum   'Zn2 H50 C52 N10 O16'
_cell_volume   1292.06271881
_cell_formula_units_Z   2
loop_
 _symmetry_equiv_pos_site_id
 _symmetry_equiv_pos_as_xyz
  1  'x, y, z'
loop_
 _atom_site_type_symbol
 _atom_site_label
 _atom_site_symmetry_multiplicity
 _atom_site_fract_x
 _atom_site_fract_y
 _atom_site_fract_z
 _atom_site_occupancy
 _atom_site_hle17_bader_spin_density
 _atom_site_hle17_ddec_charge
 _atom_site_hle17_ddec_spin_density
 _atom_site_hle17_ddec_sum_bond_order
 _atom_site_hle17_magmom
 _atom_site_hse06_10hf_bader_spin_density
 _atom_site_hse06_10hf_ddec_charge
 _atom_site_hse06_10hf_ddec_spin_density
 _atom_site_hse06_10hf_ddec_sum_bond_order
 _atom_site_hse06_10hf_magmom
 _atom_site_hse06_bader_spin_density
 _atom_site_hse06_ddec_charge
 _atom_site_hse06_ddec_spin_density
 _atom_site_hse06_ddec_sum_bond_order
 _atom_site_hse06_magmom
 _atom_site_pbe_bader_spin_density
 _atom_site_pbe_cm5_charge
 _atom_site_pbe_ddec_charge
 _atom_site_pbe_ddec_spin_density
 _atom_site_pbe_ddec_sum_bond_order
 _atom_site_pbe_magmom
Zn  Zn0  1  0.54118646  0.34754208  0.16833491  1  0  1.015009  0  1.846263  0  0  0.817151  0  2.328229  0  0  0.864243  0  2.273619  0  0  0.708002  0.781789  0  2.369043  0
Zn  Zn1  1  0.45881293  0.65245735  0.83166541  1  0  1.01502  0  1.846305  0  0  0.817135  0  2.328285  0  0  0.864223  0  2.273671  0  0  0.707988  0.781767  0  2.369091  0
H  H2  1  0.98069309  0.92345651  0.20296892  1  0  0.287852  0  0.947769  0  0  0.268968  0  1.014103  0  0  0.27643  0  1.008727  0  0  0.305461  0.264008  0  1.017651  0
H  H3  1  0.01930733  0.07654401  0.79702984  1  0  0.28776  0  0.947868  0  0  0.268935  0  1.014149  0  0  0.276399  0  1.008771  0  0  0.305443  0.263975  0  1.017694  0
H  H4  1  0.76459350  0.02105841  0.57618597  1  0  0.303264  0  0.930699  0  0  0.286385  0  0.995489  0  0  0.294289  0  0.98889  0  0  0.304879  0.280757  0  1.000231  0
H  H5  1  0.23540577  0.97894210  0.42381605  1  0  0.303241  0  0.930742  0  0  0.286364  0  0.995535  0  0  0.294266  0  0.988939  0  0  0.304881  0.280734  0  1.000279  0
H  H6  1  0.49882545  0.79409728  0.16626402  1  0  0.111556  0  0.93895  0  0  0.117211  0  1.006894  0  0  0.122066  0  1.001689  0  0  0.109667  0.11349  0  1.011174  0
H  H7  1  0.50117509  0.20590216  0.83373429  1  0  0.111585  0  0.93896  0  0  0.117235  0  1.006891  0  0  0.122108  0  1.001668  0  0  0.109679  0.113513  0  1.011171  0
H  H8  1  0.21402938  0.80400507  0.98319497  1  0  0.122993  0  0.951075  0  0  0.123026  0  1.026611  0  0  0.127586  0  1.022252  0  0  0.115292  0.120114  0  1.028917  0
H  H9  1  0.78597218  0.19599545  0.01680427  1  0  0.122928  0  0.951074  0  0  0.122971  0  1.026615  0  0  0.12753  0  1.022254  0  0  0.115279  0.120059  0  1.028922  0
H  H10  1  0.28484880  0.20402857  0.03333375  1  0  0.133996  0  0.937903  0  0  0.138719  0  1.003931  0  0  0.142843  0  1.000307  0  0  0.120763  0.136042  0  1.006131  0
H  H11  1  0.71515390  0.79597195  0.96666473  1  0  0.134011  0  0.937878  0  0  0.138733  0  1.003906  0  0  0.142857  0  1.000283  0  0  0.120762  0.136058  0  1.006103  0
H  H12  1  0.79211621  0.52488895  0.08650855  1  0  0.099925  0  0.938555  0  0  0.107114  0  1.002321  0  0  0.110097  0  0.999208  0  0  0.123557  0.105012  0  1.004152  0
H  H13  1  0.20788421  0.47511157  0.91349083  1  0  0.099952  0  0.938568  0  0  0.107119  0  1.002352  0  0  0.110087  0  0.999256  0  0  0.123556  0.105014  0  1.004185  0
H  H14  1  0.07284352  0.51446660  0.09264839  1  0  0.12488  0  0.966165  0  0  0.131393  0  1.028094  0  0  0.134975  0  1.027136  0  0  0.110568  0.128526  0  1.02934  0
H  H15  1  0.92715828  0.48553174  0.90735119  1  0  0.124887  0  0.966149  0  0  0.131393  0  1.028088  0  0  0.134974  0  1.027131  0  0  0.110581  0.128525  0  1.029337  0
H  H16  1  0.19783739  0.28645014  0.17926506  1  0  0.113009  0  0.965556  0  0  0.120851  0  1.029469  0  0  0.124282  0  1.026495  0  0  0.111501  0.117903  0  1.03251  0
H  H17  1  0.80216224  0.71354711  0.82073436  1  0  0.113029  0  0.965468  0  0  0.120877  0  1.029354  0  0  0.124299  0  1.02639  0  0  0.111474  0.117924  0  1.032406  0
H  H18  1  0.76498647  0.10092978  0.24295017  1  0  0.108762  0  0.947054  0  0  0.111465  0  1.020535  0  0  0.115736  0  1.01542  0  0  0.122991  0.108528  0  1.024059  0
H  H19  1  0.23501155  0.89907183  0.75705058  1  0  0.108772  0  0.947009  0  0  0.111491  0  1.020459  0  0  0.115766  0  1.015345  0  0  0.123002  0.108556  0  1.023982  0
H  H20  1  0.08405086  0.76922020  0.36956046  1  0  0.053208  0  0.944303  0  0  0.070441  0  1.007063  0  0  0.071433  0  1.005879  0  0  0.101607  0.069608  0  1.008233  0
H  H21  1  0.91594979  0.23077814  0.63043927  1  0  0.053206  0  0.94428  0  0  0.07043  0  1.007048  0  0  0.071419  0  1.005866  0  0  0.101604  0.069597  0  1.008215  0
H  H22  1  0.20126730  0.73028605  0.27258473  1  0  0.047381  0  0.928805  0  0  0.066399  0  0.991195  0  0  0.064956  0  0.993095  0  0  0.09665  0.067195  0  0.989714  0
H  H23  1  0.79873335  0.26971230  0.72741437  1  0  0.047401  0  0.928799  0  0  0.066422  0  0.991184  0  0  0.064978  0  0.993084  0  0  0.096659  0.067215  0  0.989707  0
H  H24  1  0.97419618  0.65894568  0.23412115  1  0  0.076852  0  0.936078  0  0  0.091856  0  0.999451  0  0  0.092967  0  0.999269  0  0  0.090677  0.090863  0  0.999934  0
H  H25  1  0.02580447  0.34105266  0.76587858  1  0  0.076865  0  0.936093  0  0  0.091864  0  0.999474  0  0  0.092975  0  0.999293  0  0  0.090679  0.090868  0  0.999962  0
H  H26  1  0.85334133  0.71044292  0.32549763  1  0  0.072703  0  0.936437  0  0  0.092338  0  0.993261  0  0  0.09339  0  0.99286  0  0  0.092228  0.091294  0  0.993977  0
H  H27  1  0.14665921  0.28955652  0.67450131  1  0  0.072698  0  0.936435  0  0  0.092341  0  0.993257  0  0  0.093394  0  0.992855  0  0  0.092217  0.091294  0  0.993971  0
H  H28  1  0.01694079  0.51528059  0.42504611  1  0  0.044583  0  0.955211  0  0  0.063173  0  1.021679  0  0  0.063421  0  1.022848  0  0  0.07927  0.062749  0  1.020939  0
H  H29  1  0.98305849  0.48471994  0.57495342  1  0  0.044572  0  0.955172  0  0  0.063192  0  1.021613  0  0  0.063426  0  1.022798  0  0  0.079275  0.062776  0  1.020866  0
H  H30  1  0.10844111  0.45421752  0.33077947  1  0  0.061658  0  0.94028  0  0  0.082051  0  0.997408  0  0  0.081641  0  1.000289  0  0  0.085166  0.082741  0  0.994089  0
H  H31  1  0.89155828  0.54578191  0.66922086  1  0  0.061665  0  0.940289  0  0  0.082057  0  0.997422  0  0  0.081648  0  1.0003  0  0  0.085164  0.082744  0  0.994114  0
H  H32  1  0.85265163  0.40799136  0.31150540  1  0  0.056554  0  0.956632  0  0  0.075615  0  1.018582  0  0  0.074828  0  1.022176  0  0  0.084234  0.076045  0  1.016024  0
H  H33  1  0.14734662  0.59200807  0.68849569  1  0  0.056531  0  0.956664  0  0  0.075591  0  1.018619  0  0  0.074804  0  1.022212  0  0  0.084211  0.076021  0  1.016051  0
H  H34  1  0.76082041  0.47487711  0.40305475  1  0  0.039915  0  0.956939  0  0  0.058374  0  1.024118  0  0  0.058029  0  1.025605  0  0  0.079473  0.058995  0  1.021763  0
H  H35  1  0.23917875  0.52512450  0.59694523  1  0  0.039931  0  0.956944  0  0  0.058393  0  1.024124  0  0  0.058048  0  1.025612  0  0  0.079486  0.059012  0  1.021764  0
H  H36  1  0.98239507  0.19522851  0.40477576  1  0  0.083781  0  0.957037  0  0  0.098135  0  1.022406  0  0  0.099574  0  1.022818  0  0  0.088498  0.097126  0  1.021435  0
H  H37  1  0.01760306  0.80477201  0.59522392  1  0  0.083862  0  0.956975  0  0  0.098182  0  1.022372  0  0  0.099639  0  1.022765  0  0  0.088529  0.097178  0  1.021404  0
H  H38  1  0.92312657  0.26934359  0.49723621  1  0  0.056877  0  0.954721  0  0  0.075429  0  1.016951  0  0  0.076372  0  1.01685  0  0  0.08196  0.074648  0  1.016832  0
H  H39  1  0.07687384  0.73065693  0.50276380  1  0  0.056861  0  0.954718  0  0  0.075413  0  1.016948  0  0  0.076355  0  1.01685  0  0  0.081959  0.074632  0  1.016838  0
H  H40  1  0.64805341  0.26088052  0.49578987  1  0  0.034676  0  0.941532  0  0  0.053151  0  1.005585  0  0  0.052263  0  1.006477  0  0  0.09231  0.053899  0  1.004249  0
H  H41  1  0.35194460  0.73912109  0.50421150  1  0  0.034714  0  0.941506  0  0  0.053191  0  1.005576  0  0  0.052306  0  1.006468  0  0  0.092322  0.053937  0  1.004235  0
H  H42  1  0.70247588  0.19514518  0.39986150  1  0  0.063687  0  0.950259  0  0  0.078111  0  1.016875  0  0  0.078241  0  1.018122  0  0  0.105099  0.077739  0  1.01602  0
H  H43  1  0.29752225  0.80485534  0.60014005  1  0  0.063652  0  0.950271  0  0  0.078109  0  1.016867  0  0  0.078239  0  1.018116  0  0  0.105084  0.077738  0  1.016007  0
H  H44  1  0.58552970  0.88564055  0.66831513  1  0  0.105412  0  0.94082  0  0  0.110215  0  1.00903  0  0  0.11359  0  1.005516  0  0  0.126445  0.107601  0  1.011711  0
H  H45  1  0.41446397  0.11435889  0.33168717  1  0  0.105438  0  0.940855  0  0  0.110246  0  1.009048  0  0  0.11362  0  1.005537  0  0  0.126455  0.107653  0  1.011701  0
H  H46  1  0.71821314  0.68029620  0.45308819  1  0  0.101688  0  0.958593  0  0  0.111056  0  1.020672  0  0  0.114498  0  1.017252  0  0  0.112378  0.108201  0  1.023882  0
H  H47  1  0.28178692  0.31970759  0.54691255  1  0  0.101719  0  0.958562  0  0  0.111106  0  1.020623  0  0  0.114547  0  1.017206  0  0  0.112417  0.108271  0  1.023805  0
H  H48  1  0.63121315  0.44604469  0.56185463  1  0  0.103019  0  0.952728  0  0  0.115604  0  1.007647  0  0  0.118655  0  1.007484  0  0  0.109714  0.113095  0  1.008199  0
H  H49  1  0.36878944  0.55395692  0.43814429  1  0  0.102992  0  0.952771  0  0  0.115587  0  1.007676  0  0  0.118637  0  1.007515  0  0  0.109717  0.113077  0  1.008227  0
H  H50  1  0.52280432  0.45069013  0.71998095  1  0  0.090791  0  0.941405  0  0  0.10027  0  1.001147  0  0  0.103237  0  0.997944  0  0  0.122602  0.097661  0  1.003589  0
H  H51  1  0.47719519  0.54930821  0.28001830  1  0  0.090827  0  0.941412  0  0  0.100306  0  1.001151  0  0  0.103274  0  0.997946  0  0  0.122611  0.097699  0  1.003594  0
C  C52  1  0.47042762  0.08315663  0.15290601  1  0  0.628249  0  3.942725  0  0  0.576375  0  4.240704  0  0  0.609316  0  4.236554  0  0  0.198157  0.553799  0  4.242596  0
C  C53  1  0.52957394  0.91684389  0.84709261  1  0  0.628309  0  3.942671  0  0  0.576417  0  4.24068  0  0  0.609359  0  4.236528  0  0  0.198176  0.553834  0  4.242583  0
C  C54  1  0.39392968  0.00566999  0.10775135  1  0  -0.057218  0  3.732774  0  0  -0.028592  0  3.965666  0  0  -0.040004  0  3.991527  0  0  -0.012836  -0.022372  0  3.950484  0
C  C55  1  0.60607085  0.99432944  0.89224820  1  0  -0.057188  0  3.732737  0  0  -0.028552  0  3.965621  0  0  -0.039965  0  3.991489  0  0  -0.012813  -0.022339  0  3.950448  0
C  C56  1  0.42243655  0.85432664  0.12154923  1  0  -0.033904  0  3.648674  0  0  -0.07824  0  3.904004  0  0  -0.072951  0  3.920284  0  0  -0.0604  -0.079713  0  3.893339  0
C  C57  1  0.57756501  0.14567387  0.87845001  1  0  -0.033944  0  3.648757  0  0  -0.078265  0  3.904074  0  0  -0.072995  0  3.920352  0  0  -0.060403  -0.079734  0  3.893412  0
C  C58  1  0.35861017  0.78137662  0.07663233  1  0  -0.055824  0  3.728531  0  0  -0.027977  0  3.963103  0  0  -0.038608  0  3.986196  0  0  -0.011153  -0.021771  0  3.946437  0
C  C59  1  0.64139253  0.21862390  0.92336614  1  0  -0.055869  0  3.728651  0  0  -0.028009  0  3.96322  0  0  -0.038641  0  3.986319  0  0  -0.011134  -0.021808  0  3.946556  0
C  C60  1  0.26348136  0.86020966  0.01834730  1  0  -0.070647  0  3.67687  0  0  -0.114965  0  3.943232  0  0  -0.109531  0  3.957989  0  0  -0.06502  -0.116014  0  3.931723  0
C  C61  1  0.73652147  0.13978977  0.98165134  1  0  -0.070521  0  3.676847  0  0  -0.114894  0  3.943236  0  0  -0.109458  0  3.957988  0  0  -0.06502  -0.115942  0  3.931722  0
C  C62  1  0.23886452  0.01115699  0.00396982  1  0  0.066323  0  3.729952  0  0  0.049683  0  3.990193  0  0  0.04385  0  4.012843  0  0  0.07512  0.053655  0  3.977561  0
C  C63  1  0.76113716  0.98884244  0.99602834  1  0  0.066253  0  3.729996  0  0  0.049668  0  3.990168  0  0  0.043834  0  4.012816  0  0  0.07511  0.053644  0  3.977522  0
C  C64  1  0.30264229  0.08587515  0.04730532  1  0  -0.079942  0  3.6688  0  0  -0.120901  0  3.929243  0  0  -0.116621  0  3.947065  0  0  -0.064636  -0.123666  0  3.918937  0
C  C65  1  0.69736042  0.91412537  0.95269377  1  0  -0.079952  0  3.668784  0  0  -0.120917  0  3.92921  0  0  -0.116636  0  3.947033  0  0  -0.064639  -0.123686  0  3.918905  0
C  C66  1  0.39398819  0.61956948  0.08699504  1  0  0.646967  0  3.925178  0  0  0.597946  0  4.215424  0  0  0.632224  0  4.208394  0  0  0.205416  0.574973  0  4.21875  0
C  C67  1  0.60601349  0.38042995  0.91300437  1  0  0.646977  0  3.925189  0  0  0.597962  0  4.21541  0  0  0.632241  0  4.208379  0  0  0.205435  0.574991  0  4.218735  0
C  C68  1  0.85351220  0.42794904  0.12281894  1  0  0.136576  0  3.664849  0  0  0.100961  0  3.914314  0  0  0.109666  0  3.931305  0  0  0.05475  0.095821  0  3.902015  0
C  C69  1  0.14648730  0.57204930  0.87718218  1  0  0.136586  0  3.664897  0  0  0.100993  0  3.914338  0  0  0.109711  0  3.931329  0  0  0.054796  0.095856  0  3.90203  0
C  C70  1  0.00720466  0.42182684  0.12693853  1  0  -0.111894  0  3.69804  0  0  -0.121826  0  3.947637  0  0  -0.130699  0  3.969353  0  0  -0.076589  -0.116494  0  3.933198  0
C  C71  1  0.99279496  0.57817041  0.87306276  1  0  -0.111833  0  3.697912  0  0  -0.121775  0  3.947476  0  0  -0.130651  0  3.969201  0  0  -0.076603  -0.116445  0  3.93304  0
C  C72  1  0.07705951  0.29435028  0.17572092  1  0  0.002569  0  3.64443  0  0  -0.026245  0  3.88783  0  0  -0.020178  0  3.903785  0  0  -0.051444  -0.02976  0  3.877568  0
C  C73  1  0.92294102  0.70564915  0.82427926  1  0  0.00249  0  3.644348  0  0  -0.026278  0  3.887726  0  0  -0.020205  0  3.903687  0  0  -0.051437  -0.029787  0  3.877461  0
C  C74  1  0.99256795  0.17458930  0.21699343  1  0  -0.095422  0  3.723682  0  0  -0.067974  0  3.959511  0  0  -0.079124  0  3.982339  0  0  -0.003307  -0.061423  0  3.945026  0
C  C75  1  0.00743384  0.82540903  0.78300739  1  0  -0.095508  0  3.723726  0  0  -0.068125  0  3.959594  0  0  -0.079275  0  3.982421  0  0  -0.003294  -0.061574  0  3.94511  0
C  C76  1  0.83813354  0.18899861  0.21059070  1  0  0.111949  0  3.647986  0  0  0.066104  0  3.90279  0  0  0.075808  0  3.917546  0  0  0.054027  0.059594  0  3.893356  0
C  C77  1  0.16186482  0.81099973  0.78941118  1  0  0.111963  0  3.648072  0  0  0.066138  0  3.902848  0  0  0.075838  0  3.91761  0  0  0.053983  0.059621  0  3.893412  0
C  C78  1  0.06631747  0.03505956  0.26865600  1  0  0.554312  0  3.853452  0  0  0.502497  0  4.144889  0  0  0.531893  0  4.145547  0  0  0.244243  0.482849  0  4.144177  0
C  C79  1  0.93368077  0.96493987  0.73134509  1  0  0.554393  0  3.853473  0  0  0.502613  0  4.144898  0  0  0.532011  0  4.145557  0  0  0.244277  0.482964  0  4.144186  0
C  C80  1  0.08285273  0.76642564  0.30191787  1  0  0.07974  0  3.656276  0  0  0.018367  0  3.922733  0  0  0.024292  0  3.934934  0  0  -0.058498  0.014567  0  3.914384  0
C  C81  1  0.91714781  0.23357379  0.69808106  1  0  0.079693  0  3.656155  0  0  0.018318  0  3.922628  0  0  0.024247  0  3.934827  0  0  -0.058522  0.014516  0  3.914281  0
C  C82  1  0.97047011  0.66296174  0.30231314  1  0  -0.141093  0  3.675662  0  0  -0.178464  0  3.935001  0  0  -0.180005  0  3.948428  0  0  -0.164933  -0.177462  0  3.926414  0
C  C83  1  0.02953030  0.33703878  0.69768687  1  0  -0.141125  0  3.675587  0  0  -0.178509  0  3.934955  0  0  -0.180052  0  3.948378  0  0  -0.164941  -0.177503  0  3.926367  0
C  C84  1  0.00030289  0.50895875  0.36045141  1  0  -0.100119  0  3.705241  0  0  -0.137857  0  3.964603  0  0  -0.139522  0  3.981704  0  0  -0.167582  -0.136782  0  3.952288  0
C  C85  1  0.99969524  0.49104177  0.63954827  1  0  -0.100053  0  3.705035  0  0  -0.137803  0  3.96441  0  0  -0.139459  0  3.981511  0  0  -0.16753  -0.136737  0  3.9521  0
C  C86  1  0.86887552  0.41659932  0.37555944  1  0  -0.101233  0  3.705518  0  0  -0.138662  0  3.965455  0  0  -0.139859  0  3.982464  0  0  -0.167774  -0.137587  0  3.953207  0
C  C87  1  0.13112375  0.58340120  0.62444134  1  0  -0.101238  0  3.705475  0  0  -0.138678  0  3.965441  0  0  -0.139877  0  3.98245  0  0  -0.167788  -0.137593  0  3.953177  0
C  C88  1  0.88942846  0.26335873  0.43678410  1  0  -0.144527  0  3.681114  0  0  -0.184932  0  3.944148  0  0  -0.187338  0  3.958138  0  0  -0.171956  -0.18304  0  3.93434  0
C  C89  1  0.11056955  0.73664289  0.56321603  1  0  -0.144606  0  3.681119  0  0  -0.184979  0  3.94417  0  0  -0.187393  0  3.958151  0  0  -0.171989  -0.183096  0  3.934375  0
C  C90  1  0.73865900  0.19436966  0.46062295  1  0  0.071415  0  3.673003  0  0  0.013422  0  3.936913  0  0  0.019173  0  3.949685  0  0  -0.063226  0.009311  0  3.928177  0
C  C91  1  0.26133901  0.80563195  0.53937842  1  0  0.071428  0  3.673024  0  0  0.013396  0  3.936943  0  0  0.019133  0  3.949738  0  0  -0.063201  0.009283  0  3.928207  0
C  C92  1  0.70170299  0.93933055  0.48497418  1  0  0.530007  0  3.880722  0  0  0.482848  0  4.168759  0  0  0.512302  0  4.170117  0  0  0.23302  0.463156  0  4.166868  0
C  C93  1  0.29829501  0.06067106  0.51502844  1  0  0.530111  0  3.880484  0  0  0.48296  0  4.168527  0  0  0.512413  0  4.169881  0  0  0.233076  0.463276  0  4.166624  0
C  C94  1  0.60259700  0.79099642  0.64148472  1  0  0.133005  0  3.627471  0  0  0.087583  0  3.884233  0  0  0.097839  0  3.898566  0  0  0.066492  0.080756  0  3.874434  0
C  C95  1  0.39739998  0.20900410  0.35851698  1  0  0.1329  0  3.627427  0  0  0.087504  0  3.884184  0  0  0.097763  0  3.898518  0  0  0.06649  0.080667  0  3.874368  0
C  C96  1  0.66508358  0.79848567  0.55245907  1  0  -0.083261  0  3.716069  0  0  -0.058254  0  3.954006  0  0  -0.069068  0  3.976222  0  0  0.002647  -0.051195  0  3.937451  0
C  C97  1  0.33491443  0.20151594  0.44754230  1  0  -0.083119  0  3.71589  0  0  -0.058127  0  3.953829  0  0  -0.068941  0  3.976047  0  0  0.002677  -0.051068  0  3.937277  0
C  C98  1  0.67455462  0.67347678  0.52301054  1  0  -0.008213  0  3.690687  0  0  -0.038838  0  3.940504  0  0  -0.032151  0  3.955457  0  0  -0.052833  -0.043301  0  3.929646  0
C  C99  1  0.32544556  0.32652591  0.47698975  1  0  -0.008348  0  3.690764  0  0  -0.039002  0  3.940624  0  0  -0.032319  0  3.955579  0  0  -0.052894  -0.043485  0  3.929756  0
C  C100  1  0.62467965  0.54569387  0.58242877  1  0  -0.128359  0  3.760241  0  0  -0.140156  0  4.019312  0  0  -0.148383  0  4.040302  0  0  -0.081353  -0.134472  0  4.002899  0
C  C101  1  0.37532179  0.45430773  0.41757092  1  0  -0.12825  0  3.760202  0  0  -0.140036  0  4.019254  0  0  -0.148262  0  4.040246  0  0  -0.081316  -0.134354  0  4.002849  0
C  C102  1  0.56426463  0.54677492  0.66993601  1  0  0.128999  0  3.701795  0  0  0.094262  0  3.954297  0  0  0.102964  0  3.971232  0  0  0.052584  0.090052  0  3.939854  0
C  C103  1  0.43573464  0.45322561  0.33006353  1  0  0.128956  0  3.701841  0  0  0.094226  0  3.954359  0  0  0.102928  0  3.971294  0  0  0.052586  0.090012  0  3.939925  0
N  N104  1  0.77055333  0.31407426  0.16490028  1  0  -0.34154  0  3.326196  0  0  -0.251055  0  3.612134  0  0  -0.271805  0  3.625375  0  0  -0.334532  -0.237161  0  3.603529  0
N  N105  1  0.22944617  0.68592407  0.83510146  1  0  -0.341602  0  3.326362  0  0  -0.251103  0  3.612268  0  0  -0.271852  0  3.625503  0  0  -0.334541  -0.237197  0  3.603647  0
N  N106  1  0.03645028  0.91327340  0.25346308  1  0  -0.425302  0  3.335317  0  0  -0.363626  0  3.583744  0  0  -0.386962  0  3.595741  0  0  -0.417477  -0.347923  0  3.574825  0
N  N107  1  0.96355025  0.08672603  0.74653648  1  0  -0.425203  0  3.335319  0  0  -0.363567  0  3.583674  0  0  -0.386895  0  3.595647  0  0  -0.417462  -0.347861  0  3.574751  0
N  N108  1  0.74056477  0.04454248  0.51405162  1  0  -0.4295  0  3.291693  0  0  -0.369928  0  3.53616  0  0  -0.392338  0  3.545013  0  0  -0.418116  -0.354193  0  3.529248  0
N  N109  1  0.25943335  0.95545804  0.48595117  1  0  -0.429485  0  3.291683  0  0  -0.369919  0  3.536178  0  0  -0.39232  0  3.545031  0  0  -0.418126  -0.354188  0  3.529267  0
N  N110  1  0.55340928  0.66735556  0.69856458  1  0  -0.337194  0  3.2938  0  0  -0.253378  0  3.57637  0  0  -0.273093  0  3.589758  0  0  -0.327277  -0.240199  0  3.567205  0
N  N111  1  0.44658885  0.33264496  0.30143572  1  0  -0.337201  0  3.293807  0  0  -0.253434  0  3.576417  0  0  -0.273152  0  3.589806  0  0  -0.327324  -0.240261  0  3.567269  0
N  N112  1  0.14773766  0.09393980  0.93859748  1  0  0.485962  0  3.929269  0  0  0.542577  0  4.178483  0  0  0.564747  0  4.18567  0  0  0.060133  0.526398  0  4.176243  0
N  N113  1  0.85226402  0.90605963  0.06140131  1  0  0.486158  0  3.929132  0  0  0.542711  0  4.178327  0  0  0.564879  0  4.185511  0  0  0.060249  0.526538  0  4.176079  0
O  O114  1  0.44012495  0.22432101  0.12897915  1  0  -0.650218  0  2.123318  0  0  -0.569307  0  2.409766  0  0  -0.59873  0  2.393912  0  0  -0.329786  -0.54745  0  2.420802  0
O  O115  1  0.55987548  0.77567951  0.87101899  1  0  -0.650223  0  2.123283  0  0  -0.5693  0  2.409754  0  0  -0.59872  0  2.393895  0  0  -0.329771  -0.547438  0  2.420794  0
O  O116  1  0.55484890  0.01427458  0.20565795  1  0  -0.586622  0  1.884379  0  0  -0.547492  0  2.100153  0  0  -0.568057  0  2.09119  0  0  -0.32158  -0.532443  0  2.105606  0
O  O117  1  0.44515369  0.98572703  0.79433973  1  0  -0.586679  0  1.884339  0  0  -0.54755  0  2.100123  0  0  -0.568118  0  2.091161  0  0  -0.321621  -0.532494  0  2.105574  0
O  O118  1  0.50348299  0.56026969  0.13059206  1  0  -0.665712  0  2.076652  0  0  -0.590178  0  2.355622  0  0  -0.619881  0  2.339754  0  0  -0.337044  -0.568777  0  2.366111  0
O  O119  1  0.49651743  0.43973083  0.86940795  1  0  -0.665649  0  2.076635  0  0  -0.590128  0  2.355637  0  0  -0.619829  0  2.339768  0  0  -0.337011  -0.568723  0  2.366121  0
O  O120  1  0.32008104  0.55554442  0.05552275  1  0  -0.588379  0  1.911312  0  0  -0.544235  0  2.132243  0  0  -0.565962  0  2.123346  0  0  -0.31168  -0.528083  0  2.137924  0
O  O121  1  0.67992064  0.44445501  0.94447728  1  0  -0.588428  0  1.911329  0  0  -0.544295  0  2.13224  0  0  -0.566023  0  2.123345  0  0  -0.311729  -0.528146  0  2.137925  0
O  O122  1  0.09010138  0.02279297  0.90245232  1  0  -0.378458  0  1.86772  0  0  -0.361619  0  2.074194  0  0  -0.376958  0  2.073517  0  0  -0.124827  -0.352402  0  2.07718  0
O  O123  1  0.90989892  0.97720864  0.09754628  1  0  -0.378641  0  1.867805  0  0  -0.361705  0  2.074105  0  0  -0.377038  0  2.073423  0  0  -0.124891  -0.35249  0  2.077086  0
O  O124  1  0.13084510  0.22884185  0.92177244  1  0  -0.343068  0  1.758015  0  0  -0.331093  0  1.946608  0  0  -0.342212  0  1.942716  0  0  -0.116542  -0.324674  0  1.950591  0
O  O125  1  0.86915749  0.77115976  0.07822586  1  0  -0.343152  0  1.757994  0  0  -0.331161  0  1.946664  0  0  -0.342281  0  1.942773  0  0  -0.116601  -0.324747  0  1.950648  0
O  O126  1  0.14822887  0.03686562  0.32138256  1  0  -0.581826  0  1.936348  0  0  -0.539011  0  2.164306  0  0  -0.559924  0  2.157186  0  0  -0.307659  -0.524699  0  2.168849  0
O  O127  1  0.85177063  0.96313272  0.67861855  1  0  -0.58188  0  1.936454  0  0  -0.539063  0  2.164413  0  0  -0.559983  0  2.157295  0  0  -0.307669  -0.524754  0  2.168957  0
O  O128  1  0.68713669  0.95471031  0.40763241  1  0  -0.55058  0  1.885801  0  0  -0.512309  0  2.100727  0  0  -0.533739  0  2.095641  0  0  -0.307531  -0.497486  0  2.10364  0
O  O129  1  0.31286246  0.04529129  0.59236944  1  0  -0.550684  0  1.885721  0  0  -0.512425  0  2.100644  0  0  -0.533854  0  2.095557  0  0  -0.30761  -0.49761  0  2.103559  0
