# generated using pymatgen
data_Mn2H18C26N4O13
_symmetry_space_group_name_H-M   'P 1'
_cell_length_a   10.49051738
_cell_length_b   11.66098472
_cell_length_c   14.31722025
_cell_angle_alpha   105.11487991
_cell_angle_beta   104.03854063
_cell_angle_gamma   100.34200649
_symmetry_Int_Tables_number   1
_chemical_formula_structural   Mn2H18C26N4O13
_chemical_formula_sum   'Mn4 H36 C52 N8 O26'
_cell_volume   1584.26272766
_cell_formula_units_Z   2
loop_
 _symmetry_equiv_pos_site_id
 _symmetry_equiv_pos_as_xyz
  1  'x, y, z'
loop_
 _atom_site_type_symbol
 _atom_site_label
 _atom_site_symmetry_multiplicity
 _atom_site_fract_x
 _atom_site_fract_y
 _atom_site_fract_z
 _atom_site_occupancy
 _atom_site_pbe_bader_charge
 _atom_site_pbe_bader_spin_density
 _atom_site_pbe_cm5_charge
 _atom_site_pbe_ddec_charge
 _atom_site_pbe_ddec_spin_density
 _atom_site_pbe_ddec_sum_bond_order
 _atom_site_pbe_magmom
Mn  Mn0  1  0.00904034  0.78427446  0.78849725  1  1.509689  4.536098  0.603401  0.924669  4.666318  2.34983  4.463
Mn  Mn1  1  0.99096121  0.21571782  0.21150943  1  1.509814  4.536075  0.603386  0.924664  4.666312  2.349858  4.463
Mn  Mn2  1  0.70852479  0.52503416  0.72415366  1  1.495397  4.556689  0.601964  0.925698  4.681639  2.299581  4.475
Mn  Mn3  1  0.29148254  0.47496454  0.27584632  1  1.495358  4.556698  0.601988  0.925743  4.681648  2.299541  4.475
H  H4  1  0.93605102  0.53045719  0.68035267  1  0.648192  0.001521  0.292556  0.371055  0.001473  0.986801  0.003
H  H5  1  0.06394748  0.46954154  0.31964784  1  0.64819  0.001521  0.292518  0.371035  0.001472  0.986845  0.003
H  H6  1  0.99110654  0.56838118  0.81072138  1  0.65058  0.001296  0.290831  0.369375  0.001432  0.990691  0.002
H  H7  1  0.00889123  0.43161847  0.18927850  1  0.650538  0.001297  0.290835  0.369398  0.001431  0.990658  0.002
H  H8  1  0.02205290  0.98736506  0.69139345  1  0.12237  0.001822  0.128626  0.116485  0.001083  0.979579  0.001
H  H9  1  0.97794907  0.01263550  0.30860737  1  0.122419  0.001823  0.128613  0.116454  0.001084  0.979607  0.001
H  H10  1  0.15756905  0.34370256  0.92488841  1  0.103907  0.000302  0.119473  0.140106  -2.8e-05  1.005755  0.0
H  H11  1  0.84243220  0.65629892  0.07511108  1  0.103939  0.000302  0.119493  0.140094  -2.8e-05  1.005771  0.0
H  H12  1  0.12913708  0.00318075  0.99414054  1  0.129224  0.001214  0.119743  0.092538  0.00033  1.028738  0.001
H  H13  1  0.87086025  0.99682074  0.00586035  1  0.12922  0.001214  0.119758  0.092584  0.000331  1.028758  0.001
H  H14  1  0.02689508  0.37963052  0.80188018  1  0.110605  0.000259  0.12344  0.077649  -3.4e-05  1.015969  0.0
H  H15  1  0.97310314  0.62036728  0.19811869  1  0.110601  0.000259  0.123443  0.077646  -3.4e-05  1.015981  0.0
H  H16  1  0.00302276  0.35322322  0.66774880  1  0.149238  0.000206  0.120474  0.073228  -3e-06  1.031948  0.0
H  H17  1  0.99697671  0.64677550  0.33225048  1  0.149222  0.000206  0.120466  0.073204  -3e-06  1.031978  0.0
H  H18  1  0.09506988  0.30588464  0.55467893  1  0.11034  0.000308  0.118212  0.135599  -2.4e-05  1.005827  0.0
H  H19  1  0.90492914  0.69411593  0.44532207  1  0.110361  0.000308  0.118218  0.135607  -2.4e-05  1.005882  0.0
H  H20  1  0.49082940  0.41821835  0.52208428  1  0.11415  0.00118  0.119405  0.089893  0.00024  1.065238  0.001
H  H21  1  0.50916766  0.58178222  0.47791497  1  0.114262  0.00118  0.119393  0.089859  0.00024  1.065247  0.001
H  H22  1  0.63145847  0.22442003  0.64195552  1  0.132224  0.001006  0.123639  0.114375  0.000255  0.989086  0.0
H  H23  1  0.36854395  0.77557868  0.35804359  1  0.132234  0.001005  0.123652  0.114392  0.000255  0.989006  0.0
H  H24  1  0.74686186  0.94476264  0.78687844  1  0.138544  0.000208  0.121413  0.076801  -0.000279  1.002164  0.0
H  H25  1  0.25313762  0.05523609  0.21312364  1  0.138539  0.000208  0.121406  0.076841  -0.000279  1.002151  0.0
H  H26  1  0.63636072  0.84624396  0.66570936  1  0.109844  0.000357  0.120963  0.075281  -9.7e-05  1.012952  0.0
H  H27  1  0.36363803  0.15375568  0.33429209  1  0.109828  0.000357  0.120954  0.075293  -9.7e-05  1.012959  0.0
H  H28  1  0.34187288  0.89697970  0.84933253  1  0.113494  0.001397  0.126023  0.110865  0.000667  0.973141  0.001
H  H29  1  0.65812588  0.10301995  0.15066752  1  0.113493  0.001398  0.126008  0.110879  0.000667  0.973147  0.001
H  H30  1  0.05042170  0.64471625  0.59033013  1  0.137933  0.001347  0.12  0.099283  0.000795  1.052699  0.001
H  H31  1  0.94957608  0.35528339  0.40966905  1  0.137952  0.001347  0.120006  0.099316  0.000795  1.052706  0.001
H  H32  1  0.45750480  0.75194731  0.57994302  1  0.102225  0.000335  0.116513  0.131709  -7.6e-05  1.018145  0.0
H  H33  1  0.54249298  0.24805233  0.42005686  1  0.102214  0.000335  0.116488  0.131657  -7.6e-05  1.018179  0.0
H  H34  1  0.74552857  0.09420948  0.90010089  1  0.121973  0.000265  0.115913  0.131146  -7.7e-05  1.021046  0.0
H  H35  1  0.25447465  0.90579200  0.09990035  1  0.121983  0.000265  0.115925  0.131164  -7.7e-05  1.021048  0.0
H  H36  1  0.82437397  0.47775927  0.92968426  1  0.146974  0.001073  0.117424  0.094198  0.000478  1.041484  0.001
H  H37  1  0.17562505  0.52224130  0.07031464  1  0.147038  0.001072  0.117426  0.094215  0.000477  1.041487  0.001
H  H38  1  0.45528598  0.49587760  0.81301884  1  0.110268  0.001562  0.130147  0.115803  0.00089  0.967638  0.001
H  H39  1  0.54471448  0.50412113  0.18698131  1  0.11026  0.001562  0.130139  0.115785  0.00089  0.967662  0.001
C  C40  1  0.05944504  0.04432149  0.77113682  1  0.500697  0.014141  0.045179  -0.022437  0.012026  3.920064  0.009
C  C41  1  0.94055523  0.95567999  0.22886389  1  0.500623  0.014146  0.045251  -0.022331  0.01203  3.919893  0.009
C  C42  1  0.08290426  0.17212451  0.79756118  1  0.52889  -0.000285  0.088622  0.222706  -0.001265  4.069566  -0.001
C  C43  1  0.91709619  0.82787421  0.20243828  1  0.528645  -0.000284  0.088622  0.222651  -0.001266  4.069468  -0.001
C  C44  1  0.13327485  0.24357640  0.90030896  1  -0.0181  0.011836  -0.07727  -0.186769  0.008914  3.903294  0.007
C  C45  1  0.86672666  0.75642600  0.09969008  1  -0.017881  0.011837  -0.077326  -0.186756  0.008915  3.903357  0.007
C  C46  1  0.14917340  0.18245405  0.97300598  1  -0.012693  0.002041  -0.00582  -0.044784  -6.2e-05  3.957931  0.0
C  C47  1  0.85082634  0.81754559  0.02699495  1  -0.012688  0.002041  -0.005792  -0.044746  -6.3e-05  3.957896  0.0
C  C48  1  0.11980505  0.05405304  0.94010676  1  0.478536  0.0129  0.045726  0.048092  0.009781  3.923822  0.009
C  C49  1  0.88019352  0.94594937  0.05989315  1  0.478527  0.012905  0.045669  0.047943  0.009786  3.923794  0.009
C  C50  1  0.18854432  0.25005788  0.08546241  1  1.602256  0.029574  0.223563  0.593926  0.028536  4.17175  0.024
C  C51  1  0.81145943  0.74994544  0.91453861  1  1.602246  0.029577  0.223568  0.593848  0.02854  4.171765  0.024
C  C52  1  0.06294718  0.34249191  0.73753502  1  0.855072  0.000825  0.020955  0.156031  0.000465  3.905233  0.001
C  C53  1  0.93705328  0.65750681  0.26246444  1  0.855028  0.000825  0.020966  0.156083  0.000465  3.905264  0.001
C  C54  1  0.26505947  0.40256914  0.69341928  1  0.483585  -0.000453  0.091461  0.220411  -0.001514  4.048491  -0.001
C  C55  1  0.73493955  0.59743142  0.30658102  1  0.483578  -0.000453  0.091443  0.220396  -0.001514  4.048486  -0.001
C  C56  1  0.20344690  0.34982520  0.58837996  1  -0.01149  0.01262  -0.072713  -0.166255  0.009562  3.89761  0.008
C  C57  1  0.79655114  0.65017537  0.41161946  1  -0.011468  0.012623  -0.072753  -0.166318  0.009565  3.897689  0.008
C  C58  1  0.28519197  0.35740518  0.52496461  1  -0.04596  0.001642  -0.012674  -0.058739  -0.000329  3.969268  0.0
C  C59  1  0.71480607  0.64259538  0.47503551  1  -0.045962  0.001641  -0.012666  -0.05873  -0.000329  3.969189  0.0
C  C60  1  0.22970630  0.31133014  0.41037954  1  1.552856  0.026218  0.221682  0.58608  0.02489  4.179634  0.022
C  C61  1  0.77029272  0.68867043  0.58962006  1  1.552659  0.026217  0.221653  0.586056  0.024887  4.179557  0.022
C  C62  1  0.42425795  0.41300800  0.56902699  1  0.551635  0.012563  0.043575  0.048276  0.009758  3.92681  0.008
C  C63  1  0.57574108  0.58699257  0.43097191  1  0.55163  0.012565  0.043624  0.048371  0.00976  3.926777  0.008
C  C64  1  0.67574140  0.24023586  0.72290185  1  0.512445  0.006225  0.043737  -0.012728  0.004567  3.897284  0.004
C  C65  1  0.32426030  0.75976378  0.27709803  1  0.512487  0.006225  0.043734  -0.012702  0.004567  3.897143  0.004
C  C66  1  0.68304327  0.14108283  0.76057374  1  0.499142  0.000637  0.085621  0.218187  9.1e-05  4.067523  0.0
C  C67  1  0.31695843  0.85891681  0.23942614  1  0.499065  0.000637  0.085613  0.218153  9e-05  4.067488  0.0
C  C68  1  0.64762670  0.92566224  0.73048175  1  0.852118  0.000543  0.028647  0.170784  0.000289  3.888365  0.0
C  C69  1  0.35237304  0.07433740  0.26951917  1  0.852161  0.000543  0.028614  0.170634  0.000289  3.888347  0.0
C  C70  1  0.41997447  0.83412805  0.72330124  1  0.501463  0.000721  0.090616  0.221704  0.000103  4.052074  0.0
C  C71  1  0.58002428  0.16587159  0.27669882  1  0.501459  0.000722  0.090689  0.221808  0.000104  4.051987  0.0
C  C72  1  0.31774559  0.83847835  0.77089852  1  0.511175  0.007026  0.047185  -0.014388  0.005215  3.912833  0.004
C  C73  1  0.68225317  0.16152129  0.22910223  1  0.51118  0.007027  0.047149  -0.014546  0.005217  3.912863  0.004
C  C74  1  0.15527769  0.69870080  0.62697609  1  0.516991  0.007971  0.045878  0.055269  0.006453  3.920624  0.005
C  C75  1  0.84472134  0.30129976  0.37302350  1  0.517259  0.007972  0.045869  0.055229  0.006454  3.920689  0.005
C  C76  1  0.25052857  0.69071777  0.57417127  1  -0.034265  0.002467  -0.015148  -0.05687  0.001358  4.004432  0.001
C  C77  1  0.74947045  0.30928279  0.42582763  1  -0.034567  0.002467  -0.015141  -0.056884  0.001358  4.004429  0.001
C  C78  1  0.38488975  0.75963135  0.62257123  1  -0.035502  0.006056  -0.07605  -0.17283  0.00433  3.928038  0.004
C  C79  1  0.61510802  0.24036830  0.37742935  1  -0.035475  0.006058  -0.076039  -0.172773  0.004331  3.927974  0.004
C  C80  1  0.20751321  0.60991728  0.46573487  1  1.625176  0.006782  0.216486  0.573178  0.0064  4.205759  0.006
C  C81  1  0.79248483  0.39008329  0.53426525  1  1.625215  0.006783  0.216514  0.573182  0.006401  4.20573  0.006
C  C82  1  0.74017739  0.16579687  0.86464223  1  -0.039889  0.005561  -0.082059  -0.18985  0.004053  3.953393  0.003
C  C83  1  0.25982458  0.83420369  0.13535789  1  -0.039885  0.005561  -0.082054  -0.189879  0.004053  3.953481  0.003
C  C84  1  0.79362776  0.28794747  0.92641425  1  -0.005278  0.002377  -0.013223  -0.052509  0.001378  3.998151  0.001
C  C85  1  0.20637546  0.71205400  0.07358558  1  -0.00519  0.002377  -0.013222  -0.052449  0.001378  3.99821  0.001
C  C86  1  0.86549085  0.31674951  0.03722494  1  1.588068  0.008103  0.217758  0.585398  0.007646  4.187105  0.007
C  C87  1  0.13451112  0.68325105  0.96277518  1  1.587983  0.008106  0.217689  0.585283  0.007649  4.187229  0.007
C  C88  1  0.78360778  0.38163578  0.88338732  1  0.481053  0.007191  0.043837  0.05216  0.005892  3.925777  0.005
C  C89  1  0.21639196  0.61836387  0.11661151  1  0.480993  0.007191  0.043822  0.052103  0.005893  3.925794  0.005
C  C90  1  0.40563678  0.45592446  0.73125884  1  0.555518  0.014815  0.049005  -0.017785  0.01227  3.920408  0.01
C  C91  1  0.59436296  0.54407518  0.26873999  1  0.555495  0.014818  0.049027  -0.01775  0.012273  3.920415  0.01
N  N92  1  0.07848239  0.98709043  0.84117861  1  -1.276349  0.05225  -0.320976  -0.224957  0.033367  3.580999  0.013
N  N93  1  0.92151637  0.01290921  0.15882214  1  -1.276395  0.052263  -0.320979  -0.224905  0.033367  3.581049  0.013
N  N94  1  0.48355821  0.45977764  0.67005676  1  -1.250097  0.049163  -0.319586  -0.220866  0.032313  3.563615  0.012
N  N95  1  0.51644082  0.54022293  0.32994354  1  -1.250142  0.049172  -0.319637  -0.220911  0.032313  3.563643  0.012
N  N96  1  0.18821496  0.77235235  0.72336525  1  -1.255739  0.050398  -0.310151  -0.228812  0.035577  3.527818  0.019
N  N97  1  0.81178353  0.22764638  0.27663317  1  -1.255733  0.050402  -0.310163  -0.228741  0.035576  3.527714  0.019
N  N98  1  0.72405219  0.35793572  0.78350176  1  -1.272698  0.049031  -0.309379  -0.234487  0.034662  3.513887  0.02
N  N99  1  0.27594853  0.64206392  0.21649794  1  -1.272668  0.049028  -0.309386  -0.234521  0.034662  3.513847  0.02
O  O100  1  0.05033950  0.21447573  0.71654132  1  -1.076356  6.9e-05  -0.184359  -0.226908  -0.000246  2.541257  0.0
O  O101  1  0.94966319  0.78552390  0.28345873  1  -1.076248  6.9e-05  -0.184354  -0.226914  -0.000247  2.541319  0.0
O  O102  1  0.20095506  0.40956163  0.76672628  1  -1.075926  7.4e-05  -0.179831  -0.215897  -0.000338  2.544995  0.0
O  O103  1  0.79904494  0.59043893  0.23327350  1  -1.075912  7.4e-05  -0.179836  -0.215898  -0.000338  2.544869  0.0
O  O104  1  0.25679949  0.36238270  0.11904080  1  -1.19743  0.072965  -0.30651  -0.547895  0.050906  2.243886  0.036
O  O105  1  0.74320319  0.63761694  0.88096065  1  -1.197421  0.072975  -0.306548  -0.547904  0.050906  2.243668  0.036
O  O106  1  0.14636518  0.18888769  0.13868700  1  -1.202198  0.055767  -0.308981  -0.570289  0.038557  2.344212  0.021
O  O107  1  0.85363527  0.81111103  0.86131316  1  -1.202195  0.055761  -0.308931  -0.570149  0.038552  2.344341  0.021
O  O108  1  0.54930505  0.90317658  0.78136605  1  -1.063468  0.000422  -0.182895  -0.22372  0.000119  2.514154  0.0
O  O109  1  0.45069371  0.09682306  0.21863400  1  -1.063495  0.000422  -0.18291  -0.223703  0.000119  2.514095  0.0
O  O110  1  0.29742538  0.60896978  0.42006172  1  -1.214518  0.052401  -0.305484  -0.562098  0.037902  2.348475  0.026
O  O111  1  0.70257266  0.39103079  0.57993840  1  -1.214566  0.052406  -0.30551  -0.562129  0.037903  2.348472  0.026
O  O112  1  0.08330520  0.54888452  0.42674351  1  -1.181552  0.005533  -0.306759  -0.534596  0.002917  2.242932  0.004
O  O113  1  0.91669382  0.45111604  0.57325609  1  -1.181535  0.005534  -0.30676  -0.534579  0.002918  2.242923  0.004
O  O114  1  0.30833961  0.34916430  0.36321485  1  -1.205321  0.056833  -0.312107  -0.567904  0.039805  2.331245  0.023
O  O115  1  0.69165915  0.65083534  0.63678451  1  -1.204724  0.056825  -0.312088  -0.56789  0.039803  2.331198  0.023
O  O116  1  0.11048488  0.23941563  0.36872118  1  -1.195005  0.067991  -0.308797  -0.555752  0.04845  2.265148  0.034
O  O117  1  0.88951440  0.76058586  0.63127866  1  -1.195374  0.067976  -0.308786  -0.555741  0.048445  2.265007  0.034
O  O118  1  0.93010617  0.58356298  0.74856622  1  -1.334434  0.111717  -0.559876  -0.77661  0.083737  2.320909  0.053
O  O119  1  0.06989357  0.41643666  0.25143331  1  -1.334397  0.111702  -0.559858  -0.776664  0.08373  2.320886  0.053
O  O120  1  0.92413848  0.42877740  0.08809784  1  -1.181398  0.006841  -0.308691  -0.537174  0.003899  2.226869  0.005
O  O121  1  0.07586206  0.57122500  0.91190381  1  -1.181379  0.006843  -0.308636  -0.537119  0.003901  2.22691  0.005
O  O122  1  0.86546861  0.22577398  0.07111814  1  -1.200085  0.059839  -0.314558  -0.564061  0.042575  2.301511  0.029
O  O123  1  0.13453265  0.77422750  0.92888275  1  -1.200114  0.059855  -0.314541  -0.564016  0.042581  2.301596  0.029
O  O124  1  0.63448589  0.02493031  0.69125567  1  -1.068184  0.000151  -0.185792  -0.23002  -3e-06  2.500633  0.0
O  O125  1  0.36551581  0.97506933  0.30874491  1  -1.068202  0.000151  -0.185717  -0.229895  -3e-06  2.500495  0.0
