# generated using pymatgen
data_VH4C8O5
_symmetry_space_group_name_H-M   'P 1'
_cell_length_a   6.78553719
_cell_length_b   13.74445155
_cell_length_c   16.32778599
_cell_angle_alpha   89.99993998
_cell_angle_beta   89.99967792
_cell_angle_gamma   90.00009058
_symmetry_Int_Tables_number   1
_chemical_formula_structural   VH4C8O5
_chemical_formula_sum   'V4 H16 C32 O20'
_cell_volume   1522.78625956
_cell_formula_units_Z   4
loop_
 _symmetry_equiv_pos_site_id
 _symmetry_equiv_pos_as_xyz
  1  'x, y, z'
loop_
 _atom_site_type_symbol
 _atom_site_label
 _atom_site_symmetry_multiplicity
 _atom_site_fract_x
 _atom_site_fract_y
 _atom_site_fract_z
 _atom_site_occupancy
 _atom_site_pbe_bader_charge
 _atom_site_pbe_bader_spin_density
 _atom_site_pbe_cm5_charge
 _atom_site_pbe_ddec_charge
 _atom_site_pbe_ddec_spin_density
 _atom_site_pbe_ddec_sum_bond_order
 _atom_site_pbe_magmom
V  V0  1  0.82239246  0.23357568  0.75000019  1  2.094684  -0.769982  1.414809  1.831787  -0.813966  3.007505  -0.782
V  V1  1  0.67777068  0.73364426  0.24999174  1  2.094637  0.768355  1.415114  1.831687  0.812343  3.009097  0.781
V  V2  1  0.17774286  0.76635671  0.24999231  1  2.094838  -0.768381  1.414974  1.831855  -0.812384  3.008291  -0.781
V  V3  1  0.32243538  0.26642782  0.75000443  1  2.09454  0.770315  1.414741  1.831419  0.814287  3.0078  0.782
H  H4  1  0.21170661  0.09890095  0.54402570  1  0.114126  -4.8e-05  0.112811  0.120517  -0.000134  0.988731  0.0
H  H5  1  0.28818761  0.59936460  0.45605142  1  0.123083  4.6e-05  0.112822  0.120631  0.000133  0.988461  0.0
H  H6  1  0.78806600  0.90051585  0.04385642  1  0.122369  -4.5e-05  0.11276  0.12048  -0.000132  0.988756  0.0
H  H7  1  0.71162366  0.40123763  0.95587690  1  0.114406  4.9e-05  0.11278  0.120658  0.000135  0.98868  0.0
H  H8  1  0.78805584  0.90051342  0.45613951  1  0.122374  -4.5e-05  0.112769  0.120467  -0.000132  0.988778  0.0
H  H9  1  0.71163233  0.40123060  0.54412420  1  0.114361  4.9e-05  0.112749  0.12061  0.000135  0.988828  0.0
H  H10  1  0.21169204  0.09888833  0.95597194  1  0.113925  -4.8e-05  0.112814  0.120498  -0.000134  0.988742  0.0
H  H11  1  0.28819777  0.59935612  0.04395820  1  0.123231  4.6e-05  0.112811  0.12058  0.000133  0.988399  0.0
H  H12  1  0.81833682  0.01547979  0.57486571  1  0.074318  0.00013  0.111662  0.11836  0.000202  0.990289  0.0
H  H13  1  0.68147477  0.51616293  0.42535670  1  0.073209  -0.000131  0.111654  0.118503  -0.000202  0.990099  0.0
H  H14  1  0.18154001  0.98394498  0.07473391  1  0.072424  0.000131  0.111618  0.118306  0.000202  0.990249  0.0
H  H15  1  0.31846955  0.48440514  0.92520813  1  0.073519  -0.00013  0.111665  0.118374  -0.000202  0.990269  0.0
H  H16  1  0.18154206  0.98395931  0.42526521  1  0.072437  0.000131  0.111597  0.118194  0.000202  0.990308  0.0
H  H17  1  0.31846307  0.48441554  0.57480055  1  0.072945  -0.00013  0.111719  0.118387  -0.000202  0.990211  0.0
H  H18  1  0.81833445  0.01547885  0.92512814  1  0.074746  0.00013  0.111665  0.118358  0.000201  0.990191  0.0
H  H19  1  0.68146535  0.51617333  0.07464350  1  0.073029  -0.000131  0.111615  0.118455  -0.000202  0.990197  0.0
C  C20  1  0.53303099  0.13205613  0.63626562  1  1.501338  -5.7e-05  0.234518  0.626253  5.9e-05  4.104958  0.0
C  C21  1  0.96705456  0.63226012  0.36376315  1  1.533192  -9e-06  0.234856  0.627046  -0.000122  4.105062  0.0
C  C22  1  0.46710881  0.86774980  0.13624533  1  1.532668  -3e-06  0.234857  0.627106  0.000114  4.105093  0.0
C  C23  1  0.03306743  0.36795297  0.86371824  1  1.502762  -1.7e-05  0.234324  0.626109  -0.000133  4.105334  0.0
C  C24  1  0.46709843  0.86775112  0.36374954  1  1.532211  -1.3e-05  0.234632  0.62667  0.000101  4.105083  0.0
C  C25  1  0.03307339  0.36795239  0.63628386  1  1.502633  -2e-05  0.234437  0.626188  -0.000136  4.105187  0.0
C  C26  1  0.53303092  0.13205235  0.86373675  1  1.501825  -5.7e-05  0.234497  0.626437  5.7e-05  4.105017  0.0
C  C27  1  0.96704431  0.63225589  0.13623506  1  1.533143  -1.1e-05  0.234846  0.627107  -0.000124  4.104863  0.0
C  C28  1  0.51673569  0.06379739  0.56613552  1  -0.037929  -0.000187  -0.009466  -0.027777  -0.000201  3.959694  0.0
C  C29  1  0.98326127  0.56421877  0.43399926  1  -0.051421  0.000165  -0.009257  -0.027132  0.000179  3.961185  0.0
C  C30  1  0.48321052  0.93577726  0.06599755  1  -0.05163  -0.000187  -0.009356  -0.027464  -0.000199  3.962004  0.0
C  C31  1  0.01670209  0.43620887  0.93385634  1  -0.036464  0.00018  -0.009595  -0.027969  0.000194  3.959722  0.0
C  C32  1  0.48319772  0.93577922  0.43399539  1  -0.051575  -0.000187  -0.009515  -0.027494  -0.0002  3.961536  0.0
C  C33  1  0.01670310  0.43621055  0.56614696  1  -0.037112  0.00018  -0.009538  -0.027915  0.000195  3.959739  0.0
C  C34  1  0.51672142  0.06379135  0.93386266  1  -0.037563  -0.000185  -0.009549  -0.028003  -0.0002  3.959791  0.0
C  C35  1  0.98325491  0.56421899  0.06599958  1  -0.051647  0.000166  -0.009321  -0.027397  0.00018  3.961319  0.0
C  C36  1  0.33658653  0.05492658  0.52432174  1  -0.054888  -0.00035  -0.077889  -0.091802  -0.00031  3.960465  0.0
C  C37  1  0.16332580  0.55538857  0.47581912  1  -0.086105  0.000334  -0.077786  -0.091973  0.000297  3.961059  0.0
C  C38  1  0.66326740  0.94454844  0.02414230  1  -0.083604  -0.000338  -0.077825  -0.091949  -0.0003  3.960748  0.0
C  C39  1  0.83656478  0.44515907  0.97561180  1  -0.056897  0.000333  -0.078035  -0.091905  0.000295  3.961609  0.0
C  C40  1  0.66325993  0.94454526  0.47585388  1  -0.083352  -0.00034  -0.077841  -0.092002  -0.000302  3.960846  0.0
C  C41  1  0.83655162  0.44515571  0.52438774  1  -0.056569  0.000331  -0.078035  -0.091816  0.000293  3.961175  0.0
C  C42  1  0.33657464  0.05491685  0.97567503  1  -0.05466  -0.00035  -0.077882  -0.091553  -0.000311  3.960204  0.0
C  C43  1  0.16332443  0.55538084  0.02419022  1  -0.086111  0.000334  -0.077719  -0.091784  0.000297  3.961122  0.0
C  C44  1  0.68002661  0.00830193  0.54150373  1  0.044843  0.00027  -0.078116  -0.092899  0.00023  3.966281  0.0
C  C45  1  0.81977744  0.50890587  0.45872665  1  0.050944  -0.000277  -0.078249  -0.093873  -0.000234  3.966138  0.0
C  C46  1  0.31981530  0.99113888  0.04131954  1  0.050776  0.000274  -0.078292  -0.093563  0.000231  3.96684  0.0
C  C47  1  0.18011190  0.49161705  0.95855084  1  0.046185  -0.000289  -0.078265  -0.093108  -0.000247  3.965466  0.0
C  C48  1  0.31981248  0.99114881  0.45868292  1  0.05072  0.000271  -0.078226  -0.09325  0.00023  3.966634  0.0
C  C49  1  0.18010735  0.49162021  0.54145755  1  0.047218  -0.00029  -0.078351  -0.093153  -0.000248  3.965667  0.0
C  C50  1  0.68001938  0.00830532  0.95848861  1  0.044424  0.000271  -0.078112  -0.092862  0.000231  3.965888  0.0
C  C51  1  0.81976405  0.50890176  0.04127140  1  0.051185  -0.000278  -0.078161  -0.093634  -0.000235  3.966132  0.0
O  O52  1  0.70473589  0.14883633  0.66533365  1  -1.141485  0.001462  -0.349147  -0.600475  0.003257  2.359803  0.015
O  O53  1  0.79541342  0.64904328  0.33469204  1  -1.14228  -0.001463  -0.34926  -0.600852  -0.003283  2.362196  -0.015
O  O54  1  0.29540351  0.85095938  0.16528928  1  -1.14198  0.001485  -0.349337  -0.601027  0.003303  2.36141  0.015
O  O55  1  0.20473696  0.35116476  0.83468166  1  -1.14185  -0.001472  -0.348941  -0.600225  -0.003253  2.3611  -0.015
O  O56  1  0.29538469  0.85096873  0.33470417  1  -1.141661  0.001484  -0.349036  -0.600687  0.003297  2.360968  0.015
O  O57  1  0.20473369  0.35116559  0.66532557  1  -1.141748  -0.001475  -0.349033  -0.600271  -0.003253  2.360957  -0.015
O  O58  1  0.70473917  0.14884569  0.83466892  1  -1.141501  0.001461  -0.349201  -0.600633  0.003254  2.359968  0.015
O  O59  1  0.79542341  0.64904774  0.16530839  1  -1.142238  -0.001471  -0.349274  -0.600842  -0.003292  2.36255  -0.015
O  O60  1  0.55044876  0.30641147  0.74999986  1  -0.844316  -0.064338  -0.609716  -0.774028  -0.059647  1.802625  -0.06
O  O61  1  0.94966601  0.80651236  0.25000180  1  -0.843989  0.064224  -0.609599  -0.774587  0.059551  1.799703  0.06
O  O62  1  0.44971161  0.69348454  0.24999692  1  -0.843879  -0.064243  -0.609451  -0.77445  -0.05957  1.799594  -0.06
O  O63  1  0.05043246  0.19357937  0.75000233  1  -0.844053  0.064339  -0.609618  -0.774041  0.059641  1.801399  0.06
O  O64  1  0.37277865  0.16971310  0.66268211  1  -1.126146  -0.002616  -0.34677  -0.580639  -0.004059  2.36763  -0.017
O  O65  1  0.12745622  0.66973814  0.33727920  1  -1.126056  0.002629  -0.347252  -0.580979  0.004067  2.36737  0.017
O  O66  1  0.62743890  0.83024777  0.16272089  1  -1.125971  -0.002602  -0.347219  -0.580818  -0.004038  2.368245  -0.017
O  O67  1  0.87276781  0.33028654  0.83731137  1  -1.126879  0.002614  -0.346788  -0.580821  0.00406  2.366892  0.017
O  O68  1  0.62743772  0.83024766  0.33728406  1  -1.125972  -0.002614  -0.347171  -0.580677  -0.004049  2.368127  -0.017
O  O69  1  0.87277341  0.33028592  0.66268757  1  -1.126858  0.002604  -0.346825  -0.580865  0.00405  2.366935  0.017
O  O70  1  0.37277747  0.16970063  0.83731938  1  -1.126963  -0.002615  -0.346734  -0.580713  -0.004062  2.367601  -0.017
O  O71  1  0.12745003  0.66974116  0.16272400  1  -1.125924  0.002633  -0.347364  -0.581136  0.004065  2.367235  0.017
