# generated using pymatgen
data_TbH20C30N3O10
_symmetry_space_group_name_H-M   'P 1'
_cell_length_a   9.83319344
_cell_length_b   11.99164859
_cell_length_c   25.25914998
_cell_angle_alpha   89.99993483
_cell_angle_beta   90.00006164
_cell_angle_gamma   93.04807627
_symmetry_Int_Tables_number   1
_chemical_formula_structural   TbH20C30N3O10
_chemical_formula_sum   'Tb4 H80 C120 N12 O40'
_cell_volume   2974.24926410
_cell_formula_units_Z   4
loop_
 _symmetry_equiv_pos_site_id
 _symmetry_equiv_pos_as_xyz
  1  'x, y, z'
loop_
 _atom_site_type_symbol
 _atom_site_label
 _atom_site_symmetry_multiplicity
 _atom_site_fract_x
 _atom_site_fract_y
 _atom_site_fract_z
 _atom_site_occupancy
 _atom_site_pbe_bader_charge
 _atom_site_pbe_bader_spin_density
 _atom_site_pbe_cm5_charge
 _atom_site_pbe_ddec_charge
 _atom_site_pbe_ddec_spin_density
 _atom_site_pbe_ddec_sum_bond_order
 _atom_site_pbe_magmom
Tb  Tb0  1  0.60379201  0.45806707  0.92642627  1  2.224569  0  1.503799  2.155184  0  2.109056  0
Tb  Tb1  1  0.89620509  0.54194031  0.42642690  1  2.224579  0  1.503801  2.155248  0  2.108947  0
Tb  Tb2  1  0.39620611  0.54194245  0.07357248  1  2.224541  0  1.503804  2.155295  0  2.108859  0
Tb  Tb3  1  0.10379384  0.45806587  0.57357423  1  2.224602  0  1.503822  2.155295  0  2.108899  0
H  H4  1  0.32608129  0.77419162  0.01711089  1  0.54362  0  0.31878  0.289236  0  0.985966  0
H  H5  1  0.17392516  0.22580932  0.51711754  1  0.543608  0  0.318724  0.289193  0  0.986083  0
H  H6  1  0.67392449  0.22581040  0.98288312  1  0.543579  0  0.318753  0.289219  0  0.986028  0
H  H7  1  0.82608137  0.77418851  0.48288874  1  0.543583  0  0.318773  0.289239  0  0.985996  0
H  H8  1  0.25043440  0.37343867  0.86136663  1  0.543512  0  0.314233  0.281063  0  0.995133  0
H  H9  1  0.24955925  0.62655396  0.36136240  1  0.542931  0  0.314188  0.281157  0  0.994902  0
H  H10  1  0.74955912  0.62656250  0.13863609  1  0.543451  0  0.314275  0.281242  0  0.994896  0
H  H11  1  0.75043679  0.37343886  0.63863358  1  0.5435  0  0.31422  0.28105  0  0.995122  0
H  H12  1  0.61267181  0.61611868  0.77407470  1  0.506715  0  0.331657  0.291295  0  0.915385  0
H  H13  1  0.88732827  0.38387820  0.27407304  1  0.507019  0  0.331601  0.291191  0  0.915481  0
H  H14  1  0.38732440  0.38387664  0.22592722  1  0.507008  0  0.33161  0.291228  0  0.915455  0
H  H15  1  0.11267237  0.61612298  0.72592650  1  0.507035  0  0.33159  0.291211  0  0.915509  0
H  H16  1  0.58446726  0.86680867  0.89105006  1  0.123726  0  0.113252  0.148894  0  0.984787  0
H  H17  1  0.91554216  0.13320214  0.39105449  1  0.123964  0  0.11324  0.148759  0  0.984758  0
H  H18  1  0.41554108  0.13320169  0.10894631  1  0.123937  0  0.113266  0.148819  0  0.984773  0
H  H19  1  0.08446699  0.86680488  0.60894902  1  0.123851  0  0.113271  0.14889  0  0.984806  0
H  H20  1  0.32493830  0.19224489  0.93215134  1  0.104614  0  0.105436  0.107101  0  1.030575  0
H  H21  1  0.17505719  0.80775760  0.43215332  1  0.104707  0  0.105419  0.107057  0  1.030531  0
H  H22  1  0.67505512  0.80775461  0.06784781  1  0.104635  0  0.105448  0.107145  0  1.030569  0
H  H23  1  0.82493821  0.19224106  0.56784940  1  0.104594  0  0.105437  0.107092  0  1.030611  0
H  H24  1  0.14773734  0.22672876  0.99932972  1  0.067336  0  0.095773  0.093267  0  1.048274  0
H  H25  1  0.35226105  0.77326856  0.49933021  1  0.067299  0  0.095777  0.093279  0  1.048241  0
H  H26  1  0.85225795  0.77326823  0.00066983  1  0.067155  0  0.095782  0.093233  0  1.048264  0
H  H27  1  0.64773531  0.22672927  0.50067052  1  0.067314  0  0.095776  0.093215  0  1.048328  0
H  H28  1  0.07368663  0.07686113  0.06313118  1  0.091089  0  0.101815  0.097249  0  1.011278  0
H  H29  1  0.42631533  0.92313135  0.56313320  1  0.091036  0  0.101789  0.097202  0  1.011275  0
H  H30  1  0.92631551  0.92313169  0.93686797  1  0.091046  0  0.101821  0.097282  0  1.011243  0
H  H31  1  0.57368563  0.07685897  0.43686872  1  0.091094  0  0.101793  0.097209  0  1.01135  0
H  H32  1  0.17688553  0.89290344  0.05962611  1  0.10584  0  0.106253  0.117426  0  1.032492  0
H  H33  1  0.32311846  0.10708905  0.55962932  1  0.10573  0  0.106236  0.117423  0  1.032521  0
H  H34  1  0.82312079  0.10709106  0.94037145  1  0.105733  0  0.106233  0.117432  0  1.0325  0
H  H35  1  0.67688459  0.89290210  0.44037339  1  0.105811  0  0.106231  0.117415  0  1.032576  0
H  H36  1  0.99054641  0.41320949  0.99057421  1  0.123843  0  0.11511  0.145236  0  1.015882  0
H  H37  1  0.50944673  0.58679691  0.49057267  1  0.124226  0  0.115055  0.145188  0  1.015979  0
H  H38  1  0.00944464  0.58680086  0.00942613  1  0.124284  0  0.115048  0.145206  0  1.015995  0
H  H39  1  0.49054711  0.41320927  0.50942608  1  0.123852  0  0.115127  0.14529  0  1.01584  0
H  H40  1  0.72562434  0.19969934  0.86006150  1  0.136756  0  0.109783  0.116684  0  1.041831  0
H  H41  1  0.77437189  0.80029734  0.36005996  1  0.13685  0  0.109791  0.116766  0  1.041861  0
H  H42  1  0.27437031  0.80030350  0.13993804  1  0.13683  0  0.109801  0.116739  0  1.04188  0
H  H43  1  0.22562447  0.19970049  0.63993800  1  0.136751  0  0.109796  0.11669  0  1.041833  0
H  H44  1  0.78140652  0.12141426  0.77203799  1  0.065289  0  0.104423  0.102903  0  0.996635  0
H  H45  1  0.71858690  0.87859014  0.27203678  1  0.065299  0  0.104413  0.102894  0  0.996634  0
H  H46  1  0.21859123  0.87858942  0.22796275  1  0.065283  0  0.104411  0.102883  0  0.996635  0
H  H47  1  0.28140693  0.12141604  0.72796158  1  0.065299  0  0.104437  0.10293  0  0.996616  0
H  H48  1  0.01174615  0.16012418  0.73278550  1  0.093686  0  0.107987  0.110584  0  0.985506  0
H  H49  1  0.48824506  0.83988376  0.23278443  1  0.093614  0  0.107961  0.110523  0  0.985463  0
H  H50  1  0.98825154  0.83987866  0.26721681  1  0.093585  0  0.108018  0.110611  0  0.985503  0
H  H51  1  0.51174685  0.16012408  0.76721472  1  0.093687  0  0.107977  0.110568  0  0.985468  0
H  H52  1  0.28274741  0.42457710  0.71679762  1  0.141192  0  0.116222  0.149045  0  1.006117  0
H  H53  1  0.21725019  0.57542004  0.21679539  1  0.141256  0  0.116233  0.149096  0  1.006195  0
H  H54  1  0.71725189  0.57541907  0.28320390  1  0.14129  0  0.116251  0.149148  0  1.006105  0
H  H55  1  0.78274729  0.42457946  0.78320297  1  0.141247  0  0.116238  0.149109  0  1.006108  0
H  H56  1  0.42954892  0.65998074  0.57135049  1  0.109208  0  0.113943  0.118065  0  1.018804  0
H  H57  1  0.07045478  0.34000671  0.07135070  1  0.109211  0  0.113926  0.118137  0  1.018664  0
H  H58  1  0.57044508  0.34001207  0.42865143  1  0.109201  0  0.11392  0.118083  0  1.018804  0
H  H59  1  0.92954999  0.65997944  0.92865161  1  0.109159  0  0.11391  0.118067  0  1.018778  0
H  H60  1  0.18973420  0.27157590  0.78334620  1  0.110425  0  0.105746  0.122916  0  1.047253  0
H  H61  1  0.31025731  0.72841857  0.28334115  1  0.110309  0  0.105729  0.122906  0  1.047203  0
H  H62  1  0.81026018  0.72842276  0.21665651  1  0.11038  0  0.10577  0.122965  0  1.047158  0
H  H63  1  0.68973482  0.27157675  0.71665404  1  0.110405  0  0.105733  0.122907  0  1.047278  0
H  H64  1  0.62065342  0.80541691  0.55898824  1  0.080828  0  0.101244  0.100362  0  1.028036  0
H  H65  1  0.87935440  0.19456710  0.05898866  1  0.080919  0  0.101218  0.100408  0  1.027957  0
H  H66  1  0.37934263  0.19457590  0.44101249  1  0.080816  0  0.101232  0.10039  0  1.027973  0
H  H67  1  0.12065321  0.80541570  0.94101247  1  0.080253  0  0.101214  0.100338  0  1.028028  0
H  H68  1  0.77598456  0.85430758  0.63433284  1  0.087827  0  0.102078  0.100419  0  1.023592  0
H  H69  1  0.72401975  0.14568211  0.13433361  1  0.090361  0  0.102086  0.100446  0  1.023581  0
H  H70  1  0.22401244  0.14568440  0.36566710  1  0.090393  0  0.102133  0.100506  0  1.023494  0
H  H71  1  0.27598137  0.85431072  0.86566870  1  0.090418  0  0.102085  0.100446  0  1.023579  0
H  H72  1  0.74521841  0.75951951  0.72111962  1  0.08566  0  0.109886  0.12052  0  0.984101  0
H  H73  1  0.75478351  0.24047665  0.22111838  1  0.086074  0  0.109877  0.120493  0  0.984199  0
H  H74  1  0.25478288  0.24047582  0.27888111  1  0.08616  0  0.109862  0.120487  0  0.984221  0
H  H75  1  0.24521601  0.75952285  0.77888235  1  0.086103  0  0.109884  0.120512  0  0.984135  0
H  H76  1  0.51246929  0.20711261  0.88883400  1  0.63078  0  0.289937  0.402801  0  0.936242  0
H  H77  1  0.98753279  0.79289487  0.38883414  1  0.630685  0  0.289906  0.402773  0  0.936286  0
H  H78  1  0.48753376  0.79289441  0.11116634  1  0.630688  0  0.289928  0.402778  0  0.936285  0
H  H79  1  0.01246709  0.20711048  0.61116580  1  0.630739  0  0.289904  0.402764  0  0.936291  0
H  H80  1  0.45705349  0.31048376  0.85558739  1  0.640402  0  0.29187  0.376195  0  0.974053  0
H  H81  1  0.04294709  0.68952224  0.35558661  1  0.640438  0  0.291904  0.376278  0  0.973933  0
H  H82  1  0.54294746  0.68952242  0.14441294  1  0.640435  0  0.291876  0.376234  0  0.973999  0
H  H83  1  0.95705376  0.31048227  0.64441373  1  0.640427  0  0.291867  0.376185  0  0.974082  0
C  C84  1  0.50612324  0.69421681  0.95862521  1  1.637077  0  0.231246  0.609858  0  4.193798  0
C  C85  1  0.99388116  0.30579217  0.45862997  1  1.636854  0  0.231294  0.609908  0  4.193942  0
C  C86  1  0.49388205  0.30579355  0.04137117  1  1.636772  0  0.231318  0.609991  0  4.193616  0
C  C87  1  0.00612488  0.69421401  0.54137393  1  1.637153  0  0.231272  0.60991  0  4.193643  0
C  C88  1  0.45865205  0.81156231  0.95544177  1  0.429381  0  0.122077  0.135453  0  3.968224  0
C  C89  1  0.04135291  0.18844430  0.45544798  1  0.429526  0  0.122082  0.135444  0  3.968119  0
C  C90  1  0.54135399  0.18844387  0.04455303  1  0.429506  0  0.122075  0.135447  0  3.967923  0
C  C91  1  0.95865190  0.81155855  0.54455789  1  0.429342  0  0.122014  0.135347  0  3.968153  0
C  C92  1  0.50647732  0.88951587  0.91900189  1  0.003513  0  -0.107454  -0.305255  0  3.943497  0
C  C93  1  0.99353415  0.11049405  0.41900557  1  0.003035  0  -0.107398  -0.304934  0  3.943278  0
C  C94  1  0.49353402  0.11049366  0.08099528  1  0.003056  0  -0.107434  -0.305057  0  3.943317  0
C  C95  1  0.00647698  0.88951215  0.58099793  1  0.003384  0  -0.107386  -0.305126  0  3.943585  0
C  C96  1  0.45846181  0.00038181  0.91816124  1  0.796561  0  0.113257  0.361059  0  4.139493  0
C  C97  1  0.04153797  0.99962488  0.41816504  1  0.796484  0  0.113195  0.360966  0  4.139422  0
C  C98  1  0.54153920  0.99962521  0.08183593  1  0.796636  0  0.113229  0.360986  0  4.139289  0
C  C99  1  0.95846277  0.00037796  0.58183886  1  0.796577  0  0.113182  0.361029  0  4.139582  0
C  C100  1  0.35141397  0.02276543  0.95672268  1  -0.014918  0  -0.022513  -0.104513  0  3.963783  0
C  C101  1  0.14858860  0.97723533  0.45672495  1  -0.014463  0  -0.022379  -0.10444  0  3.963782  0
C  C102  1  0.64858779  0.97723741  0.04327528  1  -0.015178  0  -0.022477  -0.104492  0  3.963703  0
C  C103  1  0.85141280  0.02276167  0.54327776  1  -0.014885  0  -0.022487  -0.104532  0  3.963712  0
C  C104  1  0.29071568  0.12657836  0.95960160  1  -0.07455  0  -0.085712  -0.086243  0  3.963644  0
C  C105  1  0.20928288  0.87342323  0.45960435  1  -0.074599  0  -0.085686  -0.086236  0  3.963739  0
C  C106  1  0.70927988  0.87342280  0.04039874  1  -0.074592  0  -0.085727  -0.086413  0  3.963624  0
C  C107  1  0.79071669  0.12657711  0.54039916  1  -0.074481  0  -0.085709  -0.086255  0  3.963602  0
C  C108  1  0.19221886  0.14569910  0.99722319  1  -0.014903  0  -0.094721  -0.090813  0  3.996831  0
C  C109  1  0.30777953  0.85429823  0.49722361  1  -0.014944  0  -0.094716  -0.09073  0  3.996796  0
C  C110  1  0.80777745  0.85429790  0.00277715  1  -0.014745  0  -0.094657  -0.090448  0  3.996529  0
C  C111  1  0.69221790  0.14570043  0.50277672  1  -0.01491  0  -0.094703  -0.090675  0  3.996743  0
C  C112  1  0.15044321  0.06117635  0.03330676  1  -0.074372  0  -0.081705  -0.049145  0  4.009819  0
C  C113  1  0.34955798  0.93882121  0.53330834  1  -0.074397  0  -0.081705  -0.049205  0  4.009808  0
C  C114  1  0.84955813  0.93881982  0.96669279  1  -0.074292  0  -0.081778  -0.04945  0  4.009954  0
C  C115  1  0.65044251  0.06117746  0.46669358  1  -0.074314  0  -0.081688  -0.049151  0  4.00994  0
C  C116  1  0.20679500  0.95831041  0.03145255  1  -0.018883  0  -0.090475  -0.174478  0  3.954018  0
C  C117  1  0.29320506  0.04168548  0.53145618  1  -0.0188  0  -0.090425  -0.174441  0  3.953973  0
C  C118  1  0.79320633  0.04168575  0.96854462  1  -0.018837  0  -0.090494  -0.174478  0  3.954043  0
C  C119  1  0.70679120  0.95831068  0.46854693  1  -0.018886  0  -0.090464  -0.174468  0  3.95406  0
C  C120  1  0.30735959  0.93838715  0.99325097  1  0.398607  0  0.112845  0.207415  0  4.015925  0
C  C121  1  0.19264719  0.06161437  0.49325257  1  0.398379  0  0.112786  0.207477  0  4.015749  0
C  C122  1  0.69264405  0.06161319  0.00674620  1  0.398912  0  0.112902  0.207479  0  4.015803  0
C  C123  1  0.80735838  0.93838430  0.50674856  1  0.398582  0  0.11286  0.207429  0  4.015847  0
C  C124  1  0.25921011  0.44781336  0.95525021  1  1.637134  0  0.23456  0.607509  0  4.185633  0
C  C125  1  0.24078843  0.55218824  0.45524919  1  1.63723  0  0.234781  0.607884  0  4.185104  0
C  C126  1  0.74078876  0.55219198  0.04474973  1  1.637177  0  0.23466  0.607627  0  4.185316  0
C  C127  1  0.75921226  0.44781377  0.54474956  1  1.637098  0  0.234583  0.607541  0  4.185624  0
C  C128  1  0.13401090  0.39415093  0.92797770  1  0.379393  0  0.125369  0.138146  0  3.932674  0
C  C129  1  0.36599255  0.60584907  0.42797552  1  0.379329  0  0.125282  0.137923  0  3.932899  0
C  C130  1  0.86599204  0.60585442  0.07202342  1  0.379142  0  0.125359  0.138124  0  3.932844  0
C  C131  1  0.63401210  0.39415127  0.57202284  1  0.379391  0  0.125408  0.138136  0  3.932593  0
C  C132  1  0.00693149  0.38002356  0.95120847  1  0.007704  0  -0.099765  -0.292548  0  3.908513  0
C  C133  1  0.49306688  0.61997554  0.45120475  1  0.007622  0  -0.099665  -0.29247  0  3.908719  0
C  C134  1  0.99306647  0.61998345  0.04879345  1  0.039791  0  -0.099671  -0.292516  0  3.908911  0
C  C135  1  0.50693365  0.38002396  0.54879123  1  0.007693  0  -0.099833  -0.292682  0  3.908421  0
C  C136  1  0.89575860  0.32641000  0.92351732  1  0.84475  0  0.124424  0.389892  0  4.104875  0
C  C137  1  0.60424417  0.67359071  0.42351499  1  0.845333  0  0.124347  0.389853  0  4.104892  0
C  C138  1  0.10424338  0.67359618  0.07648222  1  0.812772  0  0.124414  0.389885  0  4.10516  0
C  C139  1  0.39575953  0.32641046  0.57648218  1  0.844802  0  0.124421  0.389972  0  4.104788  0
C  C140  1  0.92610826  0.27712480  0.87249583  1  -0.032623  0  -0.015713  -0.097818  0  3.958099  0
C  C141  1  0.57389272  0.72286601  0.37249069  1  -0.031941  0  -0.015629  -0.09757  0  3.958084  0
C  C142  1  0.07388735  0.72287720  0.12750411  1  -0.032364  0  -0.015735  -0.097823  0  3.958134  0
C  C143  1  0.42611029  0.27712431  0.62750490  1  -0.032358  0  -0.015696  -0.097831  0  3.958135  0
C  C144  1  0.82703270  0.21349293  0.84326206  1  -0.064611  0  -0.07799  -0.088647  0  3.955187  0
C  C145  1  0.67296033  0.78650211  0.34325970  1  -0.065452  0  -0.078077  -0.088927  0  3.955458  0
C  C146  1  0.17296291  0.78650907  0.15673827  1  -0.064956  0  -0.078048  -0.088764  0  3.955205  0
C  C147  1  0.32703480  0.21349238  0.65673707  1  -0.064865  0  -0.078032  -0.088643  0  3.95523  0
C  C148  1  0.85837974  0.17086982  0.79414918  1  -0.077677  0  -0.088997  -0.091364  0  4.004566  0
C  C149  1  0.64161562  0.82913202  0.29414718  1  -0.077646  0  -0.088999  -0.091303  0  4.004412  0
C  C150  1  0.14161496  0.82913386  0.20585194  1  -0.077501  0  -0.08902  -0.091397  0  4.004377  0
C  C151  1  0.35837998  0.17086998  0.70585078  1  -0.077637  0  -0.088991  -0.091389  0  4.004543  0
C  C152  1  0.98905409  0.19217608  0.77208631  1  -0.039674  0  -0.07998  -0.046583  0  4.002867  0
C  C153  1  0.51093987  0.80782080  0.27208585  1  -0.039569  0  -0.079991  -0.046565  0  4.002715  0
C  C154  1  0.01094044  0.80782509  0.22791561  1  -0.039569  0  -0.080018  -0.046556  0  4.002822  0
C  C155  1  0.48905445  0.19217703  0.72791330  1  -0.039626  0  -0.079983  -0.046588  0  4.002915  0
C  C156  1  0.05806224  0.29573185  0.85035119  1  0.401133  0  0.116083  0.220729  0  3.982559  0
C  C157  1  0.44193920  0.70425580  0.35034661  1  0.401522  0  0.116001  0.220519  0  3.982762  0
C  C158  1  0.94193535  0.70426932  0.14964994  1  0.401122  0  0.116106  0.220766  0  3.982811  0
C  C159  1  0.55806562  0.29573118  0.64964898  1  0.400901  0  0.116101  0.220696  0  3.982617  0
C  C160  1  0.45327180  0.46421794  0.80246482  1  1.646058  0  0.225953  0.566408  0  4.214585  0
C  C161  1  0.04672528  0.53578317  0.30246293  1  1.645566  0  0.225978  0.566447  0  4.214441  0
C  C162  1  0.54672558  0.53577989  0.19753631  1  1.645669  0  0.225944  0.56641  0  4.214639  0
C  C163  1  0.95327740  0.46421800  0.69753621  1  1.645687  0  0.225989  0.566382  0  4.214588  0
C  C164  1  0.45066815  0.52116816  0.74921400  1  0.402329  0  0.117937  0.132108  0  3.995224  0
C  C165  1  0.04932745  0.47882807  0.24921175  1  0.403139  0  0.117816  0.131988  0  3.99518  0
C  C166  1  0.54932708  0.47882800  0.25078871  1  0.402948  0  0.117901  0.132138  0  3.995345  0
C  C167  1  0.95067105  0.52117143  0.75078700  1  0.402767  0  0.11782  0.132104  0  3.995243  0
C  C168  1  0.35932021  0.49160083  0.70974552  1  -0.040979  0  -0.105603  -0.315871  0  3.953893  0
C  C169  1  0.14068042  0.50839632  0.20974210  1  -0.041085  0  -0.105649  -0.316055  0  3.953925  0
C  C170  1  0.64067792  0.50839283  0.29025719  1  -0.041082  0  -0.105695  -0.316088  0  3.954105  0
C  C171  1  0.85932123  0.49160485  0.79025546  1  -0.040878  0  -0.105622  -0.316025  0  3.953829  0
C  C172  1  0.37046185  0.54355109  0.65899677  1  0.871358  0  0.133802  0.407268  0  4.097678  0
C  C173  1  0.12954385  0.45644785  0.15899338  1  0.871013  0  0.133794  0.407355  0  4.097832  0
C  C174  1  0.62953864  0.45644757  0.34100673  1  0.870451  0  0.133815  0.407248  0  4.097832  0
C  C175  1  0.87046102  0.54355583  0.84100379  1  0.870743  0  0.133817  0.407352  0  4.09767  0
C  C176  1  0.47995431  0.62933228  0.65228158  1  -0.025327  0  -0.015622  -0.090878  0  3.942273  0
C  C177  1  0.02004987  0.37065916  0.15228096  1  -0.025436  0  -0.015514  -0.09073  0  3.942197  0
C  C178  1  0.52004082  0.37066221  0.34772034  1  -0.024806  0  -0.015594  -0.090881  0  3.94213  0
C  C179  1  0.97995441  0.62933533  0.84772017  1  -0.025352  0  -0.015652  -0.090947  0  3.94228  0
C  C180  1  0.49987937  0.68378084  0.60328507  1  -0.000624  0  -0.0749  -0.077316  0  3.945668  0
C  C181  1  0.00012442  0.31620653  0.10328486  1  -0.000641  0  -0.074866  -0.077419  0  3.945677  0
C  C182  1  0.50011577  0.31621364  0.39671685  1  -0.000485  0  -0.074798  -0.0773  0  3.94567  0
C  C183  1  0.99988056  0.68378295  0.89671587  1  -0.000533  0  -0.074773  -0.077287  0  3.9456  0
C  C184  1  0.08836858  0.25387266  0.79965988  1  -0.006798  0  -0.096008  -0.19076  0  3.954801  0
C  C185  1  0.41162673  0.74611676  0.29965684  1  -0.007029  0  -0.095932  -0.190677  0  3.954683  0
C  C186  1  0.91162976  0.74612433  0.20034165  1  -0.006886  0  -0.095973  -0.190785  0  3.954805  0
C  C187  1  0.58837023  0.25387438  0.70034033  1  -0.006657  0  -0.096005  -0.19074  0  3.954897  0
C  C188  1  0.60512062  0.76374030  0.59697765  1  -0.041915  0  -0.089926  -0.089599  0  3.988965  0
C  C189  1  0.89488435  0.23624530  0.09697726  1  -0.04211  0  -0.089854  -0.089665  0  3.989125  0
C  C190  1  0.39487725  0.23624918  0.40302308  1  -0.04259  0  -0.089903  -0.089676  0  3.98894  0
C  C191  1  0.10512106  0.76375087  0.90301991  1  -0.041862  0  -0.089867  -0.089522  0  3.989045  0
C  C192  1  0.69304158  0.79151576  0.63968258  1  -0.091185  0  -0.078638  -0.039753  0  3.986885  0
C  C193  1  0.80696569  0.20847225  0.13968256  1  -0.093824  0  -0.078684  -0.039784  0  3.986975  0
C  C194  1  0.30695848  0.20847623  0.36031815  1  -0.093469  0  -0.078702  -0.039758  0  3.986831  0
C  C195  1  0.19303950  0.79152058  0.86031817  1  -0.093489  0  -0.078692  -0.039806  0  3.987014  0
C  C196  1  0.67648927  0.73896589  0.68819966  1  0.015128  0  -0.092396  -0.186281  0  3.976364  0
C  C197  1  0.82351133  0.26102701  0.18819963  1  0.014681  0  -0.092336  -0.186207  0  3.976426  0
C  C198  1  0.32350581  0.26102776  0.31180067  1  0.014624  0  -0.092376  -0.18632  0  3.976468  0
C  C199  1  0.17648808  0.73897082  0.81180111  1  0.014761  0  -0.092346  -0.186264  0  3.97643  0
C  C200  1  0.56958684  0.65723626  0.69483172  1  0.356617  0  0.113435  0.213286  0  4.0242  0
C  C201  1  0.93041287  0.34275830  0.19483207  1  0.356702  0  0.113356  0.213219  0  4.024377  0
C  C202  1  0.43040535  0.34275989  0.30516862  1  0.356589  0  0.11343  0.213398  0  4.02417  0
C  C203  1  0.06959152  0.65723787  0.80516905  1  0.356584  0  0.113439  0.213396  0  4.024276  0
N  N204  1  0.36345634  0.83624419  0.99165555  1  -1.315404  0  -0.371812  -0.257242  0  3.661588  0
N  N205  1  0.13654948  0.16375817  0.49166103  1  -1.315227  0  -0.371796  -0.257308  0  3.661547  0
N  N206  1  0.63655051  0.16375866  0.00834004  1  -1.315177  0  -0.371827  -0.257268  0  3.661459  0
N  N207  1  0.86345507  0.83624050  0.50834366  1  -1.315404  0  -0.371835  -0.257261  0  3.661523  0
N  N208  1  0.15590377  0.35583116  0.87865262  1  -1.295323  0  -0.36616  -0.242726  0  3.65273  0
N  N209  1  0.34409683  0.64415809  0.37864803  1  -1.295067  0  -0.366019  -0.242623  0  3.652278  0
N  N210  1  0.84409377  0.64416918  0.12134930  1  -1.295004  0  -0.366236  -0.242946  0  3.652605  0
N  N211  1  0.65590414  0.35583223  0.62134716  1  -1.295337  0  -0.366158  -0.242662  0  3.652738  0
N  N212  1  0.55020754  0.60196485  0.74207362  1  -1.291115  0  -0.369143  -0.250978  0  3.670908  0
N  N213  1  0.94979144  0.39803210  0.24207237  1  -1.29149  0  -0.369036  -0.250781  0  3.671326  0
N  N214  1  0.44978979  0.39803214  0.25792830  1  -1.291458  0  -0.369085  -0.250929  0  3.671324  0
N  N215  1  0.05021022  0.60196907  0.75792757  1  -1.291482  0  -0.369078  -0.250973  0  3.671355  0
O  O216  1  0.57453973  0.65731578  0.92085912  1  -1.167861  0  -0.361736  -0.604461  0  2.221961  0
O  O217  1  0.92546436  0.34268995  0.42086581  1  -1.167645  0  -0.361718  -0.604443  0  2.222212  0
O  O218  1  0.42547268  0.34269459  0.07913607  1  -1.16752  0  -0.361719  -0.604468  0  2.222116  0
O  O219  1  0.07454457  0.65731373  0.57914007  1  -1.167945  0  -0.361805  -0.604555  0  2.221945  0
O  O220  1  0.47112528  0.63891163  0.99981544  1  -1.212043  0  -0.404876  -0.713365  0  2.446472  0
O  O221  1  0.02887954  0.36109071  0.49982195  1  -1.212099  0  -0.404906  -0.713391  0  2.446577  0
O  O222  1  0.52888183  0.36109540  0.00017975  1  -1.212142  0  -0.404903  -0.71342  0  2.446461  0
O  O223  1  0.97112496  0.63890712  0.50018472  1  -1.212135  0  -0.404825  -0.713307  0  2.446433  0
O  O224  1  0.50576540  0.07362439  0.88570210  1  -1.156011  0  -0.322066  -0.501368  0  2.155991  0
O  O225  1  0.99423068  0.92638476  0.38570613  1  -1.155911  0  -0.322172  -0.501467  0  2.155786  0
O  O226  1  0.49423165  0.92638430  0.11429388  1  -1.155928  0  -0.322159  -0.501405  0  2.155783  0
O  O227  1  0.00576509  0.07361975  0.61429698  1  -1.155918  0  -0.322046  -0.501364  0  2.155982  0
O  O228  1  0.54110278  0.50418081  0.83483290  1  -1.172881  0  -0.354462  -0.614261  0  2.30762  0
O  O229  1  0.95889655  0.49581760  0.33483200  1  -1.172885  0  -0.35449  -0.61431  0  2.307456  0
O  O230  1  0.45889353  0.49581618  0.16516744  1  -1.172939  0  -0.354515  -0.61435  0  2.307484  0
O  O231  1  0.04110699  0.50418107  0.66516873  1  -1.172954  0  -0.354482  -0.614281  0  2.307632  0
O  O232  1  0.29370376  0.51618687  0.62034027  1  -1.176765  0  -0.392723  -0.592629  0  2.406184  0
O  O233  1  0.20630269  0.48380965  0.12033809  1  -1.176384  0  -0.392717  -0.592599  0  2.406305  0
O  O234  1  0.70630261  0.48380846  0.37966204  1  -1.17634  0  -0.39273  -0.592543  0  2.406304  0
O  O235  1  0.79369902  0.51619235  0.87965948  1  -1.176259  0  -0.392747  -0.592629  0  2.406179  0
O  O236  1  0.37129080  0.38016009  0.80896821  1  -1.18881  0  -0.301991  -0.53772  0  2.25186  0
O  O237  1  0.12869922  0.61984184  0.30896592  1  -1.188766  0  -0.301998  -0.537768  0  2.251918  0
O  O238  1  0.62870245  0.61983690  0.19103292  1  -1.188692  0  -0.301975  -0.537756  0  2.252049  0
O  O239  1  0.87129334  0.38016016  0.69103244  1  -1.188746  0  -0.301985  -0.537691  0  2.251838  0
O  O240  1  0.52039444  0.29097023  0.88444745  1  -1.28966  0  -0.66667  -0.89992  0  2.146209  0
O  O241  1  0.97960763  0.70903725  0.38444842  1  -1.289593  0  -0.666633  -0.899972  0  2.146229  0
O  O242  1  0.47960866  0.70903762  0.11555249  1  -1.289597  0  -0.66663  -0.899952  0  2.146285  0
O  O243  1  0.02039440  0.29096976  0.61555231  1  -1.289664  0  -0.666632  -0.89989  0  2.146204  0
O  O244  1  0.77359380  0.32125060  0.94208522  1  -1.195203  0  -0.383062  -0.619045  0  2.346877  0
O  O245  1  0.72640511  0.67875257  0.44208294  1  -1.195465  0  -0.382989  -0.618999  0  2.347059  0
O  O246  1  0.22640524  0.67875725  0.05791591  1  -1.19551  0  -0.382996  -0.618975  0  2.347043  0
O  O247  1  0.27359558  0.32124944  0.55791384  1  -1.195202  0  -0.38303  -0.619063  0  2.346882  0
O  O248  1  0.36110936  0.46825272  0.92542539  1  -1.198511  0  -0.377281  -0.652563  0  2.335646  0
O  O249  1  0.13888734  0.53175312  0.42542909  1  -1.198561  0  -0.377303  -0.652683  0  2.335672  0
O  O250  1  0.63888764  0.53175513  0.07456980  1  -1.198511  0  -0.377264  -0.652607  0  2.335789  0
O  O251  1  0.86111052  0.46825222  0.57457481  1  -1.19848  0  -0.377323  -0.652594  0  2.335654  0
O  O252  1  0.25020679  0.46315167  0.00455511  1  -1.165239  0  -0.360124  -0.631498  0  2.309425  0
O  O253  1  0.24979004  0.53685847  0.50455727  1  -1.165219  0  -0.360301  -0.631685  0  2.309083  0
O  O254  1  0.74978961  0.53686286  0.99544048  1  -1.165188  0  -0.360262  -0.631575  0  2.309086  0
O  O255  1  0.75020717  0.46315272  0.49544505  1  -1.165248  0  -0.360109  -0.631491  0  2.309437  0
