# generated using pymatgen
data_ZnH11C11N3O5
_symmetry_space_group_name_H-M   'P 1'
_cell_length_a   7.33068097
_cell_length_b   10.19057290
_cell_length_c   16.81661138
_cell_angle_alpha   89.99922816
_cell_angle_beta   100.89986344
_cell_angle_gamma   90.00142141
_symmetry_Int_Tables_number   1
_chemical_formula_structural   ZnH11C11N3O5
_chemical_formula_sum   'Zn4 H44 C44 N12 O20'
_cell_volume   1233.60134514
_cell_formula_units_Z   4
loop_
 _symmetry_equiv_pos_site_id
 _symmetry_equiv_pos_as_xyz
  1  'x, y, z'
loop_
 _atom_site_type_symbol
 _atom_site_label
 _atom_site_symmetry_multiplicity
 _atom_site_fract_x
 _atom_site_fract_y
 _atom_site_fract_z
 _atom_site_occupancy
 _atom_site_hle17_bader_spin_density
 _atom_site_hle17_ddec_charge
 _atom_site_hle17_ddec_spin_density
 _atom_site_hle17_ddec_sum_bond_order
 _atom_site_hle17_magmom
 _atom_site_hse06_10hf_bader_spin_density
 _atom_site_hse06_10hf_ddec_charge
 _atom_site_hse06_10hf_ddec_spin_density
 _atom_site_hse06_10hf_ddec_sum_bond_order
 _atom_site_hse06_10hf_magmom
 _atom_site_hse06_bader_spin_density
 _atom_site_hse06_ddec_charge
 _atom_site_hse06_ddec_spin_density
 _atom_site_hse06_ddec_sum_bond_order
 _atom_site_hse06_magmom
 _atom_site_pbe_bader_spin_density
 _atom_site_pbe_cm5_charge
 _atom_site_pbe_ddec_charge
 _atom_site_pbe_ddec_spin_density
 _atom_site_pbe_ddec_sum_bond_order
 _atom_site_pbe_magmom
Zn  Zn0  1  0.62628644  0.79350609  0.59584955  1  0  1.044704  0  1.838394  0  0  0.85802  0  2.309899  0  0  0.902877  0  2.256083  0  0  0.690869  0.826726  0  2.346971  0
Zn  Zn1  1  0.37371908  0.29352196  0.90414795  1  0  1.044686  0  1.838372  0  0  0.858073  0  2.309787  0  0  0.902925  0  2.255984  0  0  0.690919  0.826787  0  2.346855  0
Zn  Zn2  1  0.37373324  0.20648396  0.40415431  1  0  1.044565  0  1.838514  0  0  0.857898  0  2.309991  0  0  0.902754  0  2.256183  0  0  0.690827  0.826604  0  2.347062  0
Zn  Zn3  1  0.62627421  0.70648281  0.09585411  1  0  1.044673  0  1.838396  0  0  0.858002  0  2.309869  0  0  0.902858  0  2.256055  0  0  0.690836  0.826705  0  2.346941  0
H  H4  1  0.28200341  0.64834369  0.48190064  1  0  0.089703  0  0.947361  0  0  0.101211  0  1.010334  0  0  0.102847  0  1.008687  0  0  0.138512  0.099967  0  1.011501  0
H  H5  1  0.71797600  0.14837447  0.01809208  1  0  0.089941  0  0.947587  0  0  0.101462  0  1.010499  0  0  0.103112  0  1.008831  0  0  0.138537  0.100215  0  1.011669  0
H  H6  1  0.71800715  0.35163753  0.51811033  1  0  0.089746  0  0.94748  0  0  0.101246  0  1.010455  0  0  0.102893  0  1.0088  0  0  0.138493  0.100003  0  1.011615  0
H  H7  1  0.28202544  0.85161950  0.98190816  1  0  0.089712  0  0.947477  0  0  0.101206  0  1.010464  0  0  0.102856  0  1.008797  0  0  0.138453  0.099959  0  1.011634  0
H  H8  1  0.64929759  0.53895225  0.32608527  1  0  0.125554  0  0.970884  0  0  0.134127  0  1.033473  0  0  0.136056  0  1.034424  0  0  0.120686  0.132758  0  1.032814  0
H  H9  1  0.35068271  0.03892050  0.17389532  1  0  0.1257  0  0.970598  0  0  0.134206  0  1.033251  0  0  0.136133  0  1.034203  0  0  0.120704  0.13281  0  1.032672  0
H  H10  1  0.35068061  0.46107018  0.67390030  1  0  0.125624  0  0.970761  0  0  0.134148  0  1.033383  0  0  0.136072  0  1.034338  0  0  0.120664  0.132761  0  1.032783  0
H  H11  1  0.64931003  0.96105679  0.82609957  1  0  0.125643  0  0.97081  0  0  0.134196  0  1.033382  0  0  0.136123  0  1.034332  0  0  0.120711  0.132804  0  1.032795  0
H  H12  1  0.16016615  0.62388997  0.82895858  1  0  0.11764  0  0.937631  0  0  0.128334  0  0.994695  0  0  0.131684  0  0.992221  0  0  0.116034  0.125801  0  0.996674  0
H  H13  1  0.83982101  0.12390004  0.67103609  1  0  0.117658  0  0.937662  0  0  0.12833  0  0.994749  0  0  0.131681  0  0.992272  0  0  0.116056  0.125797  0  0.996725  0
H  H14  1  0.83983131  0.37609714  0.17104377  1  0  0.117653  0  0.937712  0  0  0.128326  0  0.994789  0  0  0.131675  0  0.992313  0  0  0.116062  0.125792  0  0.996764  0
H  H15  1  0.16019617  0.87608511  0.32897117  1  0  0.117595  0  0.937737  0  0  0.128311  0  0.994732  0  0  0.131659  0  0.992259  0  0  0.116023  0.125784  0  0.9967  0
H  H16  1  0.49482864  0.56724412  0.85635969  1  0  0.114596  0  0.967078  0  0  0.122687  0  1.02764  0  0  0.125898  0  1.026658  0  0  0.10985  0.120311  0  1.028576  0
H  H17  1  0.50513795  0.06724901  0.64364355  1  0  0.11444  0  0.966998  0  0  0.122516  0  1.027582  0  0  0.125718  0  1.026628  0  0  0.109749  0.120141  0  1.028522  0
H  H18  1  0.50515466  0.43272925  0.14363812  1  0  0.114512  0  0.967114  0  0  0.122555  0  1.027719  0  0  0.125756  0  1.026762  0  0  0.109808  0.120183  0  1.028661  0
H  H19  1  0.49485207  0.93275576  0.35636959  1  0  0.114547  0  0.967103  0  0  0.122677  0  1.02762  0  0  0.125882  0  1.026659  0  0  0.109829  0.120301  0  1.028562  0
H  H20  1  0.69644056  0.64798029  0.75987103  1  0  0.090615  0  0.940423  0  0  0.098576  0  1.002883  0  0  0.101817  0  1.000093  0  0  0.119484  0.096122  0  1.005054  0
H  H21  1  0.30352620  0.14800033  0.74013513  1  0  0.090633  0  0.94032  0  0  0.098547  0  1.002822  0  0  0.101791  0  1.000027  0  0  0.119476  0.096095  0  1.00499  0
H  H22  1  0.30355407  0.35199111  0.24013053  1  0  0.090556  0  0.940657  0  0  0.098465  0  1.003155  0  0  0.101692  0  1.000378  0  0  0.119477  0.096015  0  1.005316  0
H  H23  1  0.69643729  0.85201229  0.25987442  1  0  0.090611  0  0.940579  0  0  0.098592  0  1.003015  0  0  0.101831  0  1.000222  0  0  0.11951  0.096141  0  1.005182  0
H  H24  1  0.31238361  0.52887016  0.35276762  1  0  0.312446  0  0.85026  0  0  0.301577  0  0.899421  0  0  0.308198  0  0.894767  0  0  0.339086  0.296809  0  0.902942  0
H  H25  1  0.68759248  0.02887321  0.14721633  1  0  0.312635  0  0.850198  0  0  0.301767  0  0.899409  0  0  0.308392  0  0.894742  0  0  0.33918  0.297001  0  0.902932  0
H  H26  1  0.68761103  0.47113363  0.64723394  1  0  0.312551  0  0.850195  0  0  0.30167  0  0.899378  0  0  0.308293  0  0.894718  0  0  0.339107  0.2969  0  0.902901  0
H  H27  1  0.31240285  0.97109624  0.85277635  1  0  0.312628  0  0.850213  0  0  0.301753  0  0.8994  0  0  0.308376  0  0.894737  0  0  0.339182  0.296985  0  0.902925  0
H  H28  1  0.96526370  0.65805909  0.52182605  1  0  0.122326  0  0.951594  0  0  0.139204  0  1.017103  0  0  0.141028  0  1.01641  0  0  0.090369  0.137852  0  1.017603  0
H  H29  1  0.03470714  0.15802933  0.97815710  1  0  0.122442  0  0.95157  0  0  0.139309  0  1.017082  0  0  0.141134  0  1.016388  0  0  0.090422  0.137958  0  1.01758  0
H  H30  1  0.03474171  0.34196531  0.47815422  1  0  0.122355  0  0.951671  0  0  0.139267  0  1.017124  0  0  0.14109  0  1.016433  0  0  0.090372  0.137916  0  1.017618  0
H  H31  1  0.96528510  0.84197053  0.02184905  1  0  0.12244  0  0.951503  0  0  0.139306  0  1.017012  0  0  0.141131  0  1.016317  0  0  0.090412  0.137955  0  1.017507  0
H  H32  1  0.91491071  0.79361307  0.45501156  1  0  0.129683  0  0.940093  0  0  0.147379  0  1.003694  0  0  0.149363  0  1.002594  0  0  0.095019  0.14586  0  1.00458  0
H  H33  1  0.08505927  0.29358238  0.04497456  1  0  0.129864  0  0.939746  0  0  0.147595  0  1.003319  0  0  0.149576  0  1.002218  0  0  0.095069  0.14607  0  1.004219  0
H  H34  1  0.08506156  0.20641427  0.54496884  1  0  0.129809  0  0.939899  0  0  0.14753  0  1.003509  0  0  0.149509  0  1.002417  0  0  0.095093  0.146009  0  1.0044  0
H  H35  1  0.91495342  0.70641454  0.95502822  1  0  0.129834  0  0.939784  0  0  0.147549  0  1.003368  0  0  0.149529  0  1.002269  0  0  0.095069  0.146026  0  1.004265  0
H  H36  1  0.96910396  0.63970503  0.41530736  1  0  0.125999  0  0.948117  0  0  0.146433  0  1.006806  0  0  0.148546  0  1.005716  0  0  0.094206  0.144839  0  1.007679  0
H  H37  1  0.03086752  0.13966965  0.08467596  1  0  0.126054  0  0.948322  0  0  0.146495  0  1.006969  0  0  0.148606  0  1.005884  0  0  0.094203  0.144904  0  1.007843  0
H  H38  1  0.03088599  0.36032427  0.58466949  1  0  0.125851  0  0.948493  0  0  0.146421  0  1.007021  0  0  0.148537  0  1.005926  0  0  0.094173  0.144831  0  1.007894  0
H  H39  1  0.96913573  0.86033316  0.91532975  1  0  0.125949  0  0.94826  0  0  0.146443  0  1.006866  0  0  0.148554  0  1.005779  0  0  0.094199  0.144852  0  1.007741  0
H  H40  1  0.70489943  0.01025720  0.51766759  1  0  0.432404  0  0.870546  0  0  0.398428  0  0.937371  0  0  0.410551  0  0.919893  0  0  0.292053  0.389853  0  0.94971  0
H  H41  1  0.29510145  0.51026393  0.98233964  1  0  0.432381  0  0.870555  0  0  0.398365  0  0.937443  0  0  0.410486  0  0.919968  0  0  0.292067  0.389785  0  0.949788  0
H  H42  1  0.29511502  0.98973677  0.48234007  1  0  0.432304  0  0.870654  0  0  0.398352  0  0.93746  0  0  0.410476  0  0.91998  0  0  0.292041  0.389761  0  0.949818  0
H  H43  1  0.70489045  0.48973986  0.01766232  1  0  0.432422  0  0.870492  0  0  0.398438  0  0.937337  0  0  0.410561  0  0.919859  0  0  0.292058  0.38985  0  0.949691  0
H  H44  1  0.88468747  0.95786919  0.58136281  1  0  0.435679  0  0.870589  0  0  0.403683  0  0.936195  0  0  0.414196  0  0.920913  0  0  0.298018  0.396248  0  0.946993  0
H  H45  1  0.11531056  0.45788032  0.91864472  1  0  0.435817  0  0.870385  0  0  0.403799  0  0.936034  0  0  0.414313  0  0.920751  0  0  0.298079  0.396363  0  0.946829  0
H  H46  1  0.11532564  0.04212871  0.41864536  1  0  0.43572  0  0.87052  0  0  0.403719  0  0.936142  0  0  0.414233  0  0.920859  0  0  0.297994  0.396284  0  0.946941  0
H  H47  1  0.88468176  0.54212739  0.08136263  1  0  0.43567  0  0.87057  0  0  0.403644  0  0.93624  0  0  0.414158  0  0.920965  0  0  0.297926  0.396207  0  0.947037  0
C  C48  1  0.40903998  0.63760078  0.45851033  1  0  0.229644  0  3.685706  0  0  0.164653  0  3.966093  0  0  0.179678  0  3.978085  0  0  0.144841  0.154981  0  3.957581  0
C  C49  1  0.59094351  0.13759651  0.04146847  1  0  0.229361  0  3.685726  0  0  0.16439  0  3.966107  0  0  0.179411  0  3.978083  0  0  0.144816  0.154716  0  3.957602  0
C  C50  1  0.59096711  0.36240203  0.54149148  1  0  0.22966  0  3.685938  0  0  0.164707  0  3.966303  0  0  0.179718  0  3.978292  0  0  0.144863  0.155037  0  3.95779  0
C  C51  1  0.40905321  0.86238667  0.95852430  1  0  0.229716  0  3.685456  0  0  0.164751  0  3.9658  0  0  0.179766  0  3.977781  0  0  0.144907  0.155077  0  3.957292  0
C  C52  1  0.60299167  0.57910411  0.37849243  1  0  -0.084416  0  3.653267  0  0  -0.129613  0  3.916158  0  0  -0.131267  0  3.938904  0  0  -0.00404  -0.128419  0  3.900875  0
C  C53  1  0.39697881  0.07908602  0.12148656  1  0  -0.08431  0  3.652715  0  0  -0.129408  0  3.915699  0  0  -0.131063  0  3.938434  0  0  -0.003921  -0.128222  0  3.900414  0
C  C54  1  0.39699375  0.42090655  0.62149719  1  0  -0.084377  0  3.652844  0  0  -0.12947  0  3.915831  0  0  -0.131126  0  3.93857  0  0  -0.003975  -0.128282  0  3.900549  0
C  C55  1  0.60300679  0.92089618  0.87850546  1  0  -0.08427  0  3.652837  0  0  -0.129363  0  3.915826  0  0  -0.131021  0  3.938561  0  0  -0.003877  -0.128183  0  3.900546  0
C  C56  1  0.97673117  0.78248987  0.71133229  1  0  0.660993  0  3.950363  0  0  0.608039  0  4.256551  0  0  0.642865  0  4.246517  0  0  0.200407  0.584186  0  4.262716  0
C  C57  1  0.02324677  0.28250605  0.78865270  1  0  0.660843  0  3.950452  0  0  0.607786  0  4.256809  0  0  0.642619  0  4.246783  0  0  0.200402  0.583938  0  4.26297  0
C  C58  1  0.02327559  0.21751294  0.28866533  1  0  0.661177  0  3.950225  0  0  0.608153  0  4.256488  0  0  0.642986  0  4.246458  0  0  0.200501  0.5843  0  4.262652  0
C  C59  1  0.97673917  0.71749676  0.21134350  1  0  0.660806  0  3.95028  0  0  0.607731  0  4.256699  0  0  0.64256  0  4.246674  0  0  0.200387  0.583879  0  4.26286  0
C  C60  1  0.17969151  0.74510128  0.72523533  1  0  -0.069512  0  3.679425  0  0  -0.054905  0  3.918173  0  0  -0.060435  0  3.935176  0  0  0.00452  -0.051901  0  3.907548  0
C  C61  1  0.82031292  0.24510787  0.77476903  1  0  -0.069581  0  3.679748  0  0  -0.05484  0  3.918394  0  0  -0.060399  0  3.935444  0  0  0.004524  -0.051842  0  3.907774  0
C  C62  1  0.82031433  0.25489074  0.27476818  1  0  -0.069952  0  3.679828  0  0  -0.05521  0  3.918449  0  0  -0.060768  0  3.935492  0  0  0.004475  -0.052204  0  3.907823  0
C  C63  1  0.17969871  0.75489886  0.22523785  1  0  -0.069438  0  3.679396  0  0  -0.054777  0  3.918127  0  0  -0.060312  0  3.935132  0  0  0.004528  -0.051775  0  3.907504  0
C  C64  1  0.25045808  0.66178107  0.78989709  1  0  -0.0071  0  3.655408  0  0  -0.037871  0  3.909928  0  0  -0.032979  0  3.923002  0  0  -0.058309  -0.041037  0  3.901443  0
C  C65  1  0.74953612  0.16180350  0.71010071  1  0  -0.007111  0  3.65528  0  0  -0.037854  0  3.909746  0  0  -0.032958  0  3.922841  0  0  -0.05822  -0.041017  0  3.901256  0
C  C66  1  0.74954216  0.33820407  0.21010544  1  0  -0.007083  0  3.655492  0  0  -0.037825  0  3.90995  0  0  -0.032933  0  3.923048  0  0  -0.05831  -0.040991  0  3.90146  0
C  C67  1  0.25048216  0.83821109  0.28990305  1  0  -0.007171  0  3.655475  0  0  -0.037928  0  3.909948  0  0  -0.033037  0  3.923041  0  0  -0.058317  -0.041094  0  3.901461  0
C  C68  1  0.43743808  0.62789434  0.80449268  1  0  -0.091047  0  3.697584  0  0  -0.106911  0  3.958836  0  0  -0.111364  0  3.976357  0  0  -0.075965  -0.104243  0  3.947415  0
C  C69  1  0.56254598  0.12790699  0.69551364  1  0  -0.090725  0  3.697213  0  0  -0.106616  0  3.95854  0  0  -0.111073  0  3.976055  0  0  -0.075828  -0.103953  0  3.947124  0
C  C70  1  0.56254536  0.37208590  0.19550693  1  0  -0.090864  0  3.697324  0  0  -0.106743  0  3.958627  0  0  -0.111197  0  3.976138  0  0  -0.075925  -0.104088  0  3.94722  0
C  C71  1  0.43745658  0.87210072  0.30450095  1  0  -0.090893  0  3.697615  0  0  -0.106809  0  3.958904  0  0  -0.11127  0  3.976422  0  0  -0.07592  -0.104143  0  3.947494  0
C  C72  1  0.54930971  0.67234673  0.75173559  1  0  0.119989  0  3.708009  0  0  0.084255  0  3.970424  0  0  0.092208  0  3.984797  0  0  0.044344  0.078876  0  3.960947  0
C  C73  1  0.45066892  0.17237207  0.74827059  1  0  0.120068  0  3.70802  0  0  0.084423  0  3.970424  0  0  0.092385  0  3.984789  0  0  0.044488  0.079042  0  3.960949  0
C  C74  1  0.45067798  0.32762958  0.24826550  1  0  0.120104  0  3.708206  0  0  0.084464  0  3.970576  0  0  0.09243  0  3.98495  0  0  0.044476  0.07908  0  3.961109  0
C  C75  1  0.54932123  0.82763859  0.25174435  1  0  0.119912  0  3.70811  0  0  0.084158  0  3.970564  0  0  0.092119  0  3.984933  0  0  0.044296  0.078775  0  3.961092  0
C  C76  1  0.30198948  0.78842032  0.67607001  1  0  0.058564  0  3.723221  0  0  0.052988  0  3.965727  0  0  0.054195  0  3.984921  0  0  0.104461  0.051973  0  3.953177  0
C  C77  1  0.69801745  0.28842674  0.82393000  1  0  0.058575  0  3.723268  0  0  0.052909  0  3.965844  0  0  0.054118  0  3.985051  0  0  0.104325  0.051903  0  3.953285  0
C  C78  1  0.69802099  0.21158150  0.32393977  1  0  0.058743  0  3.722962  0  0  0.053018  0  3.965601  0  0  0.054229  0  3.98481  0  0  0.104283  0.051997  0  3.953058  0
C  C79  1  0.30199844  0.71158391  0.17607836  1  0  0.058568  0  3.723233  0  0  0.052945  0  3.965715  0  0  0.05415  0  3.984919  0  0  0.104513  0.051934  0  3.953161  0
C  C80  1  0.24852008  0.88750135  0.60898762  1  0  0.622823  0  3.931413  0  0  0.568171  0  4.232776  0  0  0.600902  0  4.22535  0  0  0.215028  0.545998  0  4.23711  0
C  C81  1  0.75147385  0.38752201  0.89099760  1  0  0.622926  0  3.931662  0  0  0.568378  0  4.232853  0  0  0.60111  0  4.225421  0  0  0.215091  0.546212  0  4.237191  0
C  C82  1  0.75149932  0.11248576  0.39101265  1  0  0.623191  0  3.931427  0  0  0.568623  0  4.232677  0  0  0.601357  0  4.225246  0  0  0.215203  0.546454  0  4.237022  0
C  C83  1  0.24851995  0.61249944  0.10899319  1  0  0.622811  0  3.931411  0  0  0.568306  0  4.232548  0  0  0.601042  0  4.225118  0  0  0.215015  0.546128  0  4.23689  0
C  C84  1  0.69958319  0.64879809  0.44318348  1  0  0.225126  0  3.756644  0  0  0.235811  0  4.005625  0  0  0.23915  0  4.030629  0  0  0.08228  0.233397  0  3.988773  0
C  C85  1  0.30038947  0.14877184  0.05679330  1  0  0.225355  0  3.756623  0  0  0.235993  0  4.005669  0  0  0.239348  0  4.030641  0  0  0.082182  0.233574  0  3.988834  0
C  C86  1  0.30040991  0.35121649  0.55679834  1  0  0.225399  0  3.75624  0  0  0.235935  0  4.005512  0  0  0.239287  0  4.030491  0  0  0.082282  0.233512  0  3.988681  0
C  C87  1  0.69960618  0.85122018  0.94320356  1  0  0.225467  0  3.756586  0  0  0.235935  0  4.005877  0  0  0.239295  0  4.030842  0  0  0.08216  0.233516  0  3.989044  0
C  C88  1  0.89921052  0.68666011  0.46002889  1  0  -0.363719  0  3.720694  0  0  -0.440744  0  3.95153  0  0  -0.443796  0  3.960428  0  0  -0.243038  -0.438309  0  3.945534  0
C  C89  1  0.10076113  0.18662784  0.03995406  1  0  -0.364299  0  3.720759  0  0  -0.441364  0  3.951638  0  0  -0.444415  0  3.960527  0  0  -0.243118  -0.438896  0  3.945581  0
C  C90  1  0.10077850  0.31336723  0.53995385  1  0  -0.363965  0  3.72092  0  0  -0.441123  0  3.951813  0  0  -0.444176  0  3.960708  0  0  -0.243102  -0.438667  0  3.945782  0
C  C91  1  0.89923504  0.81337104  0.96004938  1  0  -0.364216  0  3.720655  0  0  -0.441246  0  3.951603  0  0  -0.444303  0  3.960503  0  0  -0.243124  -0.438778  0  3.945542  0
N  N92  1  0.57560697  0.68398982  0.49277152  1  0  -0.449485  0  3.238416  0  0  -0.373172  0  3.530554  0  0  -0.393569  0  3.542013  0  0  -0.356274  -0.359339  0  3.522583  0
N  N93  1  0.42437191  0.18399813  0.00721670  1  0  -0.449527  0  3.238469  0  0  -0.373116  0  3.530468  0  0  -0.39352  0  3.541924  0  0  -0.356217  -0.359283  0  3.522495  0
N  N94  1  0.42440530  0.31600317  0.50722588  1  0  -0.449484  0  3.23853  0  0  -0.37316  0  3.530693  0  0  -0.393564  0  3.542157  0  0  -0.356225  -0.359325  0  3.522724  0
N  N95  1  0.57562532  0.81600664  0.99278265  1  0  -0.44965  0  3.238509  0  0  -0.373231  0  3.530627  0  0  -0.393635  0  3.542079  0  0  -0.356259  -0.359401  0  3.52266  0
N  N96  1  0.48108415  0.74847698  0.68796019  1  0  -0.354819  0  3.342694  0  0  -0.282133  0  3.624113  0  0  -0.298268  0  3.637526  0  0  -0.327764  -0.271261  0  3.615294  0
N  N97  1  0.51891517  0.24849725  0.81204796  1  0  -0.354988  0  3.342987  0  0  -0.282341  0  3.624418  0  0  -0.298474  0  3.637823  0  0  -0.32789  -0.271467  0  3.615595  0
N  N98  1  0.51892317  0.25150522  0.31204461  1  0  -0.354855  0  3.342644  0  0  -0.28216  0  3.624051  0  0  -0.298294  0  3.637451  0  0  -0.327811  -0.271291  0  3.615241  0
N  N99  1  0.48108952  0.75152420  0.18795845  1  0  -0.354758  0  3.342599  0  0  -0.282086  0  3.624049  0  0  -0.298222  0  3.637455  0  0  -0.327767  -0.271213  0  3.61523  0
N  N100  1  0.42119025  0.57303408  0.38960834  1  0  -0.280583  0  3.509414  0  0  -0.221289  0  3.759771  0  0  -0.236865  0  3.776659  0  0  -0.378596  -0.210866  0  3.748272  0
N  N101  1  0.57879739  0.07302523  0.11038080  1  0  -0.280891  0  3.509181  0  0  -0.221701  0  3.759624  0  0  -0.237284  0  3.776508  0  0  -0.378738  -0.211286  0  3.748142  0
N  N102  1  0.57880133  0.42697069  0.61038944  1  0  -0.280885  0  3.509691  0  0  -0.221584  0  3.760037  0  0  -0.237159  0  3.776926  0  0  -0.378654  -0.21116  0  3.74854  0
N  N103  1  0.42119942  0.92695403  0.88961318  1  0  -0.280982  0  3.50928  0  0  -0.221725  0  3.759648  0  0  -0.237306  0  3.776534  0  0  -0.378751  -0.2113  0  3.748159  0
O  O104  1  0.87508048  0.71774938  0.65291133  1  0  -0.678005  0  2.013369  0  0  -0.609356  0  2.280204  0  0  -0.638234  0  2.265369  0  0  -0.342111  -0.588688  0  2.289586  0
O  O105  1  0.12490211  0.21777983  0.84707273  1  0  -0.677817  0  2.013  0  0  -0.609165  0  2.279866  0  0  -0.638048  0  2.265061  0  0  -0.342053  -0.588497  0  2.289239  0
O  O106  1  0.12492522  0.28224558  0.34709039  1  0  -0.677959  0  2.013248  0  0  -0.609293  0  2.280111  0  0  -0.638155  0  2.265246  0  0  -0.342083  -0.588632  0  2.289496  0
O  O107  1  0.87510303  0.78224653  0.15292180  1  0  -0.677919  0  2.012969  0  0  -0.609229  0  2.279785  0  0  -0.638113  0  2.264977  0  0  -0.342079  -0.588566  0  2.289163  0
O  O108  1  0.92465994  0.86383667  0.75762134  1  0  -0.603116  0  1.869138  0  0  -0.56241  0  2.086559  0  0  -0.58618  0  2.079138  0  0  -0.323376  -0.545069  0  2.090885  0
O  O109  1  0.07533191  0.36386256  0.74236512  1  0  -0.603058  0  1.868989  0  0  -0.562364  0  2.086532  0  0  -0.586138  0  2.07912  0  0  -0.323464  -0.545021  0  2.090857  0
O  O110  1  0.07534257  0.13615828  0.24237480  1  0  -0.603179  0  1.868834  0  0  -0.562462  0  2.086309  0  0  -0.586233  0  2.078886  0  0  -0.323446  -0.545119  0  2.090635  0
O  O111  1  0.92466408  0.63614810  0.25763593  1  0  -0.603025  0  1.869146  0  0  -0.562288  0  2.086672  0  0  -0.586057  0  2.079256  0  0  -0.323414  -0.54495  0  2.090994  0
O  O112  1  0.10930945  0.95888771  0.60812748  1  0  -0.595774  0  1.986793  0  0  -0.546361  0  2.210801  0  0  -0.569164  0  2.201086  0  0  -0.306078  -0.530489  0  2.217065  0
O  O113  1  0.89069343  0.45891663  0.89187085  1  0  -0.59597  0  1.98672  0  0  -0.546546  0  2.210664  0  0  -0.569343  0  2.200934  0  0  -0.306122  -0.530672  0  2.21692  0
O  O114  1  0.89070865  0.04110430  0.39187389  1  0  -0.596044  0  1.98698  0  0  -0.546663  0  2.210998  0  0  -0.569447  0  2.201243  0  0  -0.306157  -0.530792  0  2.217259  0
O  O115  1  0.10931630  0.54109991  0.10812935  1  0  -0.595807  0  1.986892  0  0  -0.546428  0  2.210853  0  0  -0.569221  0  2.201115  0  0  -0.306039  -0.530554  0  2.217117  0
O  O116  1  0.36047673  0.89579579  0.55878359  1  0  -0.639739  0  2.088056  0  0  -0.561542  0  2.32824  0  0  -0.589609  0  2.316283  0  0  -0.306633  -0.541923  0  2.335902  0
O  O117  1  0.63954737  0.39582428  0.94121313  1  0  -0.639697  0  2.088276  0  0  -0.561563  0  2.328477  0  0  -0.589634  0  2.31652  0  0  -0.306632  -0.541985  0  2.336178  0
O  O118  1  0.63954850  0.10419916  0.44122064  1  0  -0.639864  0  2.088166  0  0  -0.56169  0  2.328346  0  0  -0.589767  0  2.316395  0  0  -0.306655  -0.542065  0  2.335974  0
O  O119  1  0.36047744  0.60420109  0.05878572  1  0  -0.639792  0  2.088148  0  0  -0.561611  0  2.328297  0  0  -0.589684  0  2.316343  0  0  -0.306638  -0.542002  0  2.335975  0
O  O120  1  0.74647400  0.96179037  0.57025260  1  0  -0.84118  0  1.94687  0  0  -0.767268  0  2.170872  0  0  -0.790315  0  2.134058  0  0  -0.577933  -0.75099  0  2.196454  0
O  O121  1  0.25352157  0.46179579  0.92975712  1  0  -0.841271  0  1.946649  0  0  -0.767389  0  2.170773  0  0  -0.79044  0  2.133961  0  0  -0.578026  -0.751106  0  2.196359  0
O  O122  1  0.25354050  0.03820361  0.42975567  1  0  -0.84106  0  1.946883  0  0  -0.767192  0  2.170842  0  0  -0.790243  0  2.134033  0  0  -0.57786  -0.750901  0  2.196448  0
O  O123  1  0.74646691  0.53820211  0.07025414  1  0  -0.841156  0  1.946707  0  0  -0.767224  0  2.170659  0  0  -0.790279  0  2.133839  0  0  -0.577833  -0.750927  0  2.196268  0
