# generated using pymatgen
data_Sn2H34C28(SN2)3
_symmetry_space_group_name_H-M   'P 1'
_cell_length_a   10.70270192
_cell_length_b   11.52113379
_cell_length_c   12.99514271
_cell_angle_alpha   89.99985717
_cell_angle_beta   96.80932034
_cell_angle_gamma   90.00049180
_symmetry_Int_Tables_number   1
_chemical_formula_structural   Sn2H34C28(SN2)3
_chemical_formula_sum   'Sn4 H68 C56 S6 N12'
_cell_volume   1591.09252865
_cell_formula_units_Z   2
loop_
 _symmetry_equiv_pos_site_id
 _symmetry_equiv_pos_as_xyz
  1  'x, y, z'
loop_
 _atom_site_type_symbol
 _atom_site_label
 _atom_site_symmetry_multiplicity
 _atom_site_fract_x
 _atom_site_fract_y
 _atom_site_fract_z
 _atom_site_occupancy
 _atom_site_hle17_bader_spin_density
 _atom_site_hle17_ddec_charge
 _atom_site_hle17_ddec_spin_density
 _atom_site_hle17_ddec_sum_bond_order
 _atom_site_hle17_magmom
 _atom_site_hse06_10hf_bader_spin_density
 _atom_site_hse06_10hf_ddec_charge
 _atom_site_hse06_10hf_ddec_spin_density
 _atom_site_hse06_10hf_ddec_sum_bond_order
 _atom_site_hse06_10hf_magmom
 _atom_site_hse06_bader_spin_density
 _atom_site_hse06_ddec_charge
 _atom_site_hse06_ddec_spin_density
 _atom_site_hse06_ddec_sum_bond_order
 _atom_site_hse06_magmom
 _atom_site_pbe_bader_spin_density
 _atom_site_pbe_cm5_charge
 _atom_site_pbe_ddec_charge
 _atom_site_pbe_ddec_spin_density
 _atom_site_pbe_ddec_sum_bond_order
 _atom_site_pbe_magmom
Sn  Sn0  1  0.38154819  0.47529711  0.97910405  1  0  1.168995  0  2.98987  0  0  1.042474  0  3.471039  0  0  1.073539  0  3.467283  0  0  0.44946  1.021252  0  3.473064  0
Sn  Sn1  1  0.38153262  0.52470354  0.47909823  1  0  1.168943  0  2.989801  0  0  1.042414  0  3.470963  0  0  1.073517  0  3.467141  0  0  0.449486  1.021205  0  3.472993  0
Sn  Sn2  1  0.85301835  0.39218944  0.74838147  1  0  1.238986  0  2.917507  0  0  1.095367  0  3.397221  0  0  1.129295  0  3.390173  0  0  0.511037  1.072257  0  3.401557  0
Sn  Sn3  1  0.85302231  0.60781736  0.24837486  1  0  1.238959  0  2.917613  0  0  1.095342  0  3.39729  0  0  1.129263  0  3.390223  0  0  0.511061  1.072232  0  3.401629  0
H  H4  1  0.25776868  0.48104372  0.78653016  1  0  0.150487  0  0.988884  0  0  0.170754  0  1.042396  0  0  0.173323  0  1.042878  0  0  0.08577  0.168669  0  1.042516  0
H  H5  1  0.25776334  0.51895736  0.28652138  1  0  0.150492  0  0.988874  0  0  0.170742  0  1.042414  0  0  0.173308  0  1.0429  0  0  0.085777  0.168658  0  1.042534  0
H  H6  1  0.32280809  0.33873157  0.80603200  1  0  0.140976  0  1.013395  0  0  0.157049  0  1.075277  0  0  0.159953  0  1.074863  0  0  0.080087  0.154862  0  1.075695  0
H  H7  1  0.32280221  0.66126824  0.30602596  1  0  0.140949  0  1.013488  0  0  0.157035  0  1.075344  0  0  0.159934  0  1.074938  0  0  0.080069  0.154849  0  1.075763  0
H  H8  1  0.42293202  0.45732016  0.77978935  1  0  0.153426  0  1.010455  0  0  0.168649  0  1.072067  0  0  0.171539  0  1.072361  0  0  0.085502  0.166439  0  1.072241  0
H  H9  1  0.42292692  0.54268399  0.27978208  1  0  0.153427  0  1.010343  0  0  0.16867  0  1.071939  0  0  0.171561  0  1.072234  0  0  0.0855  0.166459  0  1.072117  0
H  H10  1  0.54936845  0.43656578  0.15075044  1  0  0.158288  0  0.993491  0  0  0.17342  0  1.05484  0  0  0.176069  0  1.055445  0  0  0.084226  0.171478  0  1.054527  0
H  H11  1  0.54934713  0.56342325  0.65074981  1  0  0.158242  0  0.993414  0  0  0.173409  0  1.054725  0  0  0.17605  0  1.055342  0  0  0.084205  0.171468  0  1.054411  0
H  H12  1  0.62695946  0.42654554  0.03594555  1  0  0.157004  0  0.999395  0  0  0.173636  0  1.057043  0  0  0.176237  0  1.057905  0  0  0.084507  0.171495  0  1.057123  0
H  H13  1  0.62695242  0.57344791  0.53595075  1  0  0.156983  0  0.99927  0  0  0.173633  0  1.056916  0  0  0.176237  0  1.057774  0  0  0.084477  0.171492  0  1.056993  0
H  H14  1  0.53281915  0.30861661  0.07212144  1  0  0.146195  0  1.010697  0  0  0.162555  0  1.070291  0  0  0.164919  0  1.071846  0  0  0.078906  0.160828  0  1.069176  0
H  H15  1  0.53281032  0.69137858  0.57212393  1  0  0.146157  0  1.010635  0  0  0.162456  0  1.070332  0  0  0.164829  0  1.071879  0  0  0.078846  0.160732  0  1.069212  0
H  H16  1  0.26922971  0.60057461  0.12203759  1  0  0.14777  0  1.015798  0  0  0.166514  0  1.075061  0  0  0.168839  0  1.076103  0  0  0.078293  0.164785  0  1.074498  0
H  H17  1  0.26922759  0.39942790  0.62203819  1  0  0.147849  0  1.015724  0  0  0.16659  0  1.074986  0  0  0.168913  0  1.07603  0  0  0.078275  0.164858  0  1.074429  0
H  H18  1  0.15105464  0.52219481  0.04074009  1  0  0.143814  0  1.025414  0  0  0.162033  0  1.08464  0  0  0.164621  0  1.085211  0  0  0.081228  0.159852  0  1.085199  0
H  H19  1  0.15104760  0.47780351  0.54074087  1  0  0.143867  0  1.025326  0  0  0.162057  0  1.084588  0  0  0.164643  0  1.085162  0  0  0.08123  0.159875  0  1.08515  0
H  H20  1  0.21703433  0.64987648  0.99307112  1  0  0.151649  0  0.996327  0  0  0.169226  0  1.054696  0  0  0.172056  0  1.054882  0  0  0.076892  0.167962  0  1.052781  0
H  H21  1  0.21702203  0.35011762  0.49307442  1  0  0.151646  0  0.996341  0  0  0.169206  0  1.054727  0  0  0.172035  0  1.054917  0  0  0.076888  0.167946  0  1.052809  0
H  H22  1  0.95794733  0.30669107  0.93244869  1  0  0.152539  0  1.007063  0  0  0.165152  0  1.074355  0  0  0.16793  0  1.074929  0  0  0.081071  0.163186  0  1.073901  0
H  H23  1  0.95794657  0.69330911  0.43245072  1  0  0.15254  0  1.007033  0  0  0.165142  0  1.074339  0  0  0.167907  0  1.07493  0  0  0.081076  0.163175  0  1.073888  0
H  H24  1  0.02083468  0.44886347  0.91135042  1  0  0.148025  0  1.02733  0  0  0.162524  0  1.090507  0  0  0.164819  0  1.092161  0  0  0.076037  0.160801  0  1.089585  0
H  H25  1  0.02083258  0.55113536  0.41134955  1  0  0.148018  0  1.027326  0  0  0.162517  0  1.090497  0  0  0.164811  0  1.092152  0  0  0.076024  0.160794  0  1.089576  0
H  H26  1  0.07785819  0.32425713  0.84890049  1  0  0.147386  0  0.997782  0  0  0.165731  0  1.053981  0  0  0.167825  0  1.055784  0  0  0.081236  0.164075  0  1.053059  0
H  H27  1  0.07786199  0.67574494  0.34890373  1  0  0.147409  0  0.997753  0  0  0.16574  0  1.053969  0  0  0.167834  0  1.055771  0  0  0.081215  0.164085  0  1.053048  0
H  H28  1  0.66301985  0.26274821  0.81196676  1  0  0.152829  0  0.994514  0  0  0.170381  0  1.051173  0  0  0.173022  0  1.052112  0  0  0.081091  0.16851  0  1.050468  0
H  H29  1  0.66302694  0.73725430  0.31196476  1  0  0.152862  0  0.994524  0  0  0.170422  0  1.051159  0  0  0.173062  0  1.052099  0  0  0.081094  0.168552  0  1.050455  0
H  H30  1  0.67928866  0.23164215  0.67902205  1  0  0.142785  0  1.00546  0  0  0.15679  0  1.07105  0  0  0.159222  0  1.072214  0  0  0.075911  0.155103  0  1.070138  0
H  H31  1  0.67929600  0.76836086  0.17901847  1  0  0.142695  0  1.005452  0  0  0.156704  0  1.071043  0  0  0.15913  0  1.072215  0  0  0.075854  0.155019  0  1.070131  0
H  H32  1  0.60051207  0.36073932  0.71218006  1  0  0.148572  0  1.006278  0  0  0.16543  0  1.067993  0  0  0.167969  0  1.068699  0  0  0.081196  0.163435  0  1.067899  0
H  H33  1  0.60051638  0.63926470  0.21217726  1  0  0.148578  0  1.006314  0  0  0.165419  0  1.068058  0  0  0.16796  0  1.068759  0  0  0.08118  0.163426  0  1.067964  0
H  H34  1  0.80513166  0.48179182  0.55410716  1  0  0.155166  0  1.002107  0  0  0.171433  0  1.060061  0  0  0.173545  0  1.061937  0  0  0.081877  0.169739  0  1.059189  0
H  H35  1  0.80513584  0.51820647  0.05410614  1  0  0.155149  0  1.002146  0  0  0.171416  0  1.060089  0  0  0.173529  0  1.061963  0  0  0.08188  0.169722  0  1.059221  0
H  H36  1  0.97006829  0.45480204  0.58001048  1  0  0.143899  0  1.019814  0  0  0.163255  0  1.07721  0  0  0.165689  0  1.077901  0  0  0.078742  0.161184  0  1.077467  0
H  H37  1  0.97007176  0.54519055  0.08000857  1  0  0.143926  0  1.019812  0  0  0.163256  0  1.077239  0  0  0.165688  0  1.077932  0  0  0.078763  0.161185  0  1.077496  0
H  H38  1  0.90437961  0.57810814  0.63651114  1  0  0.146647  0  1.024253  0  0  0.160091  0  1.090477  0  0  0.162979  0  1.091023  0  0  0.074937  0.157926  0  1.090289  0
H  H39  1  0.90437740  0.42189331  0.13651747  1  0  0.146651  0  1.024208  0  0  0.160098  0  1.090431  0  0  0.162987  0  1.090971  0  0  0.074924  0.157935  0  1.090242  0
H  H40  1  0.20429112  0.37488037  0.15251435  1  0  0.077326  0  0.943238  0  0  0.090028  0  1.001787  0  0  0.091735  0  1.000894  0  0  0.11892  0.088532  0  1.002879  0
H  H41  1  0.20428533  0.62511892  0.65250955  1  0  0.077341  0  0.94326  0  0  0.090057  0  1.001792  0  0  0.091761  0  1.000905  0  0  0.118953  0.088574  0  1.002869  0
H  H42  1  0.08685963  0.20729997  0.20567095  1  0  0.097727  0  1.028927  0  0  0.106317  0  1.096451  0  0  0.10987  0  1.094539  0  0  0.089363  0.103689  0  1.097975  0
H  H43  1  0.08685630  0.79269824  0.70566678  1  0  0.097695  0  1.028933  0  0  0.106284  0  1.096482  0  0  0.109841  0  1.094559  0  0  0.089346  0.103651  0  1.098017  0
H  H44  1  0.21477470  0.01805937  0.94849338  1  0  0.108577  0  0.961143  0  0  0.116772  0  1.025169  0  0  0.120369  0  1.023164  0  0  0.107827  0.114171  0  1.026813  0
H  H45  1  0.21477654  0.98194438  0.44849426  1  0  0.108584  0  0.961244  0  0  0.116752  0  1.025293  0  0  0.120349  0  1.023288  0  0  0.107824  0.11415  0  1.026934  0
H  H46  1  0.32765158  0.19118607  0.90839161  1  0  0.072079  0  0.966611  0  0  0.078205  0  1.035957  0  0  0.080716  0  1.033767  0  0  0.113558  0.076298  0  1.037687  0
H  H47  1  0.32764803  0.80881870  0.40838854  1  0  0.072112  0  0.966624  0  0  0.07821  0  1.035992  0  0  0.080729  0  1.033802  0  0  0.113539  0.076303  0  1.03772  0
H  H48  1  0.91887311  0.88032978  0.31012689  1  0  0.079281  0  0.96989  0  0  0.081466  0  1.043725  0  0  0.085037  0  1.040554  0  0  0.113159  0.078898  0  1.045878  0
H  H49  1  0.91887502  0.11966956  0.81012689  1  0  0.079292  0  0.969923  0  0  0.081483  0  1.043744  0  0  0.085055  0  1.040571  0  0  0.113163  0.078916  0  1.045897  0
H  H50  1  0.02194103  0.06076197  0.26053845  1  0  0.100685  0  0.968591  0  0  0.107674  0  1.036868  0  0  0.111174  0  1.035181  0  0  0.101864  0.105184  0  1.038307  0
H  H51  1  0.02194476  0.93923644  0.76053920  1  0  0.100734  0  0.968546  0  0  0.107752  0  1.036792  0  0  0.111257  0  1.035087  0  0  0.101877  0.105263  0  1.03823  0
H  H52  1  0.09427742  0.88548390  0.97769817  1  0  0.101655  0  0.963907  0  0  0.109755  0  1.028895  0  0  0.113387  0  1.027044  0  0  0.101646  0.107394  0  1.029813  0
H  H53  1  0.09427510  0.11451534  0.47769589  1  0  0.10166  0  0.963825  0  0  0.109741  0  1.02883  0  0  0.113372  0  1.026979  0  0  0.101636  0.107373  0  1.029753  0
H  H54  1  0.98914650  0.71618688  0.03759765  1  0  0.066253  0  1.004039  0  0  0.070335  0  1.079274  0  0  0.071954  0  1.078677  0  0  0.102113  0.06895  0  1.080162  0
H  H55  1  0.98913948  0.28380945  0.53759192  1  0  0.066234  0  1.0041  0  0  0.070369  0  1.079251  0  0  0.071987  0  1.078652  0  0  0.102117  0.068982  0  1.080147  0
H  H56  1  0.88393950  0.77244925  0.58290959  1  0  0.064006  0  0.960613  0  0  0.072905  0  1.027302  0  0  0.074974  0  1.026224  0  0  0.105899  0.071323  0  1.028267  0
H  H57  1  0.88393640  0.22755827  0.08291163  1  0  0.064007  0  0.960562  0  0  0.072952  0  1.02721  0  0  0.074984  0  1.026174  0  0  0.105912  0.071366  0  1.028181  0
H  H58  1  0.72396898  0.82168318  0.69813596  1  0  0.094478  0  0.986824  0  0  0.097702  0  1.061515  0  0  0.100271  0  1.061494  0  0  0.096787  0.095848  0  1.061798  0
H  H59  1  0.72397203  0.17831579  0.19813940  1  0  0.094494  0  0.986804  0  0  0.097682  0  1.061528  0  0  0.100252  0  1.061506  0  0  0.096755  0.095828  0  1.06181  0
H  H60  1  0.54514332  0.03925982  0.45187724  1  0  0.097715  0  0.982817  0  0  0.104196  0  1.05408  0  0  0.106795  0  1.054117  0  0  0.097766  0.102208  0  1.054464  0
H  H61  1  0.54514831  0.96073006  0.95188574  1  0  0.097655  0  0.982913  0  0  0.104123  0  1.054215  0  0  0.106722  0  1.054255  0  0  0.097764  0.102134  0  1.054596  0
H  H62  1  0.71241577  0.97956046  0.34643693  1  0  0.063835  0  0.943767  0  0  0.071407  0  1.00984  0  0  0.07358  0  1.008842  0  0  0.105301  0.069912  0  1.010449  0
H  H63  1  0.71241591  0.02044321  0.84644084  1  0  0.063809  0  0.943861  0  0  0.071394  0  1.009909  0  0  0.073566  0  1.008914  0  0  0.1053  0.069897  0  1.010518  0
H  H64  1  0.32431109  0.18908500  0.69655395  1  0  0.063752  0  0.941908  0  0  0.076373  0  0.999254  0  0  0.078457  0  0.99811  0  0  0.107748  0.074757  0  1.000304  0
H  H65  1  0.32430379  0.81091600  0.19655056  1  0  0.063737  0  0.941957  0  0  0.076342  0  0.999326  0  0  0.078424  0  0.998182  0  0  0.107706  0.074727  0  1.000376  0
H  H66  1  0.48827442  0.14114522  0.58485658  1  0  0.097784  0  0.998195  0  0  0.103009  0  1.069754  0  0  0.106478  0  1.068514  0  0  0.093066  0.100449  0  1.070875  0
H  H67  1  0.48828280  0.85885046  0.08486521  1  0  0.097847  0  0.998172  0  0  0.103056  0  1.069747  0  0  0.106526  0  1.068506  0  0  0.093065  0.100503  0  1.070864  0
H  H68  1  0.51870968  0.80353566  0.73352999  1  0  0.103566  0  0.969213  0  0  0.110625  0  1.037175  0  0  0.113602  0  1.036491  0  0  0.101338  0.108554  0  1.037681  0
H  H69  1  0.51871574  0.19646157  0.23353519  1  0  0.103603  0  0.969173  0  0  0.110646  0  1.037157  0  0  0.113618  0  1.036463  0  0  0.10134  0.108572  0  1.037667  0
H  H70  1  0.35568253  0.86678819  0.83957022  1  0  0.061106  0  0.958981  0  0  0.066353  0  1.028817  0  0  0.069542  0  1.025917  0  0  0.097064  0.064595  0  1.029837  0
H  H71  1  0.35568041  0.13321092  0.33957023  1  0  0.061138  0  0.95886  0  0  0.066384  0  1.028699  0  0  0.069573  0  1.025799  0  0  0.097059  0.064626  0  1.02972  0
C  C72  1  0.62417719  0.64685683  0.90020107  1  0  0.147205  0  3.869998  0  0  0.138188  0  4.183817  0  0  0.151285  0  4.195938  0  0  0.10329  0.129358  0  4.175436  0
C  C73  1  0.62417044  0.35314859  0.40019791  1  0  0.147158  0  3.869991  0  0  0.138106  0  4.183857  0  0  0.151203  0  4.195982  0  0  0.103219  0.129278  0  4.175473  0
C  C74  1  0.84024789  0.65040341  0.85037533  1  0  0.171392  0  3.877586  0  0  0.155863  0  4.177678  0  0  0.173444  0  4.190384  0  0  0.106824  0.144319  0  4.168436  0
C  C75  1  0.84024112  0.34959952  0.35037294  1  0  0.171332  0  3.877563  0  0  0.155774  0  4.177683  0  0  0.173357  0  4.190391  0  0  0.106819  0.144232  0  4.168439  0
C  C76  1  0.34120062  0.43152110  0.81776906  1  0  -0.689768  0  3.543988  0  0  -0.725745  0  3.772048  0  0  -0.738183  0  3.778685  0  0  -0.336103  -0.717004  0  3.76793  0
C  C77  1  0.34119298  0.56848229  0.31776383  1  0  -0.689724  0  3.543972  0  0  -0.725722  0  3.772029  0  0  -0.738167  0  3.778679  0  0  -0.336091  -0.716983  0  3.767905  0
C  C78  1  0.54263443  0.40311690  0.07130760  1  0  -0.67761  0  3.510398  0  0  -0.715343  0  3.738778  0  0  -0.728163  0  3.746619  0  0  -0.334835  -0.706132  0  3.733716  0
C  C79  1  0.54262283  0.59687751  0.57130774  1  0  -0.677503  0  3.509966  0  0  -0.715224  0  3.738293  0  0  -0.728039  0  3.746103  0  0  -0.334746  -0.706028  0  3.733257  0
C  C80  1  0.23730086  0.57351996  0.04251830  1  0  -0.697929  0  3.537935  0  0  -0.737418  0  3.766789  0  0  -0.75018  0  3.774266  0  0  -0.34479  -0.728039  0  3.761322  0
C  C81  1  0.23729428  0.42647817  0.54251769  1  0  -0.698034  0  3.537889  0  0  -0.737487  0  3.766759  0  0  -0.750263  0  3.774262  0  0  -0.34476  -0.728113  0  3.761298  0
C  C82  1  0.99542040  0.36440610  0.87660070  1  0  -0.693771  0  3.525276  0  0  -0.732717  0  3.762022  0  0  -0.745863  0  3.769833  0  0  -0.341035  -0.723461  0  3.756648  0
C  C83  1  0.99542098  0.63559453  0.37660143  1  0  -0.693786  0  3.525153  0  0  -0.7327  0  3.761906  0  0  -0.745831  0  3.769734  0  0  -0.341016  -0.723447  0  3.756539  0
C  C84  1  0.67726818  0.30047643  0.73693060  1  0  -0.693878  0  3.537121  0  0  -0.732741  0  3.77357  0  0  -0.745622  0  3.780341  0  0  -0.340079  -0.723579  0  3.768684  0
C  C85  1  0.67727208  0.69952727  0.23692686  1  0  -0.693806  0  3.537136  0  0  -0.732682  0  3.773581  0  0  -0.745553  0  3.780356  0  0  -0.340022  -0.723524  0  3.768692  0
C  C86  1  0.88733832  0.48777324  0.61264288  1  0  -0.691992  0  3.508374  0  0  -0.728255  0  3.738775  0  0  -0.741353  0  3.745877  0  0  -0.339591  -0.71899  0  3.734575  0
C  C87  1  0.88734152  0.51222901  0.11264255  1  0  -0.692026  0  3.50841  0  0  -0.72826  0  3.73884  0  0  -0.74136  0  3.745956  0  0  -0.339614  -0.718998  0  3.734643  0
C  C88  1  0.20498691  0.29376168  0.10934054  1  0  0.12983  0  3.707039  0  0  0.100523  0  3.954553  0  0  0.106836  0  3.972981  0  0  0.052332  0.096621  0  3.941699  0
C  C89  1  0.20498279  0.70623861  0.60933571  1  0  0.12966  0  3.70731  0  0  0.100354  0  3.954862  0  0  0.106657  0  3.973292  0  0  0.052211  0.096441  0  3.942001  0
C  C90  1  0.13946140  0.19802514  0.13929313  1  0  -0.151685  0  3.700943  0  0  -0.170716  0  3.947784  0  0  -0.178088  0  3.968487  0  0  -0.079018  -0.165784  0  3.933808  0
C  C91  1  0.13945819  0.80197628  0.63929049  1  0  -0.151621  0  3.700842  0  0  -0.170672  0  3.947735  0  0  -0.178046  0  3.968445  0  0  -0.078978  -0.165744  0  3.933766  0
C  C92  1  0.13909836  0.09408493  0.08302942  1  0  0.103557  0  3.729717  0  0  0.113935  0  3.960667  0  0  0.117631  0  3.982273  0  0  0.01861  0.111428  0  3.94629  0
C  C93  1  0.13909801  0.90591752  0.58302912  1  0  0.103579  0  3.729658  0  0  0.113929  0  3.96064  0  0  0.117629  0  3.982246  0  0  0.018566  0.111426  0  3.946264  0
C  C94  1  0.20850955  0.09355445  0.99792039  1  0  -0.145801  0  3.682339  0  0  -0.165604  0  3.934654  0  0  -0.172629  0  3.955461  0  0  -0.076547  -0.161439  0  3.921415  0
C  C95  1  0.20850977  0.90644911  0.49792129  1  0  -0.145806  0  3.682418  0  0  -0.165575  0  3.934727  0  0  -0.172598  0  3.955532  0  0  -0.076506  -0.16141  0  3.921486  0
C  C96  1  0.27289376  0.19289566  0.97393889  1  0  0.125288  0  3.721681  0  0  0.092103  0  3.978544  0  0  0.098834  0  3.995821  0  0  0.051087  0.087921  0  3.966917  0
C  C97  1  0.27289208  0.80710935  0.47393676  1  0  0.12513  0  3.721601  0  0  0.091986  0  3.978442  0  0  0.098695  0  3.995733  0  0  0.051041  0.087805  0  3.966809  0
C  C98  1  0.95849210  0.88588158  0.23630600  1  0  0.124139  0  3.687239  0  0  0.099905  0  3.930205  0  0  0.105863  0  3.947957  0  0  0.050073  0.096426  0  3.91815  0
C  C99  1  0.95849115  0.11411742  0.73630653  1  0  0.124214  0  3.687384  0  0  0.100005  0  3.930345  0  0  0.105961  0  3.948098  0  0  0.05013  0.096524  0  3.918289  0
C  C100  1  0.01752625  0.98659625  0.20812611  1  0  -0.141258  0  3.683766  0  0  -0.162363  0  3.934816  0  0  -0.169229  0  3.955333  0  0  -0.077016  -0.158444  0  3.922006  0
C  C101  1  0.01752810  0.01340313  0.70812402  1  0  -0.141393  0  3.683859  0  0  -0.162544  0  3.93489  0  0  -0.169415  0  3.955418  0  0  -0.077049  -0.158629  0  3.92208  0
C  C102  1  0.07085088  0.99060662  0.11427790  1  0  0.096979  0  3.741828  0  0  0.106293  0  3.975378  0  0  0.110236  0  3.997031  0  0  0.013905  0.104022  0  3.960735  0
C  C103  1  0.07084991  0.00939172  0.61427788  1  0  0.096979  0  3.741918  0  0  0.106333  0  3.975422  0  0  0.110275  0  3.997079  0  0  0.013919  0.104065  0  3.960778  0
C  C104  1  0.05845267  0.89061737  0.05257549  1  0  -0.15268  0  3.704989  0  0  -0.172164  0  3.955926  0  0  -0.179786  0  3.976815  0  0  -0.08147  -0.167218  0  3.941525  0
C  C105  1  0.05845166  0.10938192  0.55257449  1  0  -0.152658  0  3.704904  0  0  -0.17212  0  3.95582  0  0  -0.179741  0  3.976707  0  0  -0.081425  -0.16717  0  3.941417  0
C  C106  1  0.99781113  0.79352038  0.08621595  1  0  0.11714  0  3.753549  0  0  0.085242  0  4.008189  0  0  0.09153  0  4.027465  0  0  0.042727  0.081346  0  3.99493  0
C  C107  1  0.99780625  0.20647936  0.58621211  1  0  0.117151  0  3.753456  0  0  0.085227  0  4.008061  0  0  0.091517  0  4.027334  0  0  0.042701  0.081334  0  3.994796  0
C  C108  1  0.80698580  0.83120969  0.55549997  1  0  0.12227  0  3.742057  0  0  0.099612  0  3.994604  0  0  0.104851  0  4.012766  0  0  0.041567  0.096253  0  3.982643  0
C  C109  1  0.80698595  0.16879555  0.05550395  1  0  0.122295  0  3.741884  0  0  0.099597  0  3.994436  0  0  0.104864  0  4.012609  0  0  0.041568  0.096239  0  3.982475  0
C  C110  1  0.71654200  0.85859456  0.62038472  1  0  -0.159239  0  3.713869  0  0  -0.172617  0  3.95409  0  0  -0.179537  0  3.975781  0  0  -0.085458  -0.168334  0  3.940364  0
C  C111  1  0.71654564  0.14140630  0.12038752  1  0  -0.159318  0  3.71395  0  0  -0.172698  0  3.954172  0  0  -0.179617  0  3.975846  0  0  -0.085486  -0.168419  0  3.940448  0
C  C112  1  0.61882349  0.93504764  0.58480844  1  0  0.084302  0  3.774034  0  0  0.099151  0  3.9966  0  0  0.102235  0  4.01836  0  0  0.003887  0.097042  0  3.982097  0
C  C113  1  0.61882744  0.06494995  0.08481528  1  0  0.084418  0  3.773907  0  0  0.099338  0  3.996306  0  0  0.102424  0  4.018065  0  0  0.004021  0.097228  0  3.981805  0
C  C114  1  0.61853443  0.97975171  0.48436263  1  0  -0.163192  0  3.720612  0  0  -0.181278  0  3.963707  0  0  -0.188305  0  3.985827  0  0  -0.087822  -0.176632  0  3.949021  0
C  C115  1  0.61853833  0.02024561  0.98436686  1  0  -0.163241  0  3.720353  0  0  -0.181362  0  3.963436  0  0  -0.188391  0  3.985562  0  0  -0.087906  -0.176714  0  3.948746  0
C  C116  1  0.71269001  0.94623377  0.42525057  1  0  0.109953  0  3.775699  0  0  0.087167  0  4.033335  0  0  0.092324  0  4.0512  0  0  0.035782  0.084017  0  4.020713  0
C  C117  1  0.71268951  0.05376794  0.92525435  1  0  0.109969  0  3.77567  0  0  0.087179  0  4.033298  0  0  0.092335  0  4.051164  0  0  0.035792  0.084033  0  4.020672  0
C  C118  1  0.37009442  0.10413086  0.70348357  1  0  0.118215  0  3.752863  0  0  0.097071  0  4.006719  0  0  0.102133  0  4.024818  0  0  0.038585  0.093929  0  3.994275  0
C  C119  1  0.37009549  0.89586527  0.20348534  1  0  0.118219  0  3.753024  0  0  0.097076  0  4.006864  0  0  0.102139  0  4.024962  0  0  0.038602  0.093933  0  3.994423  0
C  C120  1  0.46159033  0.07666527  0.63976952  1  0  -0.159282  0  3.712193  0  0  -0.172573  0  3.949711  0  0  -0.17959  0  3.971267  0  0  -0.086582  -0.167897  0  3.935245  0
C  C121  1  0.46159647  0.92332917  0.13977860  1  0  -0.159185  0  3.712279  0  0  -0.172463  0  3.949707  0  0  -0.179483  0  3.971271  0  0  -0.086487  -0.167793  0  3.935236  0
C  C122  1  0.51992977  0.96740768  0.64959372  1  0  0.087256  0  3.77001  0  0  0.099819  0  3.997436  0  0  0.102776  0  4.019627  0  0  0.00732  0.09803  0  3.982256  0
C  C123  1  0.51993909  0.03258806  0.14960185  1  0  0.087039  0  3.770331  0  0  0.09967  0  3.997594  0  0  0.102624  0  4.019789  0  0  0.007244  0.097884  0  3.982414  0
C  C124  1  0.47991930  0.89078041  0.72294602  1  0  -0.163014  0  3.709902  0  0  -0.183142  0  3.959846  0  0  -0.190187  0  3.982271  0  0  -0.086245  -0.178384  0  3.944665  0
C  C125  1  0.47992552  0.10921654  0.22295219  1  0  -0.162897  0  3.710014  0  0  -0.18309  0  3.960024  0  0  -0.190116  0  3.98243  0  0  -0.086178  -0.178334  0  3.944845  0
C  C126  1  0.38693992  0.92663059  0.78255764  1  0  0.106594  0  3.779138  0  0  0.085305  0  4.038293  0  0  0.090227  0  4.056139  0  0  0.031639  0.08216  0  4.026046  0
C  C127  1  0.38694198  0.07336719  0.28255891  1  0  0.106484  0  3.779241  0  0  0.085192  0  4.038399  0  0  0.090114  0  4.056242  0  0  0.031576  0.082049  0  4.026149  0
S  S128  1  0.74680885  0.74868061  0.91091144  1  0  0.031102  0  2.465803  0  0  0.045469  0  2.789825  0  0  0.045628  0  2.78842  0  0  0.080719  0.044947  0  2.790819  0
S  S129  1  0.74679933  0.25132141  0.41091056  1  0  0.031111  0  2.465694  0  0  0.0455  0  2.789717  0  0  0.045658  0  2.788315  0  0  0.080691  0.044978  0  2.79071  0
S  S130  1  0.48399073  0.67892423  0.94675804  1  0  -0.426572  0  2.068732  0  0  -0.39047  0  2.391607  0  0  -0.405811  0  2.38775  0  0  -0.154641  -0.37967  0  2.393372  0
S  S131  1  0.48398173  0.32107821  0.44675014  1  0  -0.426529  0  2.068743  0  0  -0.390409  0  2.391603  0  0  -0.405765  0  2.387756  0  0  -0.154604  -0.379611  0  2.393366  0
S  S132  1  0.98976575  0.67841257  0.82937659  1  0  -0.474916  0  1.933046  0  0  -0.454462  0  2.232824  0  0  -0.470519  0  2.229173  0  0  -0.218965  -0.442591  0  2.23423  0
S  S133  1  0.98975872  0.32158207  0.32937347  1  0  -0.474958  0  1.932934  0  0  -0.454505  0  2.232708  0  0  -0.470555  0  2.229057  0  0  -0.218993  -0.442635  0  2.234113  0
N  N134  1  0.65424365  0.55014083  0.85483427  1  0  -0.254279  0  3.046013  0  0  -0.230118  0  3.31391  0  0  -0.238335  0  3.329641  0  0  -0.22403  -0.224406  0  3.303455  0
N  N135  1  0.65424158  0.44986408  0.35483362  1  0  -0.254283  0  3.046019  0  0  -0.230111  0  3.313906  0  0  -0.238329  0  3.329641  0  0  -0.223986  -0.224399  0  3.303451  0
N  N136  1  0.77407361  0.55264805  0.82729015  1  0  -0.287433  0  3.242156  0  0  -0.205749  0  3.494073  0  0  -0.222702  0  3.513822  0  0  -0.218427  -0.194607  0  3.480657  0
N  N137  1  0.77407340  0.44735616  0.32728966  1  0  -0.287382  0  3.242242  0  0  -0.205663  0  3.494133  0  0  -0.222617  0  3.513882  0  0  -0.218422  -0.194523  0  3.480717  0
N  N138  1  0.27109117  0.29252694  0.02764158  1  0  -0.320913  0  3.230684  0  0  -0.241328  0  3.471019  0  0  -0.25771  0  3.492316  0  0  -0.290318  -0.230073  0  3.455971  0
N  N139  1  0.27108616  0.70747498  0.52763898  1  0  -0.320693  0  3.230811  0  0  -0.24113  0  3.471134  0  0  -0.257494  0  3.492426  0  0  -0.290215  -0.229865  0  3.456081  0
N  N140  1  0.94886429  0.78975306  0.17666549  1  0  -0.325276  0  3.212244  0  0  -0.247488  0  3.451091  0  0  -0.263881  0  3.471843  0  0  -0.291812  -0.236375  0  3.436421  0
N  N141  1  0.94886326  0.21024429  0.67666504  1  0  -0.325337  0  3.212216  0  0  -0.247588  0  3.451109  0  0  -0.263981  0  3.471863  0  0  -0.291858  -0.236472  0  3.436435  0
N  N142  1  0.80662174  0.87337581  0.45911189  1  0  -0.321677  0  3.090847  0  0  -0.278529  0  3.352225  0  0  -0.289879  0  3.367995  0  0  -0.318168  -0.270577  0  3.341048  0
N  N143  1  0.80662095  0.12662916  0.95911472  1  0  -0.321622  0  3.090593  0  0  -0.278478  0  3.351998  0  0  -0.289824  0  3.367754  0  0  -0.318163  -0.270526  0  3.340818  0
N  N144  1  0.33261852  0.03179745  0.77490630  1  0  -0.328252  0  3.096414  0  0  -0.290335  0  3.36428  0  0  -0.301532  0  3.380892  0  0  -0.326796  -0.282708  0  3.353006  0
N  N145  1  0.33261457  0.96820252  0.27490517  1  0  -0.328283  0  3.096445  0  0  -0.290353  0  3.3643  0  0  -0.301551  0  3.380912  0  0  -0.326805  -0.282725  0  3.353022  0
