# generated using pymatgen
data_BaH4C9(NO2)2
_symmetry_space_group_name_H-M   'P 1'
_cell_length_a   6.90957384
_cell_length_b   9.46318848
_cell_length_c   14.57576449
_cell_angle_alpha   86.22271712
_cell_angle_beta   80.41442078
_cell_angle_gamma   88.27955597
_symmetry_Int_Tables_number   1
_chemical_formula_structural   BaH4C9(NO2)2
_chemical_formula_sum   'Ba4 H16 C36 N8 O16'
_cell_volume   937.53574780
_cell_formula_units_Z   4
loop_
 _symmetry_equiv_pos_site_id
 _symmetry_equiv_pos_as_xyz
  1  'x, y, z'
loop_
 _atom_site_type_symbol
 _atom_site_label
 _atom_site_symmetry_multiplicity
 _atom_site_fract_x
 _atom_site_fract_y
 _atom_site_fract_z
 _atom_site_occupancy
 _atom_site_hle17_bader_spin_density
 _atom_site_hle17_ddec_charge
 _atom_site_hle17_ddec_spin_density
 _atom_site_hle17_ddec_sum_bond_order
 _atom_site_hle17_magmom
 _atom_site_hse06_10hf_bader_spin_density
 _atom_site_hse06_10hf_ddec_charge
 _atom_site_hse06_10hf_ddec_spin_density
 _atom_site_hse06_10hf_ddec_sum_bond_order
 _atom_site_hse06_10hf_magmom
 _atom_site_hse06_bader_spin_density
 _atom_site_hse06_ddec_charge
 _atom_site_hse06_ddec_spin_density
 _atom_site_hse06_ddec_sum_bond_order
 _atom_site_hse06_magmom
 _atom_site_pbe_bader_spin_density
 _atom_site_pbe_cm5_charge
 _atom_site_pbe_ddec_charge
 _atom_site_pbe_ddec_spin_density
 _atom_site_pbe_ddec_sum_bond_order
 _atom_site_pbe_magmom
Ba  Ba0  1  0.70865592  0.92366593  0.08405977  1  0  1.677191  0  1.18175  0  0  1.54351  0  1.569528  0  0  1.582721  0  1.527064  0  0  1.052454  1.514284  0  1.600114  0
Ba  Ba1  1  0.29134742  0.07633455  0.91593847  1  0  1.677186  0  1.181741  0  0  1.54348  0  1.569549  0  0  1.582708  0  1.527055  0  0  1.052457  1.514255  0  1.60014  0
Ba  Ba2  1  0.20686622  0.59556056  0.05605792  1  0  1.695772  0  1.073196  0  0  1.553518  0  1.452877  0  0  1.595683  0  1.409359  0  0  0.982449  1.521294  0  1.484572  0
Ba  Ba3  1  0.79313710  0.40443887  0.94394174  1  0  1.695736  0  1.073267  0  0  1.553493  0  1.45293  0  0  1.595659  0  1.409407  0  0  0.982442  1.521271  0  1.484627  0
H  H4  1  0.74345851  0.15441601  0.69474761  1  0  0.114645  0  0.955981  0  0  0.124198  0  1.018872  0  0  0.127854  0  1.016527  0  0  0.111978  0.121527  0  1.020675  0
H  H5  1  0.25654334  0.84558554  0.30525070  1  0  0.114673  0  0.955993  0  0  0.124218  0  1.018882  0  0  0.12788  0  1.016534  0  0  0.111973  0.121546  0  1.020684  0
H  H6  1  0.94911496  0.64023930  0.72185149  1  0  0.109864  0  0.949155  0  0  0.119772  0  1.011139  0  0  0.123072  0  1.009285  0  0  0.113858  0.11741  0  1.01239  0
H  H7  1  0.05088404  0.35975801  0.27814788  1  0  0.109876  0  0.949232  0  0  0.119775  0  1.011216  0  0  0.123073  0  1.009364  0  0  0.113852  0.117412  0  1.012468  0
H  H8  1  0.70831616  0.08609179  0.51186345  1  0  0.290079  0  0.966205  0  0  0.260495  0  1.041812  0  0  0.270519  0  1.034406  0  0  0.293563  0.251963  0  1.048938  0
H  H9  1  0.29168129  0.91390870  0.48813590  1  0  0.290043  0  0.96625  0  0  0.260501  0  1.041803  0  0  0.270521  0  1.034391  0  0  0.293565  0.251971  0  1.048928  0
H  H10  1  0.74707032  0.85017684  0.42413701  1  0  0.076272  0  0.926815  0  0  0.090159  0  0.985049  0  0  0.092629  0  0.981411  0  0  0.134843  0.088763  0  0.987067  0
H  H11  1  0.25292420  0.14982259  0.57586328  1  0  0.076282  0  0.926794  0  0  0.090199  0  0.984995  0  0  0.092669  0  0.981355  0  0  0.13485  0.088797  0  0.987022  0
H  H12  1  0.75173607  0.67154182  0.31638819  1  0  0.107617  0  0.949704  0  0  0.118586  0  1.010801  0  0  0.1225  0  1.008102  0  0  0.10945  0.115755  0  1.01269  0
H  H13  1  0.24826720  0.32845761  0.68361284  1  0  0.10758  0  0.949758  0  0  0.118541  0  1.010869  0  0  0.122455  0  1.008167  0  0  0.109424  0.115709  0  1.012758  0
H  H14  1  0.57433008  0.15869223  0.32342867  1  0  0.107979  0  0.951153  0  0  0.117836  0  1.012427  0  0  0.121637  0  1.009619  0  0  0.109284  0.115303  0  1.013953  0
H  H15  1  0.42567170  0.84130931  0.67657170  1  0  0.107967  0  0.951096  0  0  0.117854  0  1.012355  0  0  0.121646  0  1.009557  0  0  0.109303  0.115321  0  1.013881  0
H  H16  1  0.79676546  0.58734635  0.51176806  1  0  0.289064  0  0.964931  0  0  0.258039  0  1.044262  0  0  0.26788  0  1.037044  0  0  0.293776  0.249567  0  1.051208  0
H  H17  1  0.20323341  0.41265307  0.48823329  1  0  0.289044  0  0.964908  0  0  0.257995  0  1.044281  0  0  0.267836  0  1.037065  0  0  0.293757  0.249522  0  1.051227  0
H  H18  1  0.75722073  0.35377930  0.60872179  1  0  0.079461  0  0.925354  0  0  0.094006  0  0.982177  0  0  0.096536  0  0.978409  0  0  0.136178  0.092302  0  0.98467  0
H  H19  1  0.24277518  0.64621907  0.39128119  1  0  0.079437  0  0.925404  0  0  0.094007  0  0.982207  0  0  0.096515  0  0.978465  0  0  0.136182  0.092304  0  0.9847  0
C  C20  1  0.55048712  0.29731610  0.15951496  1  0  0.69185  0  3.903501  0  0  0.642253  0  4.201158  0  0  0.676526  0  4.192362  0  0  0.226443  0.618603  0  4.206725  0
C  C21  1  0.44951471  0.70268333  0.84048549  1  0  0.69185  0  3.9034  0  0  0.642267  0  4.201034  0  0  0.676539  0  4.192237  0  0  0.226466  0.618616  0  4.206604  0
C  C22  1  0.84371257  0.98224235  0.78056721  1  0  -0.046254  0  3.740359  0  0  -0.035438  0  3.979312  0  0  -0.036712  0  3.997718  0  0  0.002217  -0.034602  0  3.967178  0
C  C23  1  0.15628930  0.01776026  0.21942968  1  0  -0.046263  0  3.74025  0  0  -0.035442  0  3.979247  0  0  -0.036708  0  3.997652  0  0  0.002136  -0.034608  0  3.967108  0
C  C24  1  0.78972807  0.04340813  0.69885416  1  0  -0.184132  0  3.747481  0  0  -0.212517  0  4.001685  0  0  -0.216479  0  4.01977  0  0  -0.089344  -0.209907  0  3.9898  0
C  C25  1  0.21027236  0.95659235  0.30114360  1  0  -0.184158  0  3.747498  0  0  -0.212521  0  4.001688  0  0  -0.216489  0  4.019776  0  0  -0.089287  -0.209909  0  3.989798  0
C  C26  1  0.79309684  0.95611122  0.62539563  1  0  0.156362  0  3.834815  0  0  0.1473  0  4.082285  0  0  0.15279  0  4.104534  0  0  0.094305  0.143722  0  4.067336  0
C  C27  1  0.20689770  0.04388821  0.37460397  1  0  0.156292  0  3.834737  0  0  0.14725  0  4.082228  0  0  0.152726  0  4.104474  0  0  0.094302  0.143673  0  4.067277  0
C  C28  1  0.84864780  0.81052077  0.63200881  1  0  0.134442  0  3.803903  0  0  0.132349  0  4.059662  0  0  0.133593  0  4.082354  0  0  0.083959  0.131267  0  4.044273  0
C  C29  1  0.15134520  0.18947866  0.36799296  1  0  0.134452  0  3.803907  0  0  0.13234  0  4.059702  0  0  0.133593  0  4.082379  0  0  0.083896  0.131259  0  4.044308  0
C  C30  1  0.90280062  0.75087040  0.71457833  1  0  -0.10764  0  3.680124  0  0  -0.139054  0  3.935217  0  0  -0.137736  0  3.952859  0  0  -0.069497  -0.139609  0  3.923273  0
C  C31  1  0.09719682  0.24913115  0.28542029  1  0  -0.107681  0  3.680179  0  0  -0.139069  0  3.935288  0  0  -0.137743  0  3.952922  0  0  -0.069519  -0.139622  0  3.923344  0
C  C32  1  0.90143095  0.83732808  0.78904010  1  0  -0.091256  0  3.714104  0  0  -0.080848  0  3.955571  0  0  -0.088692  0  3.977076  0  0  -0.008991  -0.07585  0  3.941397  0
C  C33  1  0.09856935  0.16267452  0.21095964  1  0  -0.091242  0  3.714025  0  0  -0.080855  0  3.955568  0  0  -0.088713  0  3.977075  0  0  -0.008919  -0.075862  0  3.941395  0
C  C34  1  0.77459864  0.85886499  0.49472459  1  0  0.259766  0  3.695671  0  0  0.19544  0  3.98458  0  0  0.212077  0  3.993419  0  0  0.154474  0.183758  0  3.97872  0
C  C35  1  0.22539884  0.14113338  0.50527553  1  0  0.259813  0  3.695679  0  0  0.195494  0  3.984598  0  0  0.21212  0  3.993436  0  0  0.154525  0.183815  0  3.978739  0
C  C36  1  0.70963564  0.56087466  0.31977131  1  0  -0.194409  0  3.74327  0  0  -0.221462  0  4.000444  0  0  -0.225581  0  4.018004  0  0  -0.093583  -0.218606  0  3.988924  0
C  C37  1  0.29036478  0.43912370  0.68022860  1  0  -0.194297  0  3.743427  0  0  -0.221331  0  4.000601  0  0  -0.225452  0  4.018169  0  0  -0.093527  -0.218476  0  3.989077  0
C  C38  1  0.64990158  0.50383913  0.24322519  1  0  -0.029678  0  3.718559  0  0  -0.019291  0  3.959332  0  0  -0.019875  0  3.977248  0  0  0.001921  -0.019259  0  3.948102  0
C  C39  1  0.35009880  0.49616029  0.75677468  1  0  -0.029752  0  3.718747  0  0  -0.019378  0  3.959509  0  0  -0.019965  0  3.977429  0  0  0.001921  -0.019345  0  3.948277  0
C  C40  1  0.60152580  0.35906535  0.24469185  1  0  -0.098504  0  3.730787  0  0  -0.086806  0  3.971763  0  0  -0.094886  0  3.994233  0  0  -0.017151  -0.081622  0  3.957206  0
C  C41  1  0.39846859  0.64093514  0.75531115  1  0  -0.098534  0  3.730936  0  0  -0.086825  0  3.971906  0  0  -0.094904  0  3.994373  0  0  -0.017125  -0.081639  0  3.957346  0
C  C42  1  0.60930359  0.26990923  0.32427614  1  0  -0.11729  0  3.724559  0  0  -0.149236  0  3.980085  0  0  -0.147946  0  3.997639  0  0  -0.079325  -0.149911  0  3.968191  0
C  C43  1  0.39069519  0.73009020  0.67572796  1  0  -0.117133  0  3.724342  0  0  -0.14912  0  3.979872  0  0  -0.147821  0  3.997431  0  0  -0.079314  -0.149788  0  3.967986  0
C  C44  1  0.66040522  0.32659369  0.40250104  1  0  0.12862  0  3.839984  0  0  0.127814  0  4.094696  0  0  0.129203  0  4.117265  0  0  0.07882  0.12672  0  4.079656  0
C  C45  1  0.33959509  0.67340574  0.59750089  1  0  0.128539  0  3.83979  0  0  0.127754  0  4.094547  0  0  0.129145  0  4.117114  0  0  0.07881  0.126635  0  4.079542  0
C  C46  1  0.71271512  0.47106938  0.39952396  1  0  0.16011  0  3.804998  0  0  0.149565  0  4.053823  0  0  0.155415  0  4.075659  0  0  0.091708  0.145555  0  4.039126  0
C  C47  1  0.28728527  0.52892899  0.60047664  1  0  0.160081  0  3.805074  0  0  0.149502  0  4.053943  0  0  0.15535  0  4.075782  0  0  0.091667  0.145503  0  4.039244  0
C  C48  1  0.73221661  0.36544825  0.53695447  1  0  0.26123  0  3.698595  0  0  0.195186  0  3.991029  0  0  0.212441  0  3.999343  0  0  0.156232  0.183189  0  3.985638  0
C  C49  1  0.26778080  0.63455012  0.46304772  1  0  0.261281  0  3.698587  0  0  0.195227  0  3.991025  0  0  0.212502  0  3.999339  0  0  0.156245  0.18323  0  3.98563  0
C  C50  1  0.63612359  0.60406033  0.15993490  1  0  0.674266  0  3.95475  0  0  0.624201  0  4.252395  0  0  0.658935  0  4.240913  0  0  0.215382  0.600312  0  4.259629  0
C  C51  1  0.36388274  0.39593910  0.84006249  1  0  0.674423  0  3.954214  0  0  0.624383  0  4.251827  0  0  0.659116  0  4.240349  0  0  0.215489  0.600492  0  4.259066  0
C  C52  1  0.83284598  0.08161549  0.85732095  1  0  0.705423  0  3.919851  0  0  0.653187  0  4.215189  0  0  0.689  0  4.202257  0  0  0.229739  0.628535  0  4.223443  0
C  C53  1  0.16715738  0.91838605  0.14267588  1  0  0.70562  0  3.919858  0  0  0.653347  0  4.215263  0  0  0.689155  0  4.202336  0  0  0.229775  0.628701  0  4.223509  0
C  C54  1  0.96615350  0.77822222  0.87727018  1  0  0.689044  0  3.891241  0  0  0.640628  0  4.184046  0  0  0.675655  0  4.174272  0  0  0.235077  0.616524  0  4.190036  0
C  C55  1  0.03384679  0.22178145  0.12272883  1  0  0.689186  0  3.890952  0  0  0.64075  0  4.183787  0  0  0.675785  0  4.17401  0  0  0.235146  0.616648  0  4.189776  0
N  N56  1  0.74670410  0.98304888  0.53762602  1  0  -0.347802  0  3.395093  0  0  -0.282456  0  3.637254  0  0  -0.301534  0  3.649757  0  0  -0.377907  -0.268708  0  3.629692  0
N  N57  1  0.25329191  0.01694948  0.46237421  1  0  -0.347699  0  3.394995  0  0  -0.282415  0  3.637189  0  0  -0.301467  0  3.649677  0  0  -0.377909  -0.268673  0  3.629631  0
N  N58  1  0.83468283  0.75258843  0.54785628  1  0  -0.416883  0  3.057309  0  0  -0.373184  0  3.327022  0  0  -0.388846  0  3.341317  0  0  -0.334432  -0.361088  0  3.317401  0
N  N59  1  0.16531316  0.24740994  0.45214463  1  0  -0.416912  0  3.057519  0  0  -0.373216  0  3.327269  0  0  -0.388883  0  3.341564  0  0  -0.334411  -0.361118  0  3.317643  0
N  N60  1  0.75805563  0.49148886  0.48639311  1  0  -0.342614  0  3.387797  0  0  -0.277121  0  3.631835  0  0  -0.296218  0  3.644552  0  0  -0.375191  -0.263172  0  3.623981  0
N  N61  1  0.24194620  0.50850950  0.51360807  1  0  -0.342642  0  3.387768  0  0  -0.277119  0  3.631828  0  0  -0.296214  0  3.644535  0  0  -0.375209  -0.263172  0  3.623977  0
N  N62  1  0.67395013  0.26341075  0.49015628  1  0  -0.430404  0  3.082042  0  0  -0.389024  0  3.358077  0  0  -0.405146  0  3.371783  0  0  -0.341883  -0.377237  0  3.349425  0
N  N63  1  0.32604725  0.73658868  0.50984587  1  0  -0.430408  0  3.081967  0  0  -0.389079  0  3.35804  0  0  -0.405202  0  3.371736  0  0  -0.341889  -0.377285  0  3.349394  0
O  O64  1  0.48125209  0.68257224  0.16491824  1  0  -0.749987  0  1.966991  0  0  -0.692026  0  2.207178  0  0  -0.719695  0  2.198269  0  0  -0.390045  -0.67262  0  2.212666  0
O  O65  1  0.51875265  0.31742824  0.83508196  1  0  -0.749989  0  1.966858  0  0  -0.69203  0  2.207017  0  0  -0.719698  0  2.198101  0  0  -0.390049  -0.67263  0  2.212519  0
O  O66  1  0.78086474  0.61772772  0.09350187  1  0  -0.749539  0  2.027593  0  0  -0.690258  0  2.276463  0  0  -0.716654  0  2.266418  0  0  -0.366529  -0.670922  0  2.283291  0
O  O67  1  0.21913719  0.38227170  0.90649583  1  0  -0.749675  0  2.027261  0  0  -0.690393  0  2.276111  0  0  -0.71679  0  2.266071  0  0  -0.366629  -0.671053  0  2.28294  0
O  O68  1  0.96260757  0.17689983  0.84613133  1  0  -0.749456  0  1.995242  0  0  -0.690147  0  2.239008  0  0  -0.717816  0  2.229183  0  0  -0.405147  -0.670506  0  2.244939  0
O  O69  1  0.03739721  0.82310172  0.15386677  1  0  -0.7496  0  1.995288  0  0  -0.690283  0  2.239097  0  0  -0.717947  0  2.229272  0  0  -0.405199  -0.670644  0  2.245027  0
O  O70  1  0.68794851  0.07642530  0.92434486  1  0  -0.775391  0  2.052743  0  0  -0.712868  0  2.312726  0  0  -0.73954  0  2.299509  0  0  -0.418724  -0.69338  0  2.321847  0
O  O71  1  0.31205341  0.92357413  0.07565284  1  0  -0.775459  0  2.052882  0  0  -0.712916  0  2.312891  0  0  -0.739589  0  2.299678  0  0  -0.418719  -0.693431  0  2.322008  0
O  O72  1  0.98825290  0.64545625  0.89105999  1  0  -0.732248  0  2.038458  0  0  -0.673811  0  2.293777  0  0  -0.700853  0  2.284951  0  0  -0.378307  -0.654394  0  2.299343  0
O  O73  1  0.01174003  0.35454742  0.10894023  1  0  -0.73236  0  2.038373  0  0  -0.673902  0  2.293697  0  0  -0.70095  0  2.28487  0  0  -0.378345  -0.654476  0  2.299239  0
O  O74  1  0.49772508  0.38293159  0.09526848  1  0  -0.768911  0  1.961739  0  0  -0.703005  0  2.209043  0  0  -0.730168  0  2.198575  0  0  -0.39507  -0.68305  0  2.215322  0
O  O75  1  0.50227819  0.61706889  0.90473183  1  0  -0.768947  0  1.961731  0  0  -0.703057  0  2.209041  0  0  -0.730215  0  2.198571  0  0  -0.395102  -0.6831  0  2.215323  0
O  O76  1  0.99994087  0.86633415  0.93601257  1  0  -0.766176  0  2.023278  0  0  -0.701165  0  2.273189  0  0  -0.728523  0  2.263781  0  0  -0.389792  -0.681206  0  2.279025  0
O  O77  1  0.00006091  0.13367057  0.06398491  1  0  -0.766214  0  2.023181  0  0  -0.701227  0  2.273166  0  0  -0.728555  0  2.26369  0  0  -0.38982  -0.68127  0  2.278999  0
O  O78  1  0.56809488  0.16474792  0.15387548  1  0  -0.710445  0  1.993837  0  0  -0.658265  0  2.248089  0  0  -0.68373  0  2.239034  0  0  -0.377188  -0.640644  0  2.254411  0
O  O79  1  0.43191578  0.83525257  0.84612293  1  0  -0.710435  0  1.993715  0  0  -0.658257  0  2.247956  0  0  -0.683723  0  2.238898  0  0  -0.377218  -0.640638  0  2.254287  0
