# generated using pymatgen
data_Zr3H11C33N3O16
_symmetry_space_group_name_H-M   'P 1'
_cell_length_a   14.35684748
_cell_length_b   14.37640319
_cell_length_c   14.38151937
_cell_angle_alpha   87.81221917
_cell_angle_beta   87.78136171
_cell_angle_gamma   87.78982632
_symmetry_Int_Tables_number   1
_chemical_formula_structural   Zr3H11C33N3O16
_chemical_formula_sum   'Zr6 H22 C66 N6 O32'
_cell_volume   2961.91075340
_cell_formula_units_Z   2
loop_
 _symmetry_equiv_pos_site_id
 _symmetry_equiv_pos_as_xyz
  1  'x, y, z'
loop_
 _atom_site_type_symbol
 _atom_site_label
 _atom_site_symmetry_multiplicity
 _atom_site_fract_x
 _atom_site_fract_y
 _atom_site_fract_z
 _atom_site_occupancy
 _atom_site_pbe_bader_charge
 _atom_site_pbe_bader_spin_density
 _atom_site_pbe_cm5_charge
 _atom_site_pbe_ddec_charge
 _atom_site_pbe_ddec_spin_density
 _atom_site_pbe_ddec_sum_bond_order
 _atom_site_pbe_magmom
Zr  Zr0  1  0.76873800  0.97055221  0.84302390  1  2.615953  0  1.602359  2.316708  0  2.764192  0
Zr  Zr1  1  0.75295236  0.79766329  0.03181904  1  2.616159  0  1.602277  2.317382  0  2.761619  0
Zr  Zr2  1  0.99671377  0.01256977  0.90044493  1  2.616782  0  1.608395  2.312627  0  2.807123  0
Zr  Zr3  1  0.94202435  0.78178428  0.85864436  1  2.616028  0  1.60244  2.317661  0  2.76291  0
Zr  Zr4  1  0.81064481  0.02534593  0.07362448  1  2.615252  0  1.608137  2.312839  0  2.80599  0
Zr  Zr5  1  0.98403303  0.83941507  0.08616554  1  2.613675  0  1.608425  2.312064  0  2.80897  0
H  H6  1  0.12357288  0.18256566  0.56078961  1  0.112045  0  0.126396  0.151304  0  0.966443  0
H  H7  1  0.14246364  0.17067698  0.37324075  1  0.106288  0  0.10572  0.124332  0  1.047384  0
H  H8  1  0.63628100  0.62526578  0.37064234  1  0.126739  0  0.124578  0.149061  0  0.968453  0
H  H9  1  0.62178444  0.63569531  0.55868337  1  0.091972  0  0.107381  0.127379  0  1.032563  0
H  H10  1  0.15463729  0.50013798  0.21435085  1  0.141407  0  0.126708  0.151845  0  0.966258  0
H  H11  1  0.14246039  0.31253108  0.23323836  1  0.107417  0  0.105774  0.125032  0  1.045857  0
H  H12  1  0.59606438  0.30974810  0.72613670  1  0.133585  0  0.124571  0.149575  0  0.969779  0
H  H13  1  0.60616363  0.49787784  0.71143063  1  0.107957  0  0.107686  0.1277  0  1.030223  0
H  H14  1  0.47106942  0.15404355  0.24552350  1  0.135869  0  0.126524  0.151244  0  0.966955  0
H  H15  1  0.28321803  0.17219443  0.23324701  1  0.099785  0  0.105957  0.124748  0  1.046965  0
H  H16  1  0.28165126  0.66413447  0.68433493  1  0.122641  0  0.124984  0.149039  0  0.969894  0
H  H17  1  0.47002057  0.64952112  0.69416652  1  0.107554  0  0.1076  0.12767  0  1.030502  0
H  H18  1  0.74207722  0.77095884  0.83211370  1  0.597351  0  0.319062  0.412794  0  0.887045  0
H  H19  1  0.83829104  0.14203008  0.91864626  1  0.605534  0  0.340931  0.445607  0  0.831411  0
H  H20  1  0.11366113  0.85756402  0.92819564  1  0.6133  0  0.341084  0.445492  0  0.831627  0
H  H21  1  0.82890788  0.86718187  0.20303766  1  0.652326  0  0.340464  0.444763  0  0.833083  0
H  H22  1  0.27601260  0.88553431  0.42873712  1  0.13477  0  0.127701  0.116819  0  1.002967  0
H  H23  1  0.47024868  0.93531424  0.49900216  1  0.129838  0  0.127303  0.115136  0  1.004307  0
H  H24  1  0.33856125  0.30444986  0.94659715  1  0.140421  0  0.127868  0.116898  0  1.001868  0
H  H25  1  0.40891845  0.49854023  0.99611166  1  0.124304  0  0.126789  0.113983  0  1.004583  0
H  H26  1  0.90650014  0.43822656  0.55932636  1  0.144004  0  0.127335  0.115174  0  1.003767  0
H  H27  1  0.85644045  0.36793760  0.36551677  1  0.141476  0  0.127951  0.117025  0  1.003056  0
C  C28  1  0.99793488  0.26919784  0.52929292  1  0.393212  0  0.089987  0.135724  0  4.07447  0
C  C29  1  0.08161448  0.21892792  0.50869866  1  0.008425  0  -0.079513  -0.152397  0  3.935651  0
C  C30  1  0.09063847  0.21202922  0.41184483  1  -0.020574  0  -0.094305  -0.182907  0  3.977082  0
C  C31  1  0.01368456  0.25965865  0.37293249  1  0.494879  0  0.098186  0.155905  0  4.073369  0
C  C32  1  0.76226496  0.53794540  0.39838992  1  0.433904  0  0.089079  0.139441  0  4.074349  0
C  C33  1  0.67961085  0.58868349  0.42144487  1  -0.023581  0  -0.082737  -0.157421  0  3.943858  0
C  C34  1  0.67258885  0.59444095  0.51861032  1  0.003245  0  -0.09637  -0.187831  0  3.98333  0
C  C35  1  0.74999347  0.54578463  0.55534288  1  0.456483  0  0.095961  0.154984  0  4.073927  0
C  C36  1  0.24064758  0.46840043  0.08845946  1  0.448863  0  0.088858  0.135074  0  4.0762  0
C  C37  1  0.19068340  0.44792824  0.17224294  1  -0.014229  0  -0.079818  -0.15335  0  3.936329  0
C  C38  1  0.18362485  0.35105609  0.18124455  1  -0.024798  0  -0.094024  -0.183342  0  3.974941  0
C  C39  1  0.23084517  0.31201005  0.10415091  1  0.43126  0  0.097597  0.15553  0  4.069811  0
C  C40  1  0.50867339  0.33756181  0.85191900  1  0.399226  0  0.088688  0.139253  0  4.077312  0
C  C41  1  0.55934748  0.36061223  0.76934587  1  -0.014413  0  -0.083143  -0.159213  0  3.948099  0
C  C42  1  0.56496901  0.45784141  0.76227697  1  0.033788  0  -0.096096  -0.186568  0  3.981982  0
C  C43  1  0.51625741  0.49463361  0.83958042  1  0.354963  0  0.096562  0.155275  0  4.071221  0
C  C44  1  0.43983768  0.02789246  0.33115211  1  0.397913  0  0.089671  0.133973  0  4.077026  0
C  C45  1  0.41899811  0.11167790  0.28142410  1  -0.023717  0  -0.079648  -0.151937  0  3.9358  0
C  C46  1  0.32198755  0.12031982  0.27430688  1  0.060139  0  -0.093994  -0.182881  0  3.976914  0
C  C47  1  0.28321688  0.04294424  0.32119981  1  0.43455  0  0.097355  0.154716  0  4.073924  0
C  C48  1  0.30918521  0.79063650  0.59819198  1  0.395588  0  0.089016  0.138636  0  4.077513  0
C  C49  1  0.33244605  0.70767720  0.64803701  1  0.013533  0  -0.083287  -0.157432  0  3.94655  0
C  C50  1  0.42980339  0.70064665  0.65351377  1  0.018162  0  -0.096106  -0.187138  0  3.982204  0
C  C51  1  0.46649736  0.77836023  0.60552238  1  0.434047  0  0.096239  0.154501  0  4.072329  0
C  C52  1  0.89222199  0.13515365  0.74396764  1  1.631927  0  0.241936  0.707133  0  4.177152  0
C  C53  1  0.67901503  0.89755084  0.70711520  1  1.601612  0  0.205026  0.625446  0  4.280268  0
C  C54  1  0.86896674  0.64647114  0.76815708  1  1.627418  0  0.205757  0.626872  0  4.275504  0
C  C55  1  0.63789091  0.11725242  0.95282507  1  1.644478  0  0.243691  0.712925  0  4.175641  0
C  C56  1  0.86319165  0.66706223  0.17829937  1  1.637094  0  0.243364  0.713067  0  4.172154  0
C  C57  1  0.07867476  0.91833302  0.21231738  1  1.626665  0  0.213012  0.643363  0  4.255452  0
C  C58  1  0.61748615  0.70719454  0.95877416  1  1.634931  0  0.206332  0.626776  0  4.275334  0
C  C59  1  0.65418023  0.92131830  0.19673926  1  1.615116  0  0.242833  0.710724  0  4.177583  0
C  C60  1  0.12283228  0.10706918  0.97976843  1  1.615553  0  0.212457  0.642128  0  4.251349  0
C  C61  1  0.08906288  0.89174207  0.72825510  1  1.668167  0  0.243476  0.713184  0  4.172899  0
C  C62  1  0.10689134  0.68289608  0.98194939  1  1.638163  0  0.240357  0.706274  0  4.178808  0
C  C63  1  0.88994307  0.15160620  0.16792011  1  1.621299  0  0.212945  0.643759  0  4.251002  0
C  C64  1  0.15504833  0.87550446  0.65210295  1  -0.265108  0  -0.039037  -0.173846  0  3.884379  0
C  C65  1  0.22542002  0.84135114  0.61399816  1  0.006308  0  -0.022273  -0.055169  0  4.112762  0
C  C66  1  0.62333625  0.85167546  0.64205897  1  0.288008  0  -0.032436  -0.15144  0  3.863838  0
C  C67  1  0.55417139  0.81569623  0.61455605  1  -0.522279  0  -0.013534  -0.047139  0  4.097002  0
C  C68  1  0.12962445  0.96896683  0.27697113  1  -0.173892  0  -0.023312  -0.136959  0  3.858219  0
C  C69  1  0.19639619  0.00552715  0.30864732  1  -0.071989  0  -0.012371  -0.050544  0  4.095462  0
C  C70  1  0.52114771  0.97419701  0.31316046  1  -0.40586  0  -0.017267  -0.042763  0  4.109235  0
C  C71  1  0.58838999  0.93682385  0.27269150  1  0.191759  0  -0.041737  -0.181576  0  3.897395  0
C  C72  1  0.34216325  0.91994026  0.43083796  1  0.373756  0  0.018956  -0.058088  0  3.982168  0
C  C73  1  0.40439772  0.90029339  0.49726934  1  0.363126  0  0.019438  -0.056011  0  3.986436  0
C  C74  1  0.52393287  0.25377917  0.90257733  1  -0.211936  0  -0.022193  -0.055711  0  4.114372  0
C  C75  1  0.56169002  0.18323088  0.93653255  1  -0.004098  0  -0.038884  -0.173317  0  3.884987  0
C  C76  1  0.52513906  0.58228226  0.87682782  1  -0.590669  0  -0.014559  -0.048094  0  4.092318  0
C  C77  1  0.55259282  0.65145221  0.91273001  1  0.38714  0  -0.032539  -0.151718  0  3.859505  0
C  C78  1  0.21852704  0.22503709  0.06713950  1  -0.595375  0  -0.012241  -0.050416  0  4.092848  0
C  C79  1  0.18729022  0.15805264  0.03065169  1  0.398348  0  -0.023826  -0.137509  0  3.859532  0
C  C80  1  0.22294174  0.54951044  0.03461181  1  -0.240173  0  -0.016937  -0.04266  0  4.107941  0
C  C81  1  0.18268935  0.61685474  0.99732799  1  0.002018  0  -0.041757  -0.181564  0  3.896292  0
C  C82  1  0.34069321  0.37058012  0.98089653  1  0.374709  0  0.018441  -0.058873  0  3.982925  0
C  C83  1  0.40719495  0.43275585  0.96114570  1  0.370925  0  0.019484  -0.05348  0  3.986213  0
C  C84  1  0.84695984  0.59079824  0.24404429  1  -0.156438  0  -0.039018  -0.173737  0  3.882753  0
C  C85  1  0.81293722  0.55309816  0.31457881  1  -0.05677  0  -0.02229  -0.05594  0  4.111739  0
C  C86  1  0.78722082  0.55442730  0.64296604  1  -0.514281  0  -0.014305  -0.048426  0  4.098166  0
C  C87  1  0.82305499  0.58162054  0.71226393  1  0.238616  0  -0.032283  -0.151395  0  3.863212  0
C  C88  1  0.94054280  0.21637746  0.21881337  1  0.208731  0  -0.02372  -0.137167  0  3.855941  0
C  C89  1  0.97671024  0.24770226  0.28593074  1  -0.488782  0  -0.012622  -0.051452  0  4.096032  0
C  C90  1  0.94411252  0.25137916  0.61048556  1  -0.4482  0  -0.017438  -0.043943  0  4.107547  0
C  C91  1  0.90736288  0.21086977  0.67794610  1  0.265532  0  -0.041537  -0.180311  0  3.897181  0
C  C92  1  0.87146238  0.43653793  0.49358216  1  0.331655  0  0.018831  -0.056397  0  3.985605  0
C  C93  1  0.89083908  0.36988302  0.43158373  1  0.390607  0  0.018699  -0.058437  0  3.981496  0
N  N94  1  0.96035804  0.30033226  0.44494933  1  -1.184799  0  -0.212922  0.007605  0  3.727933  0
N  N95  1  0.80191027  0.50625178  0.48165838  1  -1.201725  0  -0.212425  0.007133  0  3.726797  0
N  N96  1  0.27142680  0.38396921  0.05072671  1  -1.205834  0  -0.211753  0.007529  0  3.729115  0
N  N97  1  0.47675643  0.42090063  0.89143496  1  -1.196588  0  -0.212483  0.005547  0  3.724478  0
N  N98  1  0.35542280  0.98981266  0.36176648  1  -1.189933  0  -0.212918  0.008207  0  3.730285  0
N  N99  1  0.39256817  0.83044698  0.56656891  1  -1.192999  0  -0.212937  0.005911  0  3.728725  0
O  O100  1  0.96426550  0.11493711  0.79230610  1  -1.155346  0  -0.366855  -0.617294  0  2.268576  0
O  O101  1  0.63867374  0.91358887  0.78689267  1  -1.121016  0  -0.343594  -0.572236  0  2.121969  0
O  O102  1  0.88467802  0.72653649  0.72841286  1  -1.119775  0  -0.344103  -0.573089  0  2.121615  0
O  O103  1  0.66319000  0.07278651  0.87934023  1  -1.157458  0  -0.373911  -0.625071  0  2.270464  0
O  O104  1  0.67753399  0.11063433  0.03007066  1  -1.15261  0  -0.328588  -0.587665  0  2.2038  0
O  O105  1  0.89128090  0.63024547  0.85213614  1  -1.12852  0  -0.328242  -0.557731  0  2.110042  0
O  O106  1  0.76333011  0.91938584  0.69144282  1  -1.132647  0  -0.32782  -0.556548  0  2.111909  0
O  O107  1  0.81607546  0.09222231  0.74937601  1  -1.162016  0  -0.340107  -0.605079  0  2.201457  0
O  O108  1  0.75215445  0.93397732  0.98579132  1  -1.211661  0  -0.786671  -1.14795  0  2.100036  0
O  O109  1  0.90533331  0.92457121  0.84214043  1  -1.21405  0  -0.786419  -1.148248  0  2.101497  0
O  O110  1  0.77967778  0.80849954  0.86971687  1  -1.242502  0  -0.656835  -1.036617  0  2.17706  0
O  O111  1  0.84850628  0.07560807  0.93133432  1  -1.239433  0  -0.681567  -1.059145  0  2.245393  0
O  O112  1  0.78941737  0.69257154  0.13428240  1  -1.161568  0  -0.373726  -0.625324  0  2.268515  0
O  O113  1  0.11012134  0.91852915  0.12752002  1  -1.129783  0  -0.337814  -0.576013  0  2.112465  0
O  O114  1  0.69752552  0.66727874  0.97473377  1  -1.118971  0  -0.344023  -0.572534  0  2.120335  0
O  O115  1  0.70265555  0.99318514  0.17620816  1  -1.151699  0  -0.36751  -0.618891  0  2.268519  0
O  O116  1  0.03793413  0.13860776  0.97949132  1  -1.136211  0  -0.338036  -0.576086  0  2.110282  0
O  O117  1  0.04455060  0.81824301  0.75343430  1  -1.159136  0  -0.373315  -0.624501  0  2.26636  0
O  O118  1  0.08667705  0.73144200  0.05377233  1  -1.154221  0  -0.366645  -0.61648  0  2.26932  0
O  O119  1  0.89024577  0.06681538  0.19938447  1  -1.12798  0  -0.337811  -0.576608  0  2.10923  0
O  O120  1  0.06394097  0.68812494  0.90591488  1  -1.162712  0  -0.338943  -0.604152  0  2.203235  0
O  O121  1  0.84458839  0.17523321  0.09518532  1  -1.13946  0  -0.348554  -0.580863  0  2.116251  0
O  O122  1  0.60138446  0.79129673  0.98091108  1  -1.136872  0  -0.32899  -0.558346  0  2.109356  0
O  O123  1  0.08242066  0.96897892  0.76796322  1  -1.153929  0  -0.32897  -0.588061  0  2.205565  0
O  O124  1  0.14676903  0.03413395  0.93485927  1  -1.141848  0  -0.347558  -0.579074  0  2.114885  0
O  O125  1  0.65924524  0.84526079  0.15382111  1  -1.158641  0  -0.340359  -0.60701  0  2.201574  0
O  O126  1  0.94055962  0.70666521  0.17155084  1  -1.145337  0  -0.328632  -0.587338  0  2.204341  0
O  O127  1  0.00574354  0.87318763  0.23603521  1  -1.137307  0  -0.34823  -0.579937  0  2.117621  0
O  O128  1  0.94457416  0.97319601  0.03416605  1  -1.20315  0  -0.769154  -1.127511  0  2.042985  0
O  O129  1  0.89593568  0.78090187  0.99501467  1  -1.212146  0  -0.78649  -1.149294  0  2.100814  0
O  O130  1  0.04712397  0.87024394  0.93830058  1  -1.245206  0  -0.681643  -1.059045  0  2.246771  0
O  O131  1  0.84158906  0.87738964  0.13663155  1  -1.284019  0  -0.680925  -1.058256  0  2.247597  0
