# generated using pymatgen
data_Zr3H14C48(Br3O4)4
_symmetry_space_group_name_H-M   'P 1'
_cell_length_a   21.68109255
_cell_length_b   21.68078865
_cell_length_c   21.68089344
_cell_angle_alpha   119.99938383
_cell_angle_beta   90.00111127
_cell_angle_gamma   119.99938146
_symmetry_Int_Tables_number   1
_chemical_formula_structural   Zr3H14C48(Br3O4)4
_chemical_formula_sum   'Zr6 H28 C96 Br24 O32'
_cell_volume   7206.46546027
_cell_formula_units_Z   2
loop_
 _symmetry_equiv_pos_site_id
 _symmetry_equiv_pos_as_xyz
  1  'x, y, z'
loop_
 _atom_site_type_symbol
 _atom_site_label
 _atom_site_symmetry_multiplicity
 _atom_site_fract_x
 _atom_site_fract_y
 _atom_site_fract_z
 _atom_site_occupancy
 _atom_site_pbe_bader_charge
 _atom_site_pbe_bader_spin_density
 _atom_site_pbe_cm5_charge
 _atom_site_pbe_ddec_charge
 _atom_site_pbe_ddec_spin_density
 _atom_site_pbe_ddec_sum_bond_order
 _atom_site_pbe_magmom
Zr  Zr0  1  0.08153360  0.16310654  0.08154353  1  2.639705  0  1.627722  2.371925  0  2.754877  0
Zr  Zr1  1  0.91837464  0.83678751  0.91836693  1  2.63762  0  1.627835  2.372427  0  2.754656  0
Zr  Zr2  1  0.91837516  0.99993710  0.08152440  1  2.63206  0  1.628187  2.372011  0  2.755144  0
Zr  Zr3  1  0.08154688  0.99995838  0.91839013  1  2.6312  0  1.628253  2.371923  0  2.754985  0
Zr  Zr4  1  0.08152332  0.99992832  0.08152955  1  2.628379  0  1.628292  2.371961  0  2.755319  0
Zr  Zr5  1  0.91837571  0.99993903  0.91837072  1  2.627356  0  1.628332  2.372165  0  2.754925  0
H  H6  1  0.06412560  0.12829300  0.19250202  1  0.657151  0  0.332211  0.423415  0  0.856429  0
H  H7  1  0.06414616  0.87158822  0.93577947  1  0.593554  0  0.332237  0.423666  0  0.857098  0
H  H8  1  0.80741566  0.87157802  0.93577444  1  0.583697  0  0.332073  0.423227  0  0.857206  0
H  H9  1  0.06415597  0.12831518  0.93578054  1  0.620134  0  0.332238  0.423573  0  0.857122  0
H  H10  1  0.28399555  0.38188535  0.28141354  1  0.125159  0  0.113793  0.135997  0  0.987917  0
H  H11  1  0.28399140  0.18341700  0.28134586  1  0.144326  0  0.113988  0.136286  0  0.988163  0
H  H12  1  0.71842696  0.81636606  0.71585085  1  0.106715  0  0.11376  0.136007  0  0.987928  0
H  H13  1  0.71843994  0.61795123  0.71588608  1  0.106116  0  0.113792  0.136124  0  0.987926  0
H  H14  1  0.09785862  0.38196056  0.10050573  1  0.10384  0  0.113762  0.135986  0  0.987905  0
H  H15  1  0.89941114  0.18347096  0.90208924  1  0.153884  0  0.113888  0.136161  0  0.987952  0
H  H16  1  0.09781892  0.81637218  0.10053527  1  0.146316  0  0.113705  0.135717  0  0.988006  0
H  H17  1  0.89941683  0.61797990  0.90208069  1  0.104644  0  0.113832  0.136281  0  0.987874  0
H  H18  1  0.28407795  0.00264282  0.10053857  1  0.142445  0  0.113828  0.136054  0  0.987996  0
H  H19  1  0.28409326  0.00270572  0.90214406  1  0.14236  0  0.113791  0.13598  0  0.98789  0
H  H20  1  0.71855921  0.00267556  0.10053209  1  0.149003  0  0.113868  0.136076  0  0.98808  0
H  H21  1  0.71851327  0.00262869  0.90208188  1  0.142545  0  0.113805  0.136129  0  0.987891  0
H  H22  1  0.89944009  0.99731533  0.71585908  1  0.142514  0  0.113887  0.136267  0  0.987941  0
H  H23  1  0.09783562  0.99725375  0.71584621  1  0.142312  0  0.113693  0.135985  0  0.988154  0
H  H24  1  0.89937711  0.99720979  0.28136527  1  0.147417  0  0.113734  0.136177  0  0.987682  0
H  H25  1  0.09784547  0.99728750  0.28139017  1  0.142369  0  0.113755  0.136002  0  0.988041  0
H  H26  1  0.89942606  0.18353051  0.28141805  1  0.148587  0  0.113761  0.136102  0  0.987736  0
H  H27  1  0.09782425  0.38191512  0.28134131  1  0.10348  0  0.113759  0.136056  0  0.987734  0
H  H28  1  0.89941349  0.61799370  0.71583129  1  0.107783  0  0.113592  0.135928  0  0.988041  0
H  H29  1  0.09786811  0.81641060  0.71584327  1  0.146849  0  0.113771  0.136073  0  0.987961  0
H  H30  1  0.28410615  0.38194185  0.10060347  1  0.107373  0  0.113713  0.136056  0  0.987871  0
H  H31  1  0.28408893  0.18351842  0.90214841  1  0.146101  0  0.113798  0.136048  0  0.987846  0
H  H32  1  0.71855167  0.81638667  0.10054148  1  0.150052  0  0.113786  0.136048  0  0.988084  0
H  H33  1  0.71858538  0.61794849  0.90215120  1  0.103925  0  0.113731  0.136265  0  0.987734  0
C  C34  1  0.20914194  0.20716523  0.20524219  1  1.534763  0  0.238416  0.640529  0  4.096823  0
C  C35  1  0.99799651  0.79267269  0.00190886  1  1.551699  0  0.238141  0.640292  0  4.09782  0
C  C36  1  0.79460170  0.79267581  0.79074396  1  1.533424  0  0.238295  0.640308  0  4.096774  0
C  C37  1  0.99800634  0.20720823  0.00192125  1  1.550893  0  0.238337  0.640857  0  4.097173  0
C  C38  1  0.99799155  0.20720357  0.20525405  1  1.547859  0  0.238481  0.641106  0  4.096398  0
C  C39  1  0.20919551  0.20722062  0.00196570  1  1.555379  0  0.238038  0.64035  0  4.097566  0
C  C40  1  0.99801617  0.79271513  0.79073200  1  1.552927  0  0.23809  0.639825  0  4.097995  0
C  C41  1  0.79467335  0.79267627  0.00192588  1  1.547076  0  0.238062  0.640206  0  4.097269  0
C  C42  1  0.99798103  0.99600011  0.20524659  1  1.56133  0  0.238373  0.640417  0  4.097055  0
C  C43  1  0.79465950  0.00388019  0.00191774  1  1.552281  0  0.238164  0.640587  0  4.097366  0
C  C44  1  0.99801199  0.99603244  0.79073805  1  1.55359  0  0.238062  0.639641  0  4.098005  0
C  C45  1  0.20919241  0.00389316  0.00194960  1  1.553085  0  0.238088  0.640599  0  4.096957  0
C  C46  1  0.27754952  0.27597551  0.27447413  1  -0.043535  0  -0.012515  -0.007725  0  3.967518  0
C  C47  1  0.30922165  0.36412481  0.30712606  1  0.101243  0  -0.087984  -0.150451  0  3.968277  0
C  C48  1  0.37235303  0.42781500  0.37193115  1  -0.106307  0  -0.004564  0.087523  0  3.915092  0
C  C49  1  0.40663414  0.40672704  0.40693877  1  0.152088  0  -0.002812  0.049006  0  4.058432  0
C  C50  1  0.37235078  0.31634632  0.37190356  1  -0.088346  0  -0.004408  0.08808  0  3.914726  0
C  C51  1  0.30922256  0.25212340  0.30709289  1  0.013997  0  -0.088188  -0.151195  0  3.968697  0
C  C52  1  0.47106661  0.47167451  0.47238626  1  -0.304982  0  -0.039458  -0.065823  0  4.106674  0
C  C53  1  0.52743158  0.52810944  0.52881374  1  0.004568  0  -0.03982  -0.066625  0  4.10684  0
C  C54  1  0.59284413  0.59305635  0.59327600  1  0.213895  0  -0.00339  0.048764  0  4.058388  0
C  C55  1  0.62786121  0.68342407  0.62753579  1  -0.068002  0  -0.004224  0.08819  0  3.914686  0
C  C56  1  0.69268634  0.74766802  0.69065426  1  0.032012  0  -0.088  -0.150876  0  3.967831  0
C  C57  1  0.72534067  0.72384671  0.72233883  1  -0.040192  0  -0.012296  -0.007483  0  3.966866  0
C  C58  1  0.69269362  0.63569245  0.69066990  1  0.121962  0  -0.088124  -0.15103  0  3.967893  0
C  C59  1  0.62786468  0.57198030  0.62755544  1  -0.112621  0  -0.004147  0.088381  0  3.91396  0
C  C60  1  0.99840816  0.27603793  0.00152190  1  -0.074375  0  -0.012481  -0.007853  0  3.96689  0
C  C61  1  0.05488298  0.36419688  0.05701869  1  0.130552  0  -0.08802  -0.150815  0  3.968218  0
C  C62  1  0.05544246  0.42788560  0.05589262  1  -0.115446  0  -0.004327  0.087892  0  3.914852  0
C  C63  1  0.00006033  0.40676826  0.99978820  1  0.23297  0  -0.002872  0.049587  0  4.057774  0
C  C64  1  0.94396252  0.31638890  0.94444993  1  -0.134462  0  -0.004505  0.087582  0  3.914689  0
C  C65  1  0.94288084  0.25217761  0.94504597  1  -0.00045  0  -0.088039  -0.150685  0  3.968171  0
C  C66  1  0.00054086  0.47168344  0.99926436  1  -0.245838  0  -0.040108  -0.067037  0  4.107162  0
C  C67  1  0.00056464  0.52810225  0.99927725  1  -0.025162  0  -0.039513  -0.066074  0  4.106924  0
C  C68  1  0.00007723  0.59305674  0.99980242  1  0.234455  0  -0.002908  0.049326  0  4.057479  0
C  C69  1  0.05543689  0.68342494  0.05591199  1  -0.151124  0  -0.004163  0.088202  0  3.91436  0
C  C70  1  0.05486397  0.74767193  0.05703431  1  0.027302  0  -0.087872  -0.150501  0  3.967853  0
C  C71  1  0.99839680  0.72384844  0.00152001  1  -0.077322  0  -0.012499  -0.007618  0  3.966742  0
C  C72  1  0.94288526  0.63569971  0.94503890  1  0.133988  0  -0.088265  -0.151481  0  3.968287  0
C  C73  1  0.94398152  0.57198405  0.94445097  1  -0.120288  0  -0.004402  0.08804  0  3.914466  0
C  C74  1  0.27763998  0.00313457  0.00157201  1  -0.04873  0  -0.012368  -0.007827  0  3.967224  0
C  C75  1  0.30932475  0.00217795  0.05708432  1  0.031516  0  -0.0879  -0.150912  0  3.968372  0
C  C76  1  0.37247927  0.00054605  0.05600016  1  -0.095202  0  -0.004554  0.087921  0  3.914937  0
C  C77  1  0.40677257  0.99985673  0.99992365  1  0.184494  0  -0.002713  0.049426  0  4.058449  0
C  C78  1  0.37248194  0.00057314  0.94455584  1  -0.121843  0  -0.004665  0.087752  0  3.915416  0
C  C79  1  0.30932771  0.00220502  0.94511264  1  0.053233  0  -0.087839  -0.150635  0  3.968488  0
C  C80  1  0.47121666  0.99888296  0.99943304  1  -0.208303  0  -0.040016  -0.066995  0  4.107235  0
C  C81  1  0.52761317  0.99886353  0.99943396  1  -0.049152  0  -0.039465  -0.065932  0  4.106902  0
C  C82  1  0.59302406  0.99982095  0.99990774  1  0.184597  0  -0.003113  0.048991  0  4.058991  0
C  C83  1  0.62803840  0.00054404  0.05599162  1  -0.094358  0  -0.004467  0.088067  0  3.91493  0
C  C84  1  0.69282338  0.00217308  0.05706171  1  0.008957  0  -0.087973  -0.150954  0  3.968493  0
C  C85  1  0.72544598  0.00311164  0.00153545  1  -0.028083  0  -0.012363  -0.007706  0  3.966787  0
C  C86  1  0.69279320  0.00214250  0.94506290  1  0.028451  0  -0.088125  -0.151197  0  3.967892  0
C  C87  1  0.62799937  0.00049688  0.94451344  1  -0.102589  0  -0.004237  0.088206  0  3.914626  0
C  C88  1  0.99840891  0.99682834  0.72230587  1  -0.04438  0  -0.012213  -0.007028  0  3.966913  0
C  C89  1  0.94291222  0.99781290  0.69063167  1  0.026531  0  -0.088176  -0.151585  0  3.968643  0
C  C90  1  0.94402100  0.99949321  0.62750102  1  -0.094078  0  -0.004325  0.088213  0  3.914673  0
C  C91  1  0.00009891  0.00018861  0.59321031  1  0.185187  0  -0.003044  0.049019  0  4.058932  0
C  C92  1  0.05544967  0.99944224  0.62748654  1  -0.123419  0  -0.004528  0.088151  0  3.914868  0
C  C93  1  0.05487271  0.99776882  0.69061998  1  0.054482  0  -0.087798  -0.151113  0  3.968473  0
C  C94  1  0.00059884  0.00117657  0.52877115  1  -0.054888  0  -0.039616  -0.065988  0  4.106693  0
C  C95  1  0.00057824  0.00115393  0.47235629  1  -0.203469  0  -0.03989  -0.066962  0  4.107075  0
C  C96  1  0.00007505  0.00015167  0.40692287  1  0.183246  0  -0.002797  0.049343  0  4.058528  0
C  C97  1  0.94397150  0.99940855  0.37191287  1  -0.092059  0  -0.004521  0.088049  0  3.91502  0
C  C98  1  0.94286317  0.99773342  0.30710445  1  0.01004  0  -0.087701  -0.151019  0  3.968152  0
C  C99  1  0.99838786  0.99680239  0.27447644  1  -0.038371  0  -0.012504  -0.007678  0  3.967378  0
C  C100  1  0.05487228  0.99777835  0.30711878  1  0.009593  0  -0.087723  -0.150788  0  3.968456  0
C  C101  1  0.05545000  0.99944983  0.37192515  1  -0.083365  0  -0.004662  0.087767  0  3.915186  0
C  C102  1  0.99839664  0.27604365  0.27447572  1  -0.033183  0  -0.012694  -0.008098  0  3.967578  0
C  C103  1  0.94289549  0.25222984  0.30713092  1  0.005694  0  -0.087828  -0.150859  0  3.968017  0
C  C104  1  0.94400223  0.31647944  0.37192930  1  -0.102206  0  -0.004554  0.087886  0  3.914932  0
C  C105  1  0.00008629  0.40684764  0.40690430  1  0.167835  0  -0.002871  0.049236  0  4.058591  0
C  C106  1  0.05544178  0.42791099  0.37188370  1  -0.113451  0  -0.004599  0.087581  0  3.915677  0
C  C107  1  0.05486529  0.36418947  0.30708836  1  0.112273  0  -0.087792  -0.150483  0  3.968306  0
C  C108  1  0.00059109  0.47178685  0.47233542  1  -0.233363  0  -0.039789  -0.066543  0  4.107115  0
C  C109  1  0.00058820  0.52817019  0.52875558  1  -0.021962  0  -0.039828  -0.06638  0  4.107199  0
C  C110  1  0.00009354  0.59310111  0.59320013  1  0.168163  0  -0.002877  0.049217  0  4.058826  0
C  C111  1  0.94399776  0.57202733  0.62747781  1  -0.117225  0  -0.004436  0.088159  0  3.914679  0
C  C112  1  0.94289565  0.63573595  0.69061021  1  0.113348  0  -0.087762  -0.150989  0  3.968096  0
C  C113  1  0.99841655  0.72388842  0.72229874  1  -0.03581  0  -0.012431  -0.007188  0  3.966997  0
C  C114  1  0.05489378  0.74771034  0.69061997  1  0.016779  0  -0.088034  -0.151374  0  3.968427  0
C  C115  1  0.05546920  0.68347180  0.62749085  1  -0.114905  0  -0.004326  0.088298  0  3.914806  0
C  C116  1  0.27765085  0.27605142  0.00160411  1  -0.079461  0  -0.012934  -0.008091  0  3.968111  0
C  C117  1  0.30934135  0.36419909  0.05713671  1  0.158714  0  -0.087461  -0.15021  0  3.967825  0
C  C118  1  0.37249067  0.42790630  0.05605351  1  -0.120756  0  -0.004759  0.087051  0  3.91499  0
C  C119  1  0.40679187  0.40682938  0.99998051  1  0.173554  0  -0.002916  0.050384  0  4.057308  0
C  C120  1  0.37249908  0.31645641  0.94460250  1  -0.11841  0  -0.004692  0.087182  0  3.915209  0
C  C121  1  0.30933629  0.25221922  0.94514047  1  0.013835  0  -0.087496  -0.150334  0  3.968027  0
C  C122  1  0.47124851  0.47176297  0.99949475  1  -0.032617  0  -0.039891  -0.067613  0  4.107827  0
C  C123  1  0.52764992  0.52814020  0.99947399  1  -0.224382  0  -0.039521  -0.065548  0  4.107486  0
C  C124  1  0.59305949  0.59306871  0.99993424  1  0.168494  0  -0.002936  0.049235  0  4.05824  0
C  C125  1  0.62805431  0.68344316  0.05600293  1  -0.098176  0  -0.004397  0.088256  0  3.914355  0
C  C126  1  0.69284092  0.74768357  0.05708557  1  -0.005286  0  -0.088062  -0.151364  0  3.968296  0
C  C127  1  0.72548113  0.72385424  0.00157134  1  -0.021654  0  -0.012499  -0.00724  0  3.966449  0
C  C128  1  0.69285730  0.63569863  0.94512414  1  0.108119  0  -0.087935  -0.151528  0  3.968069  0
C  C129  1  0.62806354  0.57199051  0.94456658  1  -0.110603  0  -0.0045  0.08811  0  3.914684  0
Br  Br130  1  0.41309116  0.28088761  0.41395289  1  -0.02917  0  0.026488  -0.059362  0  1.420737  0
Br  Br131  1  0.41313714  0.54607139  0.41398363  1  -0.03427  0  0.026529  -0.059213  0  1.421427  0
Br  Br132  1  0.58575444  0.45369038  0.58672512  1  -0.03878  0  0.026468  -0.059428  0  1.420698  0
Br  Br133  1  0.58573343  0.71873071  0.58667550  1  -0.03235  0  0.026501  -0.059411  0  1.421258  0
Br  Br134  1  0.86775832  0.28094262  0.86694995  1  -0.034043  0  0.026505  -0.059288  0  1.420585  0
Br  Br135  1  0.13292075  0.54616968  0.13204150  1  -0.031986  0  0.02656  -0.059225  0  1.421386  0
Br  Br136  1  0.86781017  0.45370813  0.86698371  1  -0.032384  0  0.026489  -0.059357  0  1.420892  0
Br  Br137  1  0.13290464  0.71877377  0.13207834  1  -0.033253  0  0.026472  -0.059406  0  1.42128  0
Br  Br138  1  0.41327859  0.99929027  0.86708400  1  -0.033245  0  0.026654  -0.059123  0  1.421166  0
Br  Br139  1  0.41327537  0.99920900  0.13214817  1  -0.031264  0  0.026632  -0.059129  0  1.421147  0
Br  Br140  1  0.58585965  0.99914689  0.86702553  1  -0.033331  0  0.026556  -0.059284  0  1.421075  0
Br  Br141  1  0.58594383  0.99925473  0.13217249  1  -0.034351  0  0.026575  -0.059293  0  1.420889  0
Br  Br142  1  0.13293299  0.00076583  0.58669521  1  -0.035687  0  0.02656  -0.059309  0  1.420843  0
Br  Br143  1  0.86789920  0.00087881  0.58672955  1  -0.031641  0  0.026551  -0.059272  0  1.42097  0
Br  Br144  1  0.13296437  0.00084120  0.41407946  1  -0.031271  0  0.026639  -0.059103  0  1.42121  0
Br  Br145  1  0.86781461  0.00072679  0.41403891  1  -0.03299  0  0.026595  -0.059206  0  1.421064  0
Br  Br146  1  0.13293033  0.54617631  0.41397676  1  -0.029688  0  0.026609  -0.059158  0  1.421311  0
Br  Br147  1  0.86789537  0.28114933  0.41410591  1  -0.02896  0  0.026605  -0.059194  0  1.421326  0
Br  Br148  1  0.13297847  0.71881942  0.58672311  1  -0.033921  0  0.026515  -0.059347  0  1.420951  0
Br  Br149  1  0.86783779  0.45375554  0.58669212  1  -0.034361  0  0.026504  -0.059349  0  1.420988  0
Br  Br150  1  0.41328549  0.28108586  0.86711447  1  -0.02919  0  0.026526  -0.059224  0  1.421483  0
Br  Br151  1  0.41325046  0.54617684  0.13220585  1  -0.029936  0  0.02658  -0.059162  0  1.421225  0
Br  Br152  1  0.58592161  0.45371214  0.86706852  1  -0.034786  0  0.026569  -0.059332  0  1.420873  0
Br  Br153  1  0.58590904  0.71879990  0.13213486  1  -0.033916  0  0.026509  -0.059452  0  1.421005  0
O  O154  1  0.18205744  0.23273409  0.17854579  1  -1.181078  0  -0.354694  -0.615198  0  2.27731  0
O  O155  1  0.94574920  0.76711872  0.94924625  1  -1.176672  0  -0.354489  -0.615187  0  2.277466  0
O  O156  1  0.82132333  0.76712545  0.81783020  1  -1.176944  0  -0.354666  -0.615362  0  2.277239  0
O  O157  1  0.05065127  0.23276003  0.05418280  1  -1.17239  0  -0.354479  -0.615206  0  2.277809  0
O  O158  1  0.94572949  0.12785200  0.17855769  1  -1.179288  0  -0.354471  -0.615493  0  2.276894  0
O  O159  1  0.18209957  0.12787079  0.94930252  1  -1.175292  0  -0.354099  -0.615077  0  2.27753  0
O  O160  1  0.05068068  0.87207067  0.81784453  1  -1.174933  0  -0.354359  -0.615005  0  2.277736  0
O  O161  1  0.82135768  0.87203106  0.05416299  1  -1.176208  0  -0.354212  -0.614992  0  2.277642  0
O  O162  1  0.05062552  0.99638620  0.17853659  1  -1.178617  0  -0.354258  -0.61498  0  2.277689  0
O  O163  1  0.82135619  0.00347278  0.94926063  1  -1.176809  0  -0.354286  -0.615226  0  2.277541  0
O  O164  1  0.94573723  0.99639199  0.81781669  1  -1.177788  0  -0.354281  -0.614845  0  2.277549  0
O  O165  1  0.18207680  0.00346470  0.05418858  1  -1.176509  0  -0.354162  -0.615066  0  2.277435  0
O  O166  1  0.82135207  0.00346243  0.05416370  1  -1.173316  0  -0.354212  -0.615185  0  2.277636  0
O  O167  1  0.05067703  0.99645349  0.81784938  1  -1.178316  0  -0.354247  -0.614913  0  2.277865  0
O  O168  1  0.18209428  0.00348798  0.94928964  1  -1.176606  0  -0.354206  -0.615272  0  2.27749  0
O  O169  1  0.94572561  0.99639712  0.17854425  1  -1.174383  0  -0.354429  -0.615242  0  2.277293  0
O  O170  1  0.05064683  0.23275422  0.17855395  1  -1.17916  0  -0.354468  -0.61523  0  2.277486  0
O  O171  1  0.82136568  0.76712275  0.94926439  1  -1.178802  0  -0.354506  -0.615189  0  2.277491  0
O  O172  1  0.94574478  0.76715692  0.81781356  1  -1.17965  0  -0.354479  -0.614924  0  2.277632  0
O  O173  1  0.18207841  0.23277080  0.05420271  1  -1.18261  0  -0.354367  -0.61496  0  2.27769  0
O  O174  1  0.94575255  0.12785572  0.94925784  1  -1.180909  0  -0.354376  -0.615408  0  2.277518  0
O  O175  1  0.18204566  0.12781173  0.17854199  1  -1.178436  0  -0.354448  -0.615113  0  2.277904  0
O  O176  1  0.05064376  0.87202672  0.05416798  1  -1.178503  0  -0.354201  -0.614967  0  2.278043  0
O  O177  1  0.82133006  0.87203581  0.81783357  1  -1.17258  0  -0.354423  -0.615264  0  2.27736  0
O  O178  1  0.04589046  0.09180205  0.95402881  1  -1.249938  0  -0.695131  -1.070929  0  2.363926  0
O  O179  1  0.86217644  0.90808577  0.95402316  1  -1.214047  0  -0.694984  -1.070562  0  2.364046  0
O  O180  1  0.04588367  0.90808731  0.95402267  1  -1.223058  0  -0.695061  -1.071055  0  2.363928  0
O  O181  1  0.04587228  0.09178731  0.13774037  1  -1.287416  0  -0.695092  -1.070934  0  2.363299  0
O  O182  1  0.96606406  0.93216443  0.03382834  1  -1.196572  0  -0.789952  -1.149605  0  2.124653  0
O  O183  1  0.10161319  0.06771714  0.03385008  1  -1.194294  0  -0.789945  -1.14931  0  2.123536  0
O  O184  1  0.96607648  0.93218111  0.89830275  1  -1.192109  0  -0.79001  -1.149527  0  2.124182  0
O  O185  1  0.96606619  0.06771647  0.03383842  1  -1.195252  0  -0.7899  -1.149595  0  2.124193  0
