# generated using pymatgen
data_UH3C7NO6
_symmetry_space_group_name_H-M   'P 1'
_cell_length_a   8.17752562
_cell_length_b   9.07621184
_cell_length_c   11.79348964
_cell_angle_alpha   97.47607315
_cell_angle_beta   90.00005056
_cell_angle_gamma   89.99970401
_symmetry_Int_Tables_number   1
_chemical_formula_structural   UH3C7NO6
_chemical_formula_sum   'U4 H12 C28 N4 O24'
_cell_volume   867.88317979
_cell_formula_units_Z   4
loop_
 _symmetry_equiv_pos_site_id
 _symmetry_equiv_pos_as_xyz
  1  'x, y, z'
loop_
 _atom_site_type_symbol
 _atom_site_label
 _atom_site_symmetry_multiplicity
 _atom_site_fract_x
 _atom_site_fract_y
 _atom_site_fract_z
 _atom_site_occupancy
 _atom_site_hle17_bader_spin_density
 _atom_site_hle17_ddec_charge
 _atom_site_hle17_ddec_spin_density
 _atom_site_hle17_ddec_sum_bond_order
 _atom_site_hle17_magmom
 _atom_site_hse06_10hf_bader_spin_density
 _atom_site_hse06_10hf_ddec_charge
 _atom_site_hse06_10hf_ddec_spin_density
 _atom_site_hse06_10hf_ddec_sum_bond_order
 _atom_site_hse06_10hf_magmom
 _atom_site_hse06_bader_spin_density
 _atom_site_hse06_ddec_charge
 _atom_site_hse06_ddec_spin_density
 _atom_site_hse06_ddec_sum_bond_order
 _atom_site_hse06_magmom
 _atom_site_pbe_bader_spin_density
 _atom_site_pbe_cm5_charge
 _atom_site_pbe_ddec_charge
 _atom_site_pbe_ddec_spin_density
 _atom_site_pbe_ddec_sum_bond_order
 _atom_site_pbe_magmom
U  U0  1  0.26335863  0.36274550  0.09634947  1  0  2.457485  0  4.168776  0  0  2.503943  0  4.844048  0  0  2.616525  0  4.801576  0  0  2.197874  2.424875  0  4.873546  0
U  U1  1  0.76336280  0.13724710  0.40365122  1  0  2.457413  0  4.168911  0  0  2.503745  0  4.844261  0  0  2.616386  0  4.801685  0  0  2.197797  2.424652  0  4.873732  0
U  U2  1  0.73664210  0.63725432  0.90365040  1  0  2.457473  0  4.168751  0  0  2.504075  0  4.843922  0  0  2.616627  0  4.801522  0  0  2.197934  2.424928  0  4.873492  0
U  U3  1  0.23663671  0.86275274  0.59634950  1  0  2.457393  0  4.168789  0  0  2.503818  0  4.844107  0  0  2.616436  0  4.801561  0  0  2.197848  2.424733  0  4.873611  0
H  H4  1  0.86769496  0.09655311  0.00876528  1  0  0.143178  0  0.928206  0  0  0.155231  0  0.978785  0  0  0.159342  0  0.97574  0  0  0.128137  0.152395  0  0.981042  0
H  H5  1  0.36769595  0.40344683  0.49123869  1  0  0.143164  0  0.928373  0  0  0.155272  0  0.978864  0  0  0.159385  0  0.975816  0  0  0.128142  0.152434  0  0.981124  0
H  H6  1  0.13230332  0.90345010  0.99123829  1  0  0.143128  0  0.928446  0  0  0.155311  0  0.978849  0  0  0.159424  0  0.975799  0  0  0.128162  0.152473  0  0.98111  0
H  H7  1  0.63230723  0.59654968  0.50876172  1  0  0.143136  0  0.928405  0  0  0.155333  0  0.978785  0  0  0.159448  0  0.975733  0  0  0.128163  0.152495  0  0.981045  0
H  H8  1  0.86276132  0.05264956  0.79182282  1  0  0.124852  0  0.911158  0  0  0.137771  0  0.963196  0  0  0.140904  0  0.960696  0  0  0.131549  0.135508  0  0.965068  0
H  H9  1  0.36276048  0.44735173  0.70817970  1  0  0.124826  0  0.911133  0  0  0.137772  0  0.963128  0  0  0.140916  0  0.960626  0  0  0.131522  0.135505  0  0.965006  0
H  H10  1  0.13723941  0.94735031  0.20817960  1  0  0.124829  0  0.911157  0  0  0.137781  0  0.963152  0  0  0.140924  0  0.960651  0  0  0.131529  0.135514  0  0.965025  0
H  H11  1  0.63723781  0.55264808  0.29181932  1  0  0.12483  0  0.911109  0  0  0.137781  0  0.963109  0  0  0.140921  0  0.960607  0  0  0.131531  0.135516  0  0.964986  0
H  H12  1  0.36101499  0.20161215  0.80924638  1  0  0.090396  0  0.94604  0  0  0.095176  0  1.013743  0  0  0.098102  0  1.010636  0  0  0.132218  0.093036  0  1.015961  0
H  H13  1  0.86101797  0.29838914  0.69075529  1  0  0.090412  0  0.946038  0  0  0.095174  0  1.013764  0  0  0.098115  0  1.010639  0  0  0.13222  0.093034  0  1.015978  0
H  H14  1  0.63898329  0.79838657  0.19075339  1  0  0.090339  0  0.945955  0  0  0.095112  0  1.013701  0  0  0.098057  0  1.010571  0  0  0.132194  0.092971  0  1.015915  0
H  H15  1  0.13898154  0.70161290  0.30924393  1  0  0.090421  0  0.946032  0  0  0.095202  0  1.013745  0  0  0.098127  0  1.010639  0  0  0.132237  0.093063  0  1.015961  0
C  C16  1  0.61683526  0.16678488  0.01821365  1  0  0.106422  0  3.727445  0  0  0.109842  0  3.976443  0  0  0.112006  0  3.994581  0  0  0.129953  0.108231  0  3.964261  0
C  C17  1  0.11683175  0.33321290  0.48179082  1  0  0.106331  0  3.727876  0  0  0.109786  0  3.976639  0  0  0.111947  0  3.994783  0  0  0.129939  0.108169  0  3.964456  0
C  C18  1  0.38316424  0.83321833  0.98178992  1  0  0.106527  0  3.727584  0  0  0.109905  0  3.976559  0  0  0.11207  0  3.994696  0  0  0.129987  0.108288  0  3.964379  0
C  C19  1  0.88316898  0.66678251  0.51821034  1  0  0.106419  0  3.727709  0  0  0.109866  0  3.97653  0  0  0.11203  0  3.994671  0  0  0.129962  0.108252  0  3.964347  0
C  C20  1  0.75897923  0.11782282  0.96029497  1  0  -0.06663  0  3.616757  0  0  -0.090968  0  3.865404  0  0  -0.09441  0  3.881065  0  0  -0.045642  -0.08881  0  3.854901  0
C  C21  1  0.25898222  0.38217893  0.53970583  1  0  -0.0667  0  3.617014  0  0  -0.091112  0  3.865606  0  0  -0.094556  0  3.88127  0  0  -0.045696  -0.088949  0  3.8551  0
C  C22  1  0.24101905  0.88218258  0.03970625  1  0  -0.066689  0  3.617134  0  0  -0.091136  0  3.865777  0  0  -0.094582  0  3.881442  0  0  -0.04572  -0.088974  0  3.855275  0
C  C23  1  0.74102095  0.61781868  0.46029384  1  0  -0.066693  0  3.616995  0  0  -0.091166  0  3.865591  0  0  -0.094608  0  3.881249  0  0  -0.045701  -0.089001  0  3.855087  0
C  C24  1  0.75566893  0.09434986  0.84105639  1  0  0.020829  0  3.606764  0  0  -0.009399  0  3.858256  0  0  -0.003149  0  3.871835  0  0  -0.032842  -0.013153  0  3.848819  0
C  C25  1  0.25566705  0.40565079  0.65894431  1  0  0.021003  0  3.606903  0  0  -0.009236  0  3.858354  0  0  -0.003004  0  3.871954  0  0  -0.032765  -0.012993  0  3.848914  0
C  C26  1  0.24433057  0.90565108  0.15894358  1  0  0.020874  0  3.606862  0  0  -0.009371  0  3.858354  0  0  -0.003138  0  3.871954  0  0  -0.032812  -0.013123  0  3.848908  0
C  C27  1  0.74433491  0.59434902  0.34105471  1  0  0.020948  0  3.606837  0  0  -0.009307  0  3.858337  0  0  -0.00307  0  3.871932  0  0  -0.032797  -0.013062  0  3.848898  0
C  C28  1  0.60864025  0.11722595  0.78562935  1  0  -0.104487  0  3.690612  0  0  -0.082527  0  3.919809  0  0  -0.094067  0  3.938214  0  0  0.008433  -0.075291  0  3.907804  0
C  C29  1  0.10864468  0.38277538  0.71437133  1  0  -0.104588  0  3.690711  0  0  -0.082603  0  3.919912  0  0  -0.094142  0  3.938326  0  0  0.008427  -0.075366  0  3.907913  0
C  C30  1  0.39135926  0.88277388  0.21437052  1  0  -0.104546  0  3.690602  0  0  -0.082546  0  3.919843  0  0  -0.094088  0  3.938259  0  0  0.008412  -0.075309  0  3.907836  0
C  C31  1  0.89135850  0.61722332  0.28562759  1  0  -0.104517  0  3.690614  0  0  -0.082537  0  3.919825  0  0  -0.094076  0  3.938235  0  0  0.008431  -0.075297  0  3.90782  0
C  C32  1  0.47432199  0.17554877  0.85053522  1  0  0.167336  0  3.65954  0  0  0.131604  0  3.921454  0  0  0.14316  0  3.933718  0  0  0.07948  0.123976  0  3.913149  0
C  C33  1  0.97432231  0.32445199  0.64946562  1  0  0.167263  0  3.659513  0  0  0.131518  0  3.921452  0  0  0.143064  0  3.933712  0  0  0.079429  0.12389  0  3.913148  0
C  C34  1  0.52567630  0.82445216  0.14946390  1  0  0.167449  0  3.659483  0  0  0.131657  0  3.921491  0  0  0.143203  0  3.933746  0  0  0.079483  0.12403  0  3.913181  0
C  C35  1  0.02567964  0.67554894  0.35053350  1  0  0.16732  0  3.659579  0  0  0.131552  0  3.921532  0  0  0.143107  0  3.933798  0  0  0.079476  0.123927  0  3.913224  0
C  C36  1  0.58818666  0.07880339  0.65956495  1  0  0.73197  0  3.805721  0  0  0.70007  0  4.08994  0  0  0.741893  0  4.075172  0  0  0.266136  0.671078  0  4.099191  0
C  C37  1  0.08818858  0.42119807  0.84043827  1  0  0.731965  0  3.805825  0  0  0.700012  0  4.090141  0  0  0.741834  0  4.07537  0  0  0.266095  0.671011  0  4.099414  0
C  C38  1  0.41180918  0.92119870  0.34043767  1  0  0.732098  0  3.805669  0  0  0.700124  0  4.090016  0  0  0.741948  0  4.075245  0  0  0.26618  0.67113  0  4.09927  0
C  C39  1  0.91181704  0.57879956  0.15956310  1  0  0.732018  0  3.805742  0  0  0.700087  0  4.090034  0  0  0.741909  0  4.075261  0  0  0.26614  0.671082  0  4.099303  0
C  C40  1  0.59834562  0.17474832  0.14506126  1  0  0.654245  0  3.869657  0  0  0.617875  0  4.167693  0  0  0.656411  0  4.155618  0  0  0.246931  0.591436  0  4.174733  0
C  C41  1  0.09835911  0.32525723  0.35493798  1  0  0.654181  0  3.870273  0  0  0.618056  0  4.167874  0  0  0.656596  0  4.155799  0  0  0.247046  0.591624  0  4.174905  0
C  C42  1  0.40164777  0.82525816  0.85493837  1  0  0.654011  0  3.870049  0  0  0.617794  0  4.167868  0  0  0.65633  0  4.155797  0  0  0.246897  0.591358  0  4.174903  0
C  C43  1  0.90164773  0.67474259  0.64506104  1  0  0.654075  0  3.870298  0  0  0.617916  0  4.167973  0  0  0.656454  0  4.155897  0  0  0.24702  0.591479  0  4.175007  0
N  N44  1  0.47895174  0.20256093  0.96443725  1  0  -0.38558  0  3.248274  0  0  -0.359827  0  3.536136  0  0  -0.381579  0  3.560104  0  0  -0.343325  -0.344588  0  3.519312  0
N  N45  1  0.97895330  0.29743981  0.53556444  1  0  -0.385378  0  3.248456  0  0  -0.35967  0  3.536301  0  0  -0.381426  0  3.560278  0  0  -0.343256  -0.34443  0  3.519473  0
N  N46  1  0.52104777  0.79744221  0.03556208  1  0  -0.385601  0  3.248351  0  0  -0.359836  0  3.536235  0  0  -0.381583  0  3.56021  0  0  -0.343319  -0.344591  0  3.519408  0
N  N47  1  0.02104742  0.70255668  0.46443512  1  0  -0.385487  0  3.248454  0  0  -0.359778  0  3.536334  0  0  -0.381533  0  3.560304  0  0  -0.343317  -0.344538  0  3.519507  0
O  O48  1  0.40624128  0.51500230  0.11997138  1  0  -0.685858  0  1.581776  0  0  -0.701091  0  1.883719  0  0  -0.724178  0  1.872023  0  0  -0.751123  -0.687218  0  1.892445  0
O  O49  1  0.90623975  0.98499817  0.38002704  1  0  -0.685807  0  1.581965  0  0  -0.700991  0  1.883951  0  0  -0.724085  0  1.872241  0  0  -0.751173  -0.687107  0  1.892667  0
O  O50  1  0.59375700  0.48499863  0.88002774  1  0  -0.685845  0  1.58172  0  0  -0.701131  0  1.883668  0  0  -0.724216  0  1.871992  0  0  -0.751128  -0.687226  0  1.89239  0
O  O51  1  0.09376098  0.01499944  0.61997263  1  0  -0.685767  0  1.581968  0  0  -0.700969  0  1.883925  0  0  -0.724057  0  1.872213  0  0  -0.751185  -0.687089  0  1.892648  0
O  O52  1  0.12418126  0.20789928  0.07007398  1  0  -0.692133  0  1.575428  0  0  -0.703979  0  1.866362  0  0  -0.727075  0  1.853601  0  0  -0.756071  -0.690163  0  1.875752  0
O  O53  1  0.62418335  0.29210837  0.42992546  1  0  -0.692183  0  1.575168  0  0  -0.704033  0  1.866122  0  0  -0.727145  0  1.853352  0  0  -0.756032  -0.690205  0  1.87551  0
O  O54  1  0.87581580  0.79210158  0.92992089  1  0  -0.69216  0  1.575487  0  0  -0.704075  0  1.866419  0  0  -0.727166  0  1.853667  0  0  -0.756165  -0.690237  0  1.875825  0
O  O55  1  0.37581983  0.70789485  0.57007896  1  0  -0.692162  0  1.575193  0  0  -0.704033  0  1.866131  0  0  -0.727141  0  1.853364  0  0  -0.756015  -0.690204  0  1.875518  0
O  O56  1  0.71180555  0.12380476  0.20204230  1  0  -0.615378  0  2.049147  0  0  -0.596638  0  2.308535  0  0  -0.628882  0  2.300623  0  0  -0.342362  -0.573125  0  2.31259  0
O  O57  1  0.21179544  0.37619034  0.29796114  1  0  -0.615378  0  2.050072  0  0  -0.596734  0  2.309323  0  0  -0.62896  0  2.301401  0  0  -0.34242  -0.573231  0  2.313389  0
O  O58  1  0.28819273  0.87619398  0.79795917  1  0  -0.615259  0  2.049404  0  0  -0.596587  0  2.308734  0  0  -0.628824  0  2.300823  0  0  -0.342322  -0.573078  0  2.312799  0
O  O59  1  0.78820039  0.62380616  0.70203928  1  0  -0.615305  0  2.04967  0  0  -0.596679  0  2.308952  0  0  -0.628907  0  2.301043  0  0  -0.342414  -0.573162  0  2.313011  0
O  O60  1  0.44665128  0.03601322  0.62423687  1  0  -0.668221  0  2.103331  0  0  -0.658641  0  2.383402  0  0  -0.696044  0  2.37577  0  0  -0.36342  -0.631281  0  2.387145  0
O  O61  1  0.94665354  0.46398545  0.87576461  1  0  -0.66823  0  2.103389  0  0  -0.658633  0  2.383447  0  0  -0.696031  0  2.375834  0  0  -0.363412  -0.631255  0  2.387178  0
O  O62  1  0.55335067  0.96398549  0.37576290  1  0  -0.668282  0  2.103313  0  0  -0.658641  0  2.383377  0  0  -0.696053  0  2.375753  0  0  -0.36341  -0.631284  0  2.387121  0
O  O63  1  0.05334719  0.53601551  0.12423621  1  0  -0.668239  0  2.1035  0  0  -0.658641  0  2.383558  0  0  -0.696038  0  2.375933  0  0  -0.363408  -0.631277  0  2.387302  0
O  O64  1  0.71032867  0.09188201  0.59527001  1  0  -0.641109  0  2.0462  0  0  -0.623252  0  2.307513  0  0  -0.658524  0  2.299311  0  0  -0.342232  -0.5974  0  2.311724  0
O  O65  1  0.21033074  0.40811881  0.90472728  1  0  -0.641083  0  2.04628  0  0  -0.623239  0  2.307641  0  0  -0.658492  0  2.299422  0  0  -0.342215  -0.597385  0  2.311861  0
O  O66  1  0.28967084  0.90812448  0.40472962  1  0  -0.641155  0  2.046278  0  0  -0.623296  0  2.307666  0  0  -0.658551  0  2.299439  0  0  -0.342258  -0.597445  0  2.311881  0
O  O67  1  0.78966754  0.59186764  0.09526797  1  0  -0.641155  0  2.046069  0  0  -0.623332  0  2.307417  0  0  -0.658591  0  2.299218  0  0  -0.34227  -0.597467  0  2.311636  0
O  O68  1  0.46308820  0.22582544  0.18654970  1  0  -0.637241  0  2.091621  0  0  -0.625086  0  2.36042  0  0  -0.660352  0  2.357453  0  0  -0.343623  -0.599402  0  2.360994  0
O  O69  1  0.96308046  0.27416843  0.31344868  1  0  -0.637284  0  2.091178  0  0  -0.625204  0  2.359845  0  0  -0.66049  0  2.356885  0  0  -0.343731  -0.599515  0  2.360406  0
O  O70  1  0.53691253  0.77417436  0.81344847  1  0  -0.637193  0  2.091573  0  0  -0.625097  0  2.360294  0  0  -0.660368  0  2.357346  0  0  -0.343639  -0.599406  0  2.360864  0
O  O71  1  0.03691415  0.72582806  0.68655004  1  0  -0.637236  0  2.091545  0  0  -0.625142  0  2.360223  0  0  -0.66042  0  2.357262  0  0  -0.343694  -0.599456  0  2.360792  0
