# generated using pymatgen
data_KCoH3(CO2)3
_symmetry_space_group_name_H-M   'P 1'
_cell_length_a   6.78602904
_cell_length_b   7.06197253
_cell_length_c   7.06198450
_cell_angle_alpha   79.69895334
_cell_angle_beta   86.46037696
_cell_angle_gamma   86.45700607
_symmetry_Int_Tables_number   1
_chemical_formula_structural   KCoH3(CO2)3
_chemical_formula_sum   'K2 Co2 H6 C6 O12'
_cell_volume   331.89539692
_cell_formula_units_Z   2
loop_
 _symmetry_equiv_pos_site_id
 _symmetry_equiv_pos_as_xyz
  1  'x, y, z'
loop_
 _atom_site_type_symbol
 _atom_site_label
 _atom_site_symmetry_multiplicity
 _atom_site_fract_x
 _atom_site_fract_y
 _atom_site_fract_z
 _atom_site_occupancy
 _atom_site_hle17_ddec_charge
 _atom_site_hle17_ddec_spin_density
 _atom_site_hle17_ddec_sum_bond_order
 _atom_site_hle17_magmom
 _atom_site_hse06_10hf_ddec_charge
 _atom_site_hse06_10hf_ddec_spin_density
 _atom_site_hse06_10hf_ddec_sum_bond_order
 _atom_site_hse06_10hf_magmom
 _atom_site_hse06_ddec_charge
 _atom_site_hse06_ddec_spin_density
 _atom_site_hse06_ddec_sum_bond_order
 _atom_site_hse06_magmom
 _atom_site_pbe_cm5_charge
 _atom_site_pbe_ddec_charge
 _atom_site_pbe_ddec_spin_density
 _atom_site_pbe_ddec_sum_bond_order
 _atom_site_pbe_magmom
K  K0  1  0.24994906  0.89741278  0.10247835  1  0.940647  -0.000256  0.501132  0.0  0.888567  -0.000402  0.69417  0.0  0.905184  -0.000687  0.671851  0.0  0.828871  0.876312  -4.7e-05  0.709767  0.0
K  K1  1  0.75003870  0.10259286  0.89751836  1  0.940648  -0.000255  0.50113  0.0  0.888583  -0.000402  0.69415  0.0  0.9052  -0.000686  0.67183  0.0  0.828881  0.876315  -4.7e-05  0.709766  0.0
Co  Co2  1  0.49999857  0.99999959  0.50000206  1  1.112966  2.850019  1.861308  2.622  1.096566  2.858215  2.249127  2.692  1.171883  2.891813  2.178568  2.758  0.64907  1.034601  2.825252  2.303027  2.627
Co  Co3  1  0.00000098  0.49999676  0.00000112  1  1.112846  2.850342  1.861945  2.622  1.096085  2.858073  2.24989  2.692  1.171403  2.891703  2.179343  2.757  0.648828  1.034211  2.825287  2.303748  2.627
H  H4  1  0.48589879  0.43055294  0.32640245  1  -0.000564  0.002309  0.936762  0.005  0.006341  0.001459  1.013566  0.003  0.005369  0.000907  1.008706  0.002  0.110361  0.007179  0.002057  1.017204  0.003
H  H5  1  0.01398486  0.67347535  0.56952429  1  -4.6e-05  0.002303  0.93713  0.005  0.006646  0.001456  1.014027  0.003  0.005682  0.000906  1.009168  0.002  0.110541  0.007492  0.002052  1.017641  0.003
H  H6  1  0.51410418  0.56944555  0.67360020  1  -0.000583  0.002309  0.93676  0.005  0.006332  0.001459  1.013558  0.003  0.005361  0.000907  1.008697  0.002  0.110327  0.007169  0.002057  1.017198  0.003
H  H7  1  0.98601381  0.32652024  0.43047349  1  -0.000123  0.002303  0.93714  0.005  0.006606  0.001456  1.013999  0.003  0.005642  0.000906  1.009138  0.002  0.11052  0.007452  0.002052  1.017613  0.003
H  H8  1  0.24997196  0.37915479  0.62087553  1  -0.006363  -0.000199  0.947131  0.001  0.004134  -0.000137  1.023416  0.001  0.00299  -0.00028  1.018567  0.0  0.11223  0.004657  5.3e-05  1.027503  0.001
H  H9  1  0.75002801  0.62084369  0.37912165  1  -0.006384  -0.0002  0.947131  0.001  0.004116  -0.000137  1.023412  0.001  0.002973  -0.00028  1.018562  0.0  0.11222  0.004639  5.3e-05  1.027502  0.001
C  C10  1  0.36022424  0.37526567  0.26302266  1  0.599283  -0.014168  3.900406  -0.01  0.538577  -0.002449  4.216319  0.0  0.57586  -0.001381  4.206788  0.001  0.153135  0.511335  -0.004281  4.222016  -0.002
C  C11  1  0.13972902  0.73693143  0.62468241  1  0.598819  -0.014163  3.900793  -0.01  0.53832  -0.00244  4.216514  0.0  0.575599  -0.001373  4.206987  0.001  0.153046  0.511069  -0.00427  4.222213  -0.002
C  C12  1  0.63977535  0.62474001  0.73697751  1  0.599305  -0.014167  3.900538  -0.01  0.538592  -0.002449  4.216443  0.0  0.575875  -0.001379  4.206912  0.001  0.153171  0.511347  -0.004281  4.222141  -0.002
C  C13  1  0.86027112  0.26306417  0.37531527  1  0.599  -0.014166  3.900603  -0.01  0.538481  -0.002441  4.216319  0.0  0.575761  -0.001372  4.20679  0.001  0.153116  0.511225  -0.004271  4.222025  -0.002
C  C14  1  0.24999602  0.25660343  0.74343010  1  0.613344  -0.010134  3.883916  -0.007  0.551689  0.000316  4.189118  0.002  0.5891  0.000471  4.179735  0.002  0.149947  0.523649  -0.000864  4.196824  0.001
C  C15  1  0.75000219  0.74340080  0.25657183  1  0.613307  -0.010124  3.88397  -0.007  0.551652  0.000318  4.189166  0.002  0.589062  0.000472  4.179788  0.002  0.149948  0.523612  -0.000861  4.196872  0.001
O  O16  1  0.34131215  0.19432850  0.29602072  1  -0.629678  0.031187  2.133476  0.058  -0.597102  0.023078  2.416571  0.039  -0.630521  0.017405  2.404354  0.03  -0.359189  -0.570638  0.029367  2.423222  0.049
O  O17  1  0.15861961  0.70395749  0.80565794  1  -0.629748  0.031227  2.133194  0.058  -0.597217  0.023095  2.416357  0.039  -0.630643  0.017418  2.404148  0.03  -0.359347  -0.570744  0.029396  2.422997  0.049
O  O18  1  0.65869082  0.80566999  0.70398193  1  -0.629594  0.03118  2.133664  0.058  -0.597015  0.023075  2.416748  0.039  -0.630431  0.017402  2.404534  0.03  -0.359162  -0.570552  0.029362  2.423404  0.049
O  O19  1  0.84137896  0.29603955  0.19433675  1  -0.629803  0.031231  2.133143  0.058  -0.597287  0.023098  2.41634  0.039  -0.630715  0.01742  2.404128  0.03  -0.359379  -0.570812  0.029399  2.422985  0.049
O  O20  1  0.24827386  0.50116123  0.16554749  1  -0.635312  0.030982  2.145651  0.058  -0.596005  0.024112  2.421721  0.041  -0.630034  0.018403  2.408873  0.032  -0.371158  -0.5696  0.030151  2.429955  0.051
O  O21  1  0.25179040  0.83443001  0.49895394  1  -0.635237  0.030961  2.146168  0.058  -0.596002  0.024113  2.422215  0.041  -0.630026  0.018404  2.409349  0.032  -0.370922  -0.569607  0.030155  2.430517  0.051
O  O22  1  0.75173220  0.49883439  0.83445263  1  -0.635398  0.030988  2.145583  0.058  -0.596096  0.024115  2.421657  0.041  -0.630126  0.018405  2.408806  0.032  -0.371196  -0.569693  0.030155  2.429909  0.051
O  O23  1  0.74820670  0.16556702  0.50104227  1  -0.635283  0.030962  2.146091  0.058  -0.596053  0.024114  2.422147  0.041  -0.630077  0.018405  2.409279  0.032  -0.370944  -0.569656  0.030155  2.430451  0.051
O  O24  1  0.37747675  0.11836711  0.73766840  1  -0.663983  0.029876  2.16851  0.055  -0.62214  0.024825  2.440678  0.041  -0.655102  0.019022  2.428052  0.031  -0.403146  -0.597751  0.030475  2.450123  0.049
O  O25  1  0.12246761  0.26240548  0.88160013  1  -0.664073  0.029894  2.169124  0.055  -0.622147  0.02483  2.441277  0.041  -0.655119  0.019027  2.42866  0.031  -0.403321  -0.597761  0.030488  2.450709  0.049
O  O26  1  0.62252178  0.88163136  0.26233313  1  -0.663922  0.029871  2.168587  0.055  -0.622084  0.024822  2.440765  0.041  -0.655038  0.01902  2.428127  0.031  -0.403123  -0.597697  0.030472  2.450212  0.049
O  O27  1  0.87753511  0.73759733  0.11840176  1  -0.66407  0.029891  2.169027  0.055  -0.62214  0.024828  2.441161  0.041  -0.655111  0.019025  2.428546  0.031  -0.403324  -0.597751  0.030486  2.45059  0.049
