# generated using pymatgen
data_BaH9C11N3O5
_symmetry_space_group_name_H-M   'P 1'
_cell_length_a   7.04045007
_cell_length_b   13.28013330
_cell_length_c   14.58900000
_cell_angle_alpha   113.72873061
_cell_angle_beta   90.00000000
_cell_angle_gamma   90.00000000
_symmetry_Int_Tables_number   1
_chemical_formula_structural   BaH9C11N3O5
_chemical_formula_sum   'Ba4 H36 C44 N12 O20'
_cell_volume   1248.72898734
_cell_formula_units_Z   4
loop_
 _symmetry_equiv_pos_site_id
 _symmetry_equiv_pos_as_xyz
  1  'x, y, z'
loop_
 _atom_site_type_symbol
 _atom_site_label
 _atom_site_symmetry_multiplicity
 _atom_site_fract_x
 _atom_site_fract_y
 _atom_site_fract_z
 _atom_site_occupancy
 _atom_site_hle17_bader_spin_density
 _atom_site_hle17_ddec_charge
 _atom_site_hle17_ddec_spin_density
 _atom_site_hle17_ddec_sum_bond_order
 _atom_site_hle17_magmom
 _atom_site_hse06_10hf_bader_spin_density
 _atom_site_hse06_10hf_ddec_charge
 _atom_site_hse06_10hf_ddec_spin_density
 _atom_site_hse06_10hf_ddec_sum_bond_order
 _atom_site_hse06_10hf_magmom
 _atom_site_hse06_bader_spin_density
 _atom_site_hse06_ddec_charge
 _atom_site_hse06_ddec_spin_density
 _atom_site_hse06_ddec_sum_bond_order
 _atom_site_hse06_magmom
 _atom_site_pbe_bader_charge
 _atom_site_pbe_bader_spin_density
 _atom_site_pbe_cm5_charge
 _atom_site_pbe_ddec_charge
 _atom_site_pbe_ddec_spin_density
 _atom_site_pbe_ddec_sum_bond_order
 _atom_site_pbe_magmom
Ba  Ba0  1  0.54157759  0.65005198  0.46436760  1  0  1.633053  0  1.218525  0  0  1.491386  0  1.61679  0  0  1.534199  0  1.573278  0  1.682375  0  0.996998  1.459808  0  1.647672  0
Ba  Ba1  1  0.04157973  0.84994681  0.53563097  1  0  1.633085  0  1.218452  0  0  1.491456  0  1.616655  0  0  1.534266  0  1.573146  0  1.682395  0  0.99702  1.45988  0  1.647534  0
Ba  Ba2  1  0.45841956  0.34994694  0.53563180  1  0  1.633075  0  1.218494  0  0  1.491411  0  1.616746  0  0  1.534225  0  1.573238  0  1.682377  0  0.997022  1.459852  0  1.647598  0
Ba  Ba3  1  0.95841884  0.15005293  0.46436942  1  0  1.633097  0  1.218435  0  0  1.491461  0  1.61664  0  0  1.534272  0  1.573132  0  1.682392  0  0.997024  1.459886  0  1.64752  0
H  H4  1  0.93437208  0.30467591  0.75803778  1  0  0.138284  0  0.910597  0  0  0.151302  0  0.966857  0  0  0.154352  0  0.964711  0  0.113734  0  0.121582  0.149143  0  0.96843  0
H  H5  1  0.43436996  0.19532068  0.24196155  1  0  0.138281  0  0.910515  0  0  0.151274  0  0.96681  0  0  0.154325  0  0.964665  0  0.113683  0  0.121586  0.149113  0  0.968384  0
H  H6  1  0.06563217  0.69532302  0.24196093  1  0  0.138286  0  0.910606  0  0  0.151317  0  0.966857  0  0  0.154368  0  0.96471  0  0.113748  0  0.121599  0.149159  0  0.968427  0
H  H7  1  0.56563429  0.80467989  0.75803983  1  0  0.138261  0  0.9106  0  0  0.151311  0  0.966832  0  0  0.154363  0  0.964687  0  0.113658  0  0.121565  0.14915  0  0.968403  0
H  H8  1  0.02013224  0.19866266  0.79184500  1  0  0.119479  0  0.915703  0  0  0.134841  0  0.972015  0  0  0.13672  0  0.970892  0  0.073976  0  0.114541  0.133459  0  0.972921  0
H  H9  1  0.52012868  0.30133474  0.20815532  1  0  0.119515  0  0.915686  0  0  0.134867  0  0.971997  0  0  0.136769  0  0.970847  0  0.073868  0  0.114578  0.133484  0  0.9729  0
H  H10  1  0.97986917  0.80133626  0.20815440  1  0  0.119524  0  0.915683  0  0  0.134885  0  0.971997  0  0  0.136767  0  0.970871  0  0.074001  0  0.114559  0.133503  0  0.972902  0
H  H11  1  0.47987131  0.69866665  0.79184635  1  0  0.11954  0  0.915673  0  0  0.134895  0  0.971991  0  0  0.136796  0  0.970843  0  0.073846  0  0.114592  0.133511  0  0.972896  0
H  H12  1  0.74845357  0.46152714  0.87984501  1  0  0.120023  0  0.951316  0  0  0.130325  0  1.010542  0  0  0.134081  0  1.008806  0  0.100324  0  0.109513  0.127564  0  1.012007  0
H  H13  1  0.24845145  0.03847026  0.12015256  1  0  0.120041  0  0.951257  0  0  0.130368  0  1.010468  0  0  0.134126  0  1.008727  0  0.100305  0  0.109506  0.127605  0  1.011935  0
H  H14  1  0.25154784  0.53847342  0.12015362  1  0  0.120031  0  0.951301  0  0  0.13033  0  1.010533  0  0  0.134087  0  1.008797  0  0.100352  0  0.109503  0.127567  0  1.011998  0
H  H15  1  0.75155280  0.96153031  0.87984881  1  0  0.12004  0  0.951295  0  0  0.130371  0  1.010492  0  0  0.134128  0  1.008753  0  0.100313  0  0.109497  0.127608  0  1.01196  0
H  H16  1  0.66961344  0.57017993  0.06032841  1  0  0.068808  0  0.932066  0  0  0.08049  0  0.990651  0  0  0.082685  0  0.989539  0  0.077713  0  0.111394  0.078834  0  0.991595  0
H  H17  1  0.16961558  0.92981805  0.93966848  1  0  0.068868  0  0.932057  0  0  0.080524  0  0.990655  0  0  0.082719  0  0.989542  0  0.077702  0  0.111395  0.078868  0  0.991599  0
H  H18  1  0.33038229  0.42981982  0.93966992  1  0  0.068807  0  0.932193  0  0  0.080493  0  0.99076  0  0  0.082688  0  0.989647  0  0.07772  0  0.111378  0.078837  0  0.991703  0
H  H19  1  0.83038441  0.07018088  0.06033298  1  0  0.068834  0  0.932117  0  0  0.080512  0  0.990693  0  0  0.082708  0  0.989578  0  0.077707  0  0.111387  0.078856  0  0.991637  0
H  H20  1  0.95859497  0.20582124  0.96441855  1  0  0.104412  0  0.960598  0  0  0.115736  0  1.019209  0  0  0.118405  0  1.019734  0  0.040617  0  0.103204  0.11378  0  1.019051  0
H  H21  1  0.45859426  0.29417781  0.03558169  1  0  0.10447  0  0.960569  0  0  0.115788  0  1.019184  0  0  0.118447  0  1.019719  0  0.04045  0  0.103213  0.11383  0  1.019029  0
H  H22  1  0.04141070  0.79418015  0.03558176  1  0  0.104439  0  0.960621  0  0  0.115775  0  1.019219  0  0  0.118434  0  1.019754  0  0.040401  0  0.103205  0.113819  0  1.019061  0
H  H23  1  0.54140857  0.70582193  0.96441801  1  0  0.104424  0  0.96059  0  0  0.11574  0  1.019219  0  0  0.118402  0  1.019751  0  0.040454  0  0.103197  0.113783  0  1.019062  0
H  H24  1  0.87573237  0.32624130  0.14160662  1  0  0.067381  0  0.963652  0  0  0.071685  0  1.03598  0  0  0.073632  0  1.035137  0  0.064847  0  0.107816  0.070212  0  1.036683  0
H  H25  1  0.37573166  0.17375940  0.85839421  1  0  0.067375  0  0.96367  0  0  0.071687  0  1.035985  0  0  0.073639  0  1.035136  0  0.06484  0  0.107818  0.070213  0  1.036689  0
H  H26  1  0.12426904  0.67375927  0.85839338  1  0  0.067362  0  0.963687  0  0  0.071662  0  1.03601  0  0  0.07361  0  1.035165  0  0.06483  0  0.107801  0.070189  0  1.036713  0
H  H27  1  0.62426407  0.82624117  0.14160647  1  0  0.067366  0  0.963674  0  0  0.071652  0  1.036016  0  0  0.073592  0  1.035181  0  0.064828  0  0.107809  0.070179  0  1.03672  0
H  H28  1  0.53638048  0.29447886  0.73182946  1  0  0.332006  0  0.898678  0  0  0.311281  0  0.962028  0  0  0.320408  0  0.954194  0  0.56699  0  0.31781  0.304822  0  0.967589  0
H  H29  1  0.03637552  0.20552183  0.26817274  1  0  0.331951  0  0.898759  0  0  0.311239  0  0.962087  0  0  0.320361  0  0.954254  0  0.567087  0  0.317792  0.304782  0  0.967645  0
H  H30  1  0.46362093  0.70552171  0.26817122  1  0  0.33197  0  0.898752  0  0  0.311264  0  0.962081  0  0  0.320388  0  0.954245  0  0.566994  0  0.317818  0.304805  0  0.967642  0
H  H31  1  0.96362589  0.79447709  0.73182528  1  0  0.331974  0  0.898753  0  0  0.311274  0  0.962071  0  0  0.320397  0  0.954238  0  0.567009  0  0.317799  0.304816  0  0.96763  0
H  H32  1  0.40549822  0.51400528  0.25843875  1  0  0.381296  0  0.946082  0  0  0.338684  0  1.031115  0  0  0.350458  0  1.014018  0  0.638093  0  0.277865  0.33041  0  1.043096  0
H  H33  1  0.90550035  0.98599351  0.74155913  1  0  0.381243  0  0.946147  0  0  0.338639  0  1.031181  0  0  0.350416  0  1.014078  0  0.638116  0  0.277864  0.330367  0  1.043163  0
H  H34  1  0.59449892  0.48599446  0.74156026  1  0  0.381268  0  0.946115  0  0  0.338666  0  1.031143  0  0  0.350443  0  1.01404  0  0.638118  0  0.277884  0.330392  0  1.043127  0
H  H35  1  0.09449964  0.01400623  0.25844058  1  0  0.381241  0  0.946149  0  0  0.338637  0  1.031183  0  0  0.350414  0  1.01408  0  0.638113  0  0.277863  0.330364  0  1.043165  0
H  H36  1  0.61044393  0.52326546  0.21008085  1  0  0.385915  0  0.932185  0  0  0.344936  0  1.012868  0  0  0.356199  0  0.99668  0  0.62286  0  0.281144  0.337031  0  1.024201  0
H  H37  1  0.11044606  0.97673416  0.78991733  1  0  0.385938  0  0.932151  0  0  0.344973  0  1.012814  0  0  0.356237  0  0.996623  0  0.62284  0  0.281172  0.337071  0  1.024141  0
H  H38  1  0.38955322  0.47673429  0.78991817  1  0  0.385932  0  0.932157  0  0  0.344965  0  1.012821  0  0  0.356228  0  0.996631  0  0.622834  0  0.281155  0.337061  0  1.024152  0
H  H39  1  0.88955250  0.02326558  0.21008305  1  0  0.385928  0  0.932162  0  0  0.344959  0  1.012832  0  0  0.356222  0  0.996641  0  0.622834  0  0.28116  0.337056  0  1.02416  0
C  C40  1  0.54962111  0.91170815  0.60064253  1  0  0.661975  0  3.936907  0  0  0.615583  0  4.228423  0  0  0.650414  0  4.218078  0  1.596989  0  0.221674  0.591911  0  4.234641  0
C  C41  1  0.04962609  0.58829146  0.39935496  1  0  0.662102  0  3.936628  0  0  0.615698  0  4.228214  0  0  0.650532  0  4.217874  0  1.597115  0  0.221741  0.592026  0  4.234433  0
C  C42  1  0.45037888  0.08829324  0.39935914  1  0  0.66208  0  3.936827  0  0  0.615749  0  4.228249  0  0  0.65058  0  4.217904  0  1.597015  0  0.22175  0.592077  0  4.234468  0
C  C43  1  0.95037106  0.41170746  0.60064375  1  0  0.662006  0  3.936827  0  0  0.615661  0  4.228291  0  0  0.650492  0  4.217951  0  1.597245  0  0.221712  0.591989  0  4.234509  0
C  C44  1  0.57007293  0.03217206  0.66173131  1  0  0.015039  0  3.688966  0  0  0.00553  0  3.956282  0  0  0.00418  0  3.973044  0  0.412687  0  0.094936  0.006331  0  3.945104  0
C  C45  1  0.07007507  0.46782534  0.33826764  1  0  0.015076  0  3.688908  0  0  0.005511  0  3.956308  0  0  0.004155  0  3.973069  0  0.412741  0  0.094909  0.006312  0  3.945129  0
C  C46  1  0.42992564  0.96782851  0.33827007  1  0  0.015007  0  3.689048  0  0  0.005473  0  3.956366  0  0  0.004122  0  3.973127  0  0.412692  0  0.094942  0.006274  0  3.945187  0
C  C47  1  0.92992350  0.53217358  0.66173176  1  0  0.015071  0  3.68899  0  0  0.005531  0  3.956295  0  0  0.004182  0  3.973059  0  0.412712  0  0.09493  0.006332  0  3.945116  0
C  C48  1  0.46142363  0.12225021  0.66614416  1  0  0.027378  0  3.637198  0  0  0.011843  0  3.901742  0  0  0.012262  0  3.917175  0  0.374914  0  0.10253  0.011427  0  3.891594  0
C  C49  1  0.96142149  0.37775213  0.33385728  1  0  0.02733  0  3.637175  0  0  0.011811  0  3.901741  0  0  0.012241  0  3.917156  0  0.374822  0  0.102531  0.011397  0  3.89159  0
C  C50  1  0.53857636  0.87775035  0.33385721  1  0  0.02737  0  3.637204  0  0  0.011833  0  3.901779  0  0  0.012256  0  3.917203  0  0.374896  0  0.102509  0.011417  0  3.89163  0
C  C51  1  0.03857708  0.62224679  0.66614075  1  0  0.027364  0  3.637179  0  0  0.011871  0  3.901715  0  0  0.012287  0  3.917151  0  0.375119  0  0.102568  0.011455  0  3.891566  0
C  C52  1  0.27694252  0.13839423  0.62357058  1  0  0.64991  0  3.981959  0  0  0.603136  0  4.279981  0  0  0.637331  0  4.270046  0  1.62098  0  0.2159  0.579905  0  4.286049  0
C  C53  1  0.77694181  0.36160893  0.37643391  1  0  0.650085  0  3.981958  0  0  0.603323  0  4.279956  0  0  0.637514  0  4.270022  0  1.620698  0  0.215951  0.58009  0  4.286026  0
C  C54  1  0.72305605  0.86160634  0.37643148  1  0  0.649866  0  3.982001  0  0  0.603096  0  4.280024  0  0  0.637291  0  4.27009  0  1.620999  0  0.21589  0.579865  0  4.286091  0
C  C55  1  0.22305534  0.63838835  0.62356352  1  0  0.649933  0  3.981996  0  0  0.60314  0  4.280038  0  0  0.637334  0  4.270107  0  1.620431  0  0.215927  0.579909  0  4.286102  0
C  C56  1  0.73629384  0.17910756  0.74569702  1  0  0.390027  0  3.692903  0  0  0.359326  0  3.973927  0  0  0.373488  0  3.987556  0  1.070435  0  0.233659  0.350082  0  3.96433  0
C  C57  1  0.23629313  0.32088984  0.25430192  1  0  0.390059  0  3.692849  0  0  0.359332  0  3.9739  0  0  0.373491  0  3.987534  0  1.07044  0  0.233648  0.350085  0  3.964303  0
C  C58  1  0.26370757  0.82089300  0.25430298  1  0  0.390018  0  3.692897  0  0  0.35935  0  3.973899  0  0  0.373517  0  3.98752  0  1.070435  0  0.233643  0.350106  0  3.964304  0
C  C59  1  0.76370970  0.67910990  0.74569778  1  0  0.390123  0  3.692826  0  0  0.359469  0  3.973807  0  0  0.373639  0  3.987428  0  1.070398  0  0.233706  0.350222  0  3.964212  0
C  C60  1  0.89844256  0.25273982  0.79834231  1  0  -0.258858  0  3.683692  0  0  -0.300043  0  3.923381  0  0  -0.30236  0  3.929802  0  -0.009898  0  -0.137504  -0.298405  0  3.918924  0
C  C61  1  0.39844044  0.24725676  0.20165702  1  0  -0.258861  0  3.683596  0  0  -0.3  0  3.923255  0  0  -0.302334  0  3.929673  0  -0.009746  0  -0.137506  -0.298353  0  3.918782  0
C  C62  1  0.10156027  0.74725992  0.20165671  1  0  -0.258922  0  3.683704  0  0  -0.30013  0  3.923369  0  0  -0.302452  0  3.929789  0  -0.00988  0  -0.137524  -0.298492  0  3.918913  0
C  C63  1  0.60156381  0.75274216  0.79834306  1  0  -0.258945  0  3.683677  0  0  -0.300168  0  3.923373  0  0  -0.302505  0  3.929789  0  -0.0097  0  -0.137541  -0.298518  0  3.918898  0
C  C64  1  0.85776334  0.32354912  0.90701295  1  0  0.165907  0  3.726552  0  0  0.179162  0  3.965857  0  0  0.18316  0  3.989026  0  -0.023768  0  0.012241  0.17668  0  3.94997  0
C  C65  1  0.35776264  0.17644829  0.09298531  1  0  0.165934  0  3.726483  0  0  0.179195  0  3.965768  0  0  0.183193  0  3.988939  0  -0.024067  0  0.012217  0.176711  0  3.949879  0
C  C66  1  0.14224091  0.67645063  0.09298538  1  0  0.165961  0  3.726553  0  0  0.179259  0  3.965808  0  0  0.183257  0  3.988975  0  -0.023894  0  0.012265  0.176776  0  3.949921  0
C  C67  1  0.64224161  0.82355228  0.90701607  1  0  0.165934  0  3.726507  0  0  0.179192  0  3.965815  0  0  0.18319  0  3.988987  0  -0.023772  0  0.01222  0.176708  0  3.949926  0
C  C68  1  0.77851699  0.42849388  0.93567061  1  0  -0.179076  0  3.712297  0  0  -0.199213  0  3.963687  0  0  -0.206971  0  3.985617  0  -0.015422  0  -0.088744  -0.194171  0  3.948969  0
C  C69  1  0.27851344  0.07150270  0.06432666  1  0  -0.179098  0  3.712151  0  0  -0.199263  0  3.963519  0  0  -0.207023  0  3.985448  0  -0.015041  0  -0.088765  -0.194219  0  3.948801  0
C  C70  1  0.22148300  0.57150504  0.06432741  1  0  -0.179086  0  3.712342  0  0  -0.19924  0  3.963717  0  0  -0.206999  0  3.985648  0  -0.015278  0  -0.088764  -0.194195  0  3.948997  0
C  C71  1  0.72148797  0.92849787  0.93567471  1  0  -0.179075  0  3.712185  0  0  -0.199242  0  3.96356  0  0  -0.207003  0  3.985491  0  -0.015113  0  -0.088702  -0.194198  0  3.948842  0
C  C72  1  0.73503966  0.48896054  0.03605000  1  0  0.116404  0  3.763762  0  0  0.089021  0  4.021082  0  0  0.094812  0  4.039602  0  0.474463  0  0.040697  0.085363  0  4.008388  0
C  C73  1  0.23503753  0.01103851  0.96394749  1  0  0.116317  0  3.763772  0  0  0.088963  0  4.02109  0  0  0.094753  0  4.039611  0  0.474421  0  0.040734  0.085305  0  4.008395  0
C  C74  1  0.26496175  0.51103920  0.96394901  1  0  0.116376  0  3.763825  0  0  0.089001  0  4.021128  0  0  0.094792  0  4.039647  0  0.474448  0  0.040734  0.085343  0  4.008434  0
C  C75  1  0.76496246  0.98896206  0.03605388  1  0  0.116323  0  3.763631  0  0  0.088949  0  4.020954  0  0  0.09474  0  4.039473  0  0.474417  0  0.040696  0.085291  0  4.00826  0
C  C76  1  0.89464593  0.28636120  0.98249360  1  0  -0.190087  0  3.73242  0  0  -0.20721  0  3.979296  0  0  -0.215347  0  4.002174  0  0.011542  0  -0.091884  -0.201872  0  3.963837  0
C  C77  1  0.39464380  0.21363785  0.01750526  1  0  -0.190207  0  3.732546  0  0  -0.207329  0  3.979425  0  0  -0.215461  0  4.002309  0  0.011726  0  -0.091903  -0.20199  0  3.963967  0
C  C78  1  0.10535690  0.71364019  0.01750602  1  0  -0.190192  0  3.732508  0  0  -0.207348  0  3.979385  0  0  -0.215479  0  4.002267  0  0.011741  0  -0.091924  -0.202008  0  3.963925  0
C  C79  1  0.60535761  0.78636354  0.98249504  1  0  -0.19014  0  3.73256  0  0  -0.207262  0  3.979427  0  0  -0.215393  0  4.002307  0  0.011643  0  -0.091919  -0.201923  0  3.963967  0
C  C80  1  0.84825685  0.35314827  0.08126879  1  0  0.118466  0  3.75904  0  0  0.089171  0  4.021846  0  0  0.095306  0  4.039668  0  0.467499  0  0.038969  0.085292  0  4.009642  0
C  C81  1  0.34825757  0.14685078  0.91873007  1  0  0.118497  0  3.759132  0  0  0.089197  0  4.021932  0  0  0.095328  0  4.039752  0  0.467515  0  0.038984  0.085318  0  4.009729  0
C  C82  1  0.15174456  0.64685312  0.91873014  1  0  0.118533  0  3.759112  0  0  0.089248  0  4.021902  0  0  0.095384  0  4.039722  0  0.467469  0  0.03902  0.085368  0  4.0097  0
C  C83  1  0.65174100  0.85314896  0.08127031  1  0  0.118512  0  3.759047  0  0  0.089238  0  4.021845  0  0  0.095378  0  4.039667  0  0.467472  0  0.039012  0.085358  0  4.009644  0
N  N84  1  0.73839029  0.06988970  0.71308600  1  0  -0.442748  0  3.07852  0  0  -0.395815  0  3.340296  0  0  -0.410695  0  3.353919  0  -1.241253  0  -0.314149  -0.385641  0  3.330915  0
N  N85  1  0.23838959  0.43010853  0.28691324  1  0  -0.442783  0  3.078445  0  0  -0.395815  0  3.340219  0  0  -0.410693  0  3.353846  0  -1.241231  0  -0.314145  -0.385643  0  3.330841  0
N  N86  1  0.26161112  0.93011087  0.28691400  1  0  -0.442734  0  3.078598  0  0  -0.395804  0  3.340363  0  0  -0.410685  0  3.353985  0  -1.241257  0  -0.314151  -0.38563  0  3.330982  0
N  N87  1  0.76161182  0.56989121  0.71308646  1  0  -0.442789  0  3.078486  0  0  -0.395862  0  3.34024  0  0  -0.410743  0  3.353861  0  -1.241231  0  -0.314181  -0.385687  0  3.330862  0
N  N88  1  0.57086833  0.21361729  0.71967197  1  0  -0.354644  0  3.372363  0  0  -0.294743  0  3.604847  0  0  -0.31078  0  3.617418  0  -1.292839  0  -0.360225  -0.283916  0  3.596294  0
N  N89  1  0.07086763  0.28638259  0.28032993  1  0  -0.354644  0  3.372473  0  0  -0.294736  0  3.604953  0  0  -0.310776  0  3.617528  0  -1.292927  0  -0.360208  -0.283911  0  3.596403  0
N  N90  1  0.42913166  0.78638328  0.28032871  1  0  -0.354593  0  3.372419  0  0  -0.294733  0  3.604921  0  0  -0.310768  0  3.617488  0  -1.292832  0  -0.36022  -0.283906  0  3.596369  0
N  N91  1  0.92913378  0.71361634  0.71966878  1  0  -0.354691  0  3.372472  0  0  -0.294846  0  3.604954  0  0  -0.310891  0  3.61754  0  -1.292835  0  -0.360264  -0.284022  0  3.596409  0
N  N92  1  0.76685012  0.45252361  0.10831338  1  0  -0.322252  0  3.156573  0  0  -0.265612  0  3.408868  0  0  -0.278974  0  3.423862  0  -1.237727  0  -0.312946  -0.256602  0  3.39857  0
N  N93  1  0.26685084  0.04747709  0.89168540  1  0  -0.322242  0  3.156571  0  0  -0.26561  0  3.408862  0  0  -0.278973  0  3.423857  0  -1.237825  0  -0.312974  -0.256599  0  3.398563  0
N  N94  1  0.23314845  0.54747696  0.89168525  1  0  -0.322254  0  3.156535  0  0  -0.265627  0  3.408834  0  0  -0.27899  0  3.423827  0  -1.237739  0  -0.312975  -0.256617  0  3.398537  0
N  N95  1  0.73314631  0.95252430  0.10831627  1  0  -0.322233  0  3.156365  0  0  -0.265599  0  3.408657  0  0  -0.278961  0  3.423645  0  -1.237824  0  -0.312955  -0.256589  0  3.39836  0
O  O96  1  0.67797086  0.84920817  0.61204009  1  0  -0.727834  0  1.972812  0  0  -0.668451  0  2.214526  0  0  -0.695202  0  2.205646  0  -1.219735  0  -0.400815  -0.649481  0  2.219993  0
O  O97  1  0.17797300  0.65078980  0.38795680  1  0  -0.727901  0  1.972798  0  0  -0.66853  0  2.214561  0  0  -0.695283  0  2.205679  0  -1.219795  0  -0.400829  -0.649563  0  2.220031  0
O  O98  1  0.32202771  0.15079240  0.38796060  1  0  -0.72793  0  1.972851  0  0  -0.668542  0  2.21451  0  0  -0.695292  0  2.205627  0  -1.219747  0  -0.400864  -0.649575  0  2.219978  0
O  O99  1  0.82202415  0.34920912  0.61204123  1  0  -0.727827  0  1.972922  0  0  -0.668462  0  2.214609  0  0  -0.695213  0  2.205729  0  -1.219835  0  -0.400815  -0.649496  0  2.220077  0
O  O100  1  0.41735968  0.87651078  0.53664463  1  0  -0.712649  0  2.042648  0  0  -0.655006  0  2.288181  0  0  -0.682236  0  2.280844  0  -1.222867  0  -0.399613  -0.635821  0  2.292626  0
O  O101  1  0.91736465  0.62349048  0.46335552  1  0  -0.712675  0  2.042457  0  0  -0.655039  0  2.288052  0  0  -0.682241  0  2.280649  0  -1.222865  0  -0.399642  -0.635851  0  2.292494  0
O  O102  1  0.58263747  0.12348978  0.46335743  1  0  -0.712643  0  2.042582  0  0  -0.655043  0  2.288127  0  0  -0.682266  0  2.280774  0  -1.222873  0  -0.399626  -0.635859  0  2.292573  0
O  O103  1  0.08262966  0.37650845  0.53664388  1  0  -0.712643  0  2.042501  0  0  -0.655029  0  2.288056  0  0  -0.682252  0  2.280707  0  -1.222928  0  -0.399631  -0.635845  0  2.292498  0
O  O104  1  0.15589486  0.06096923  0.59038321  1  0  -0.730672  0  2.001565  0  0  -0.673552  0  2.2503  0  0  -0.700171  0  2.241122  0  -1.228492  0  -0.399447  -0.654834  0  2.256177  0
O  O105  1  0.65589557  0.43903722  0.40961905  1  0  -0.730762  0  2.001647  0  0  -0.67364  0  2.250372  0  0  -0.700263  0  2.241195  0  -1.228349  0  -0.399442  -0.654922  0  2.256249  0
O  O106  1  0.84410513  0.93903133  0.40961885  1  0  -0.730679  0  2.0016  0  0  -0.673554  0  2.250328  0  0  -0.700175  0  2.24115  0  -1.228522  0  -0.399455  -0.654835  0  2.256203  0
O  O107  1  0.34410300  0.56096006  0.59037974  1  0  -0.730696  0  2.001662  0  0  -0.673559  0  2.250398  0  0  -0.700179  0  2.241225  0  -1.228408  0  -0.39946  -0.65484  0  2.256271  0
O  O108  1  0.25027093  0.23300294  0.62306887  1  0  -0.708474  0  1.99141  0  0  -0.653166  0  2.230261  0  0  -0.678974  0  2.222282  0  -1.206849  0  -0.380128  -0.635016  0  2.235154  0
O  O109  1  0.75026453  0.26700269  0.37693584  1  0  -0.708535  0  1.991528  0  0  -0.653207  0  2.23032  0  0  -0.679013  0  2.222335  0  -1.206728  0  -0.380162  -0.635071  0  2.235247  0
O  O110  1  0.74972622  0.76699680  0.37693221  1  0  -0.708423  0  1.991455  0  0  -0.653114  0  2.230305  0  0  -0.678922  0  2.222321  0  -1.206851  0  -0.380112  -0.634966  0  2.235206  0
O  O111  1  0.24973403  0.73299377  0.62305923  1  0  -0.708453  0  1.991476  0  0  -0.653127  0  2.230288  0  0  -0.678934  0  2.222304  0  -1.206724  0  -0.380164  -0.634983  0  2.235199  0
O  O112  1  0.50362973  0.56652949  0.25319235  1  0  -0.868499  0  1.946713  0  0  -0.810676  0  2.147873  0  0  -0.830441  0  2.114529  0  -1.312199  0  -0.617034  -0.796339  0  2.17068  0
O  O113  1  0.00363187  0.93347013  0.74680651  1  0  -0.868447  0  1.946776  0  0  -0.810659  0  2.147909  0  0  -0.830418  0  2.114546  0  -1.312203  0  -0.617057  -0.796332  0  2.170708  0
O  O114  1  0.49636883  0.43347026  0.74680735  1  0  -0.868477  0  1.946787  0  0  -0.810673  0  2.147908  0  0  -0.830437  0  2.11456  0  -1.312196  0  -0.617056  -0.796343  0  2.170712  0
O  O115  1  0.99636812  0.06652961  0.25319319  1  0  -0.868433  0  1.946785  0  0  -0.810644  0  2.147916  0  0  -0.830404  0  2.11456  0  -1.312197  0  -0.617047  -0.796313  0  2.170716  0
