# generated using pymatgen
data_PrH3CSO7
_symmetry_space_group_name_H-M   'P 1'
_cell_length_a   6.98620438
_cell_length_b   6.98678732
_cell_length_c   11.67181533
_cell_angle_alpha   90.00006737
_cell_angle_beta   90.00048775
_cell_angle_gamma   90.01206483
_symmetry_Int_Tables_number   1
_chemical_formula_structural   PrH3CSO7
_chemical_formula_sum   'Pr4 H12 C4 S4 O28'
_cell_volume   569.71441481
_cell_formula_units_Z   4
loop_
 _symmetry_equiv_pos_site_id
 _symmetry_equiv_pos_as_xyz
  1  'x, y, z'
loop_
 _atom_site_type_symbol
 _atom_site_label
 _atom_site_symmetry_multiplicity
 _atom_site_fract_x
 _atom_site_fract_y
 _atom_site_fract_z
 _atom_site_occupancy
 _atom_site_hle17_bader_spin_density
 _atom_site_hle17_ddec_charge
 _atom_site_hle17_ddec_spin_density
 _atom_site_hle17_ddec_sum_bond_order
 _atom_site_hle17_magmom
 _atom_site_hse06_10hf_bader_spin_density
 _atom_site_hse06_10hf_ddec_charge
 _atom_site_hse06_10hf_ddec_spin_density
 _atom_site_hse06_10hf_ddec_sum_bond_order
 _atom_site_hse06_10hf_magmom
 _atom_site_hse06_bader_spin_density
 _atom_site_hse06_ddec_charge
 _atom_site_hse06_ddec_spin_density
 _atom_site_hse06_ddec_sum_bond_order
 _atom_site_hse06_magmom
 _atom_site_pbe_bader_spin_density
 _atom_site_pbe_cm5_charge
 _atom_site_pbe_ddec_charge
 _atom_site_pbe_ddec_spin_density
 _atom_site_pbe_ddec_sum_bond_order
 _atom_site_pbe_magmom
Pr  Pr0  1  0.35882578  0.11197491  0.15673835  1  0  2.40547  0  1.513178  0  0  2.295008  0  1.869903  0  0  2.330934  0  1.829304  0  0  1.514025  2.268343  0  1.898733  0
Pr  Pr1  1  0.64117881  0.88801701  0.65674040  1  0  2.405479  0  1.513165  0  0  2.295042  0  1.869877  0  0  2.330975  0  1.829278  0  0  1.514036  2.268382  0  1.89871  0
Pr  Pr2  1  0.88819248  0.35865495  0.40675402  1  0  2.405527  0  1.512132  0  0  2.295034  0  1.868688  0  0  2.330975  0  1.828098  0  0  1.51362  2.268364  0  1.897513  0
Pr  Pr3  1  0.11179420  0.64135178  0.90675492  1  0  2.40558  0  1.512002  0  0  2.29509  0  1.868541  0  0  2.331033  0  1.827952  0  0  1.513642  2.268421  0  1.897366  0
H  H4  1  0.84270724  0.01281710  0.11169771  1  0  0.038944  0  0.928797  0  0  0.048672  0  0.992503  0  0  0.049346  0  0.988249  0  0  0.135929  0.047944  0  0.995672  0
H  H5  1  0.15731245  0.98716901  0.61169394  1  0  0.039072  0  0.928769  0  0  0.048767  0  0.992489  0  0  0.049441  0  0.988231  0  0  0.135913  0.047972  0  0.995741  0
H  H6  1  0.98646524  0.84217217  0.36153183  1  0  0.038249  0  0.929598  0  0  0.048125  0  0.99315  0  0  0.048761  0  0.98889  0  0  0.135801  0.047385  0  0.996312  0
H  H7  1  0.01353368  0.15783877  0.86153274  1  0  0.038214  0  0.929621  0  0  0.048096  0  0.993175  0  0  0.048726  0  0.988916  0  0  0.135809  0.04736  0  0.996333  0
H  H8  1  0.59234193  0.18424232  0.92772701  1  0  0.458539  0  0.815861  0  0  0.432983  0  0.872657  0  0  0.442231  0  0.859111  0  0  0.318372  0.426381  0  0.882347  0
H  H9  1  0.40765650  0.81575443  0.42772828  1  0  0.458586  0  0.815801  0  0  0.433011  0  0.872628  0  0  0.442259  0  0.859083  0  0  0.318379  0.426408  0  0.882321  0
H  H10  1  0.81611907  0.59216649  0.17772100  1  0  0.458757  0  0.815556  0  0  0.432976  0  0.872793  0  0  0.442229  0  0.859236  0  0  0.318223  0.426356  0  0.882518  0
H  H11  1  0.18386863  0.40783407  0.67772381  1  0  0.458823  0  0.815488  0  0  0.433037  0  0.872724  0  0  0.442289  0  0.859166  0  0  0.318244  0.426416  0  0.882452  0
H  H12  1  0.53026935  0.38226964  0.97880381  1  0  0.44586  0  0.853339  0  0  0.415641  0  0.915577  0  0  0.425877  0  0.90061  0  0  0.307462  0.408424  0  0.926117  0
H  H13  1  0.46972408  0.61772579  0.47880525  1  0  0.44587  0  0.853323  0  0  0.415645  0  0.915574  0  0  0.425882  0  0.900606  0  0  0.307479  0.40843  0  0.926116  0
H  H14  1  0.61798387  0.53024885  0.22882220  1  0  0.445584  0  0.853567  0  0  0.41545  0  0.9156  0  0  0.425678  0  0.900649  0  0  0.307549  0.40824  0  0.926135  0
H  H15  1  0.38201029  0.46974894  0.72882178  1  0  0.445616  0  0.853522  0  0  0.415511  0  0.915503  0  0  0.425739  0  0.900553  0  0  0.307556  0.408302  0  0.926037  0
C  C16  1  0.84974771  0.09732887  0.19118497  1  0  0.635233  0  3.841786  0  0  0.566219  0  4.153376  0  0  0.600671  0  4.139707  0  0  0.172429  0.54285  0  4.162307  0
C  C17  1  0.15026452  0.90268173  0.69118795  1  0  0.635046  0  3.84183  0  0  0.566053  0  4.15341  0  0  0.600507  0  4.139738  0  0  0.172416  0.542724  0  4.162338  0
C  C18  1  0.90230499  0.84938273  0.44113020  1  0  0.636265  0  3.84082  0  0  0.567249  0  4.152313  0  0  0.60176  0  4.138584  0  0  0.17256  0.543895  0  4.16121  0
C  C19  1  0.09769220  0.15064124  0.94113068  1  0  0.636289  0  3.840674  0  0  0.567271  0  4.152155  0  0  0.601789  0  4.138411  0  0  0.172433  0.543917  0  4.161063  0
S  S20  1  0.61564329  0.74963629  0.96803377  1  0  1.693179  0  5.766046  0  0  1.567677  0  6.313564  0  0  1.624694  0  6.271763  0  0  0.620264  1.528069  0  6.341687  0
S  S21  1  0.38435428  0.25035338  0.46803109  1  0  1.693088  0  5.765794  0  0  1.567558  0  6.313342  0  0  1.62457  0  6.271549  0  0  0.620252  1.527955  0  6.341451  0
S  S22  1  0.25046849  0.61587472  0.21813316  1  0  1.69331  0  5.764567  0  0  1.567792  0  6.311972  0  0  1.624798  0  6.270221  0  0  0.620642  1.528205  0  6.340043  0
S  S23  1  0.74953840  0.38412735  0.71813369  1  0  1.693453  0  5.764244  0  0  1.56806  0  6.311553  0  0  1.625064  0  6.269782  0  0  0.620716  1.52847  0  6.339639  0
O  O24  1  0.66409609  0.86677524  0.86644990  1  0  -0.830436  0  2.060591  0  0  -0.784705  0  2.348884  0  0  -0.804226  0  2.327356  0  0  -0.413599  -0.770806  0  2.363357  0
O  O25  1  0.33592007  0.13320708  0.36645032  1  0  -0.830349  0  2.060543  0  0  -0.784613  0  2.34886  0  0  -0.804135  0  2.327336  0  0  -0.413535  -0.770713  0  2.363329  0
O  O26  1  0.13321749  0.66420066  0.11655057  1  0  -0.830715  0  2.059081  0  0  -0.784821  0  2.347198  0  0  -0.804343  0  2.325663  0  0  -0.413479  -0.77092  0  2.361668  0
O  O27  1  0.86678653  0.33580979  0.61654909  1  0  -0.830722  0  2.058991  0  0  -0.784861  0  2.347069  0  0  -0.804379  0  2.325532  0  0  -0.413449  -0.770957  0  2.361541  0
O  O28  1  0.46527008  0.60503897  0.93709299  1  0  -0.821378  0  2.026076  0  0  -0.761442  0  2.29073  0  0  -0.782118  0  2.270538  0  0  -0.397105  -0.746812  0  2.304461  0
O  O29  1  0.53472848  0.39495637  0.43709632  1  0  -0.821433  0  2.025942  0  0  -0.761463  0  2.290585  0  0  -0.782139  0  2.270395  0  0  -0.397178  -0.74684  0  2.304321  0
O  O30  1  0.39489137  0.46536434  0.18728223  1  0  -0.821496  0  2.026068  0  0  -0.761556  0  2.290998  0  0  -0.782213  0  2.270775  0  0  -0.397326  -0.746946  0  2.304736  0
O  O31  1  0.60510650  0.53462908  0.68728042  1  0  -0.82151  0  2.025972  0  0  -0.761685  0  2.290931  0  0  -0.782362  0  2.270752  0  0  -0.397389  -0.74707  0  2.30467  0
O  O32  1  0.54039714  0.87219598  0.06019712  1  0  -0.836449  0  2.122772  0  0  -0.786447  0  2.411621  0  0  -0.808154  0  2.392194  0  0  -0.440987  -0.771072  0  2.42462  0
O  O33  1  0.45960178  0.12780435  0.56020028  1  0  -0.836491  0  2.122733  0  0  -0.786458  0  2.411563  0  0  -0.808162  0  2.392138  0  0  -0.441007  -0.771081  0  2.424563  0
O  O34  1  0.12790829  0.54088325  0.31040810  1  0  -0.836227  0  2.121538  0  0  -0.786399  0  2.410561  0  0  -0.808093  0  2.391128  0  0  -0.440885  -0.771048  0  2.423606  0
O  O35  1  0.87208846  0.45912186  0.81040674  1  0  -0.836286  0  2.121688  0  0  -0.786461  0  2.410691  0  0  -0.80815  0  2.39125  0  0  -0.440886  -0.771109  0  2.423741  0
O  O36  1  0.79111927  0.65276236  0.01009921  1  0  -0.793272  0  1.995624  0  0  -0.738582  0  2.25865  0  0  -0.759145  0  2.238855  0  0  -0.393895  -0.723979  0  2.272046  0
O  O37  1  0.20887321  0.34722928  0.51009354  1  0  -0.793171  0  1.995555  0  0  -0.738487  0  2.258594  0  0  -0.759044  0  2.238797  0  0  -0.393845  -0.723881  0  2.271978  0
O  O38  1  0.34753568  0.79136334  0.26005240  1  0  -0.792609  0  1.995137  0  0  -0.738412  0  2.25879  0  0  -0.75893  0  2.238956  0  0  -0.393971  -0.723831  0  2.272169  0
O  O39  1  0.65247467  0.20863452  0.76005231  1  0  -0.792607  0  1.994967  0  0  -0.738501  0  2.258666  0  0  -0.759025  0  2.238839  0  0  -0.394039  -0.723917  0  2.27205  0
O  O40  1  0.69637458  0.13992750  0.24332558  1  0  -0.719649  0  2.085562  0  0  -0.669366  0  2.341435  0  0  -0.69322  0  2.330838  0  0  -0.375464  -0.652729  0  2.348331  0
O  O41  1  0.30363268  0.86007461  0.74332675  1  0  -0.719567  0  2.085697  0  0  -0.669275  0  2.341539  0  0  -0.693129  0  2.330946  0  0  -0.375423  -0.652634  0  2.348409  0
O  O42  1  0.85974393  0.69606750  0.49335842  1  0  -0.719851  0  2.085779  0  0  -0.669627  0  2.341746  0  0  -0.693488  0  2.331133  0  0  -0.375815  -0.652984  0  2.348636  0
O  O43  1  0.14025686  0.30394084  0.99336179  1  0  -0.719726  0  2.085777  0  0  -0.669508  0  2.341761  0  0  -0.693369  0  2.331143  0  0  -0.375665  -0.652869  0  2.348655  0
O  O44  1  0.01322324  0.14783924  0.23002086  1  0  -0.768479  0  2.10366  0  0  -0.721853  0  2.375089  0  0  -0.745438  0  2.362081  0  0  -0.400418  -0.705347  0  2.383666  0
O  O45  1  0.98677953  0.85216142  0.73001864  1  0  -0.768468  0  2.103527  0  0  -0.721803  0  2.374867  0  0  -0.745387  0  2.361859  0  0  -0.400433  -0.705293  0  2.383418  0
O  O46  1  0.85213989  0.01295300  0.47997121  1  0  -0.768769  0  2.102238  0  0  -0.722196  0  2.373646  0  0  -0.745788  0  2.360605  0  0  -0.40018  -0.705683  0  2.382221  0
O  O47  1  0.14784783  0.98706103  0.97997339  1  0  -0.76885  0  2.102031  0  0  -0.722313  0  2.373509  0  0  -0.745905  0  2.360456  0  0  -0.400191  -0.705803  0  2.382097  0
O  O48  1  0.55707814  0.24726336  0.99995478  1  0  -0.907939  0  1.839658  0  0  -0.863863  0  2.031021  0  0  -0.88156  0  2.001319  0  0  -0.646986  -0.851289  0  2.05173  0
O  O49  1  0.44291702  0.75273067  0.49995790  1  0  -0.908019  0  1.839617  0  0  -0.863945  0  2.030992  0  0  -0.881641  0  2.001291  0  0  -0.647017  -0.851371  0  2.051688  0
O  O50  1  0.75308020  0.55677027  0.24991182  1  0  -0.907724  0  1.840184  0  0  -0.863603  0  2.031609  0  0  -0.881286  0  2.001898  0  0  -0.646787  -0.851056  0  2.052369  0
O  O51  1  0.24691140  0.44322900  0.74991327  1  0  -0.907841  0  1.840107  0  0  -0.86372  0  2.031505  0  0  -0.8814  0  2.001794  0  0  -0.646794  -0.851173  0  2.052261  0
