# generated using pymatgen
data_CdH28C36Br4(N2O)4
_symmetry_space_group_name_H-M   'P 1'
_cell_length_a   8.91907586
_cell_length_b   9.98633711
_cell_length_c   11.76746176
_cell_angle_alpha   108.94105958
_cell_angle_beta   105.04543209
_cell_angle_gamma   91.84398212
_symmetry_Int_Tables_number   1
_chemical_formula_structural   CdH28C36Br4(N2O)4
_chemical_formula_sum   'Cd1 H28 C36 Br4 N8 O4'
_cell_volume   949.56863063
_cell_formula_units_Z   1
loop_
 _symmetry_equiv_pos_site_id
 _symmetry_equiv_pos_as_xyz
  1  'x, y, z'
loop_
 _atom_site_type_symbol
 _atom_site_label
 _atom_site_symmetry_multiplicity
 _atom_site_fract_x
 _atom_site_fract_y
 _atom_site_fract_z
 _atom_site_occupancy
 _atom_site_pbe_bader_spin_density
 _atom_site_pbe_cm5_charge
 _atom_site_pbe_ddec_charge
 _atom_site_pbe_ddec_spin_density
 _atom_site_pbe_ddec_sum_bond_order
 _atom_site_pbe_magmom
Cd  Cd0  1  0.99999284  0.50000704  0.00000337  1  0  0.78749  0.843411  0  2.314291  0
H  H1  1  0.25925189  0.98781983  0.18595425  1  0  0.115  0.099388  0  1.000663  0
H  H2  1  0.74074650  0.01217377  0.81401078  1  0  0.114966  0.099462  0  1.00059  0
H  H3  1  0.27231733  0.16071490  0.29588011  1  0  0.115828  0.101763  0  0.968028  0
H  H4  1  0.72768386  0.83926107  0.70411352  1  0  0.115778  0.101739  0  0.968003  0
H  H5  1  0.47997607  0.27867564  0.14589756  1  0  0.09794  0.098842  0  1.029459  0
H  H6  1  0.52004882  0.72132304  0.85410544  1  0  0.097924  0.098829  0  1.02943  0
H  H7  1  0.81094273  0.01314121  0.38421324  1  0  0.105468  0.116185  0  0.994365  0
H  H8  1  0.18904989  0.98685773  0.61580406  1  0  0.105464  0.11621  0  0.994427  0
H  H9  1  0.08639195  0.15813382  0.82675791  1  0  0.111515  0.114861  0  1.044375  0
H  H10  1  0.91360364  0.84190918  0.17325481  1  0  0.111527  0.114913  0  1.044291  0
H  H11  1  0.60355548  0.77279885  0.12455276  1  0  0.1175  0.119285  0  1.04257  0
H  H12  1  0.39644735  0.22718977  0.87545248  1  0  0.117495  0.119325  0  1.04266  0
H  H13  1  0.15059382  0.34631502  0.21513539  1  0  0.116882  0.084842  0  1.074843  0
H  H14  1  0.84942371  0.65370793  0.78488085  1  0  0.116918  0.085003  0  1.074706  0
H  H15  1  0.41456639  0.96525606  0.38366295  1  0  0.118102  0.105604  0  0.970286  0
H  H16  1  0.58542528  0.03473685  0.61633205  1  0  0.118122  0.105613  0  0.970281  0
H  H17  1  0.59756556  0.89741453  0.40076435  1  0  0.101418  0.083372  0  1.017913  0
H  H18  1  0.40242355  0.10257611  0.59923545  1  0  0.101432  0.083387  0  1.017922  0
H  H19  1  0.20843657  0.76686921  0.26230292  1  0  0.127777  0.107988  0  1.069019  0
H  H20  1  0.79154987  0.23312914  0.73768329  1  0  0.127759  0.107981  0  1.069024  0
H  H21  1  0.93528689  0.19065676  0.31896120  1  0  0.099337  0.100402  0  0.991782  0
H  H22  1  0.06472495  0.80932856  0.68105755  1  0  0.099333  0.100369  0  0.991866  0
H  H23  1  0.37437051  0.55003210  0.95563493  1  0  0.113293  0.108399  0  1.023325  0
H  H24  1  0.62563257  0.44995871  0.04436844  1  0  0.11329  0.108377  0  1.023339  0
H  H25  1  0.76886632  0.31978702  0.19510674  1  0  0.096105  0.100369  0  1.032539  0
H  H26  1  0.23116243  0.68019566  0.80489664  1  0  0.096199  0.100504  0  1.032547  0
H  H27  1  0.24412820  0.98148174  0.94839593  1  0  0.116512  0.123292  0  1.035607  0
H  H28  1  0.75586672  0.01854765  0.05159914  1  0  0.116493  0.123205  0  1.035581  0
C  C29  1  0.13597478  0.52152941  0.46783530  1  0  -0.027583  0.025639  0  3.970206  0
C  C30  1  0.86401197  0.47846130  0.53215897  1  0  -0.027509  0.025633  0  3.970387  0
C  C31  1  0.86467628  0.54770304  0.44618150  1  0  -0.025645  0.022259  0  3.968163  0
C  C32  1  0.13531308  0.45228980  0.55381558  1  0  -0.025504  0.022423  0  3.968166  0
C  C33  1  0.30368111  0.10041050  0.21045402  1  0  -0.043292  -0.103071  0  3.903412  0
C  C34  1  0.69632703  0.89958492  0.78953634  1  0  -0.043227  -0.103158  0  3.903301  0
C  C35  1  0.99959426  0.56859043  0.41151412  1  0  -0.023672  -0.094086  0  3.974171  0
C  C36  1  0.00039663  0.43140570  0.58847995  1  0  -0.023742  -0.094218  0  3.974294  0
C  C37  1  0.55190944  0.21937472  0.19759209  1  0  -0.099788  -0.146864  0  4.022066  0
C  C38  1  0.44810896  0.78061857  0.80240727  1  0  -0.099789  -0.146799  0  4.021931  0
C  C39  1  0.73818626  0.07132256  0.33155951  1  0  -0.08734  -0.123905  0  3.969662  0
C  C40  1  0.26181246  0.92867024  0.66844784  1  0  -0.087302  -0.124001  0  3.969671  0
C  C41  1  0.99582755  0.63184511  0.30864980  1  0  0.184861  0.574085  0  4.323687  0
C  C42  1  0.00415751  0.36814130  0.69134376  1  0  0.184997  0.574202  0  4.323509  0
C  C43  1  0.57514737  0.04483713  0.30144514  1  0  -0.021463  0.027088  0  3.968177  0
C  C44  1  0.42485336  0.95515371  0.69855439  1  0  -0.021518  0.027066  0  3.968086  0
C  C45  1  0.12364810  0.16986063  0.92555245  1  0  -0.010246  -0.040841  0  4.004581  0
C  C46  1  0.87634887  0.83017496  0.07445670  1  0  -0.010403  -0.041023  0  4.004364  0
C  C47  1  0.48919757  0.73657877  0.12740554  1  0  -0.01074  -0.117872  0  3.92859  0
C  C48  1  0.51079687  0.26341727  0.87259683  1  0  -0.010763  -0.117966  0  3.928673  0
C  C49  1  0.15340126  0.27197180  0.12529752  1  0  0.13296  0.088888  0  3.935336  0
C  C50  1  0.84661782  0.72805440  0.87471824  1  0  0.133026  0.088642  0  3.935452  0
C  C51  1  0.48032514  0.12133008  0.23536564  1  0  -0.014828  0.037858  0  3.93852  0
C  C52  1  0.51968163  0.87866306  0.76463145  1  0  -0.01484  0.037854  0  3.938539  0
C  C53  1  0.50513603  0.92993056  0.33656496  1  0  -0.047847  -0.110813  0  3.917123  0
C  C54  1  0.49485694  0.07006339  0.66343313  1  0  -0.047889  -0.110848  0  3.917116  0
C  C55  1  0.28408911  0.73562440  0.20117364  1  0  0.124335  0.062906  0  3.940797  0
C  C56  1  0.71590554  0.26437388  0.79882347  1  0  0.124323  0.062904  0  3.940662  0
C  C57  1  0.80810120  0.17065268  0.29449753  1  0  -0.090571  -0.06881  0  4.003499  0
C  C58  1  0.19191225  0.82933714  0.70551093  1  0  -0.090596  -0.068725  0  4.003596  0
C  C59  1  0.37494296  0.62751072  0.04515501  1  0  -0.006317  -0.029498  0  4.004338  0
C  C60  1  0.62505167  0.37248763  0.95483871  1  0  -0.006252  -0.029409  0  4.00441  0
C  C61  1  0.71475032  0.24326306  0.22567961  1  0  -0.095777  -0.08798  0  4.026313  0
C  C62  1  0.28526343  0.75672051  0.77431946  1  0  -0.09584  -0.088189  0  4.026399  0
C  C63  1  0.20066893  0.08219898  0.98403695  1  0  -0.005461  -0.113356  0  3.923214  0
C  C64  1  0.79933144  0.91782719  0.01596334  1  0  -0.005453  -0.113299  0  3.922751  0
Br  Br65  1  0.68017350  0.61296976  0.36858296  1  0  0.06029  -0.018972  0  1.696485  0
Br  Br66  1  0.31982798  0.38703726  0.63141117  1  0  0.060255  -0.019024  0  1.696516  0
Br  Br67  1  0.32383407  0.55846020  0.42950451  1  0  0.049924  -0.051335  0  1.784998  0
Br  Br68  1  0.67616293  0.44152840  0.57049706  1  0  0.049932  -0.05126  0  1.785026  0
N  N69  1  0.21854389  0.14851868  0.11064620  1  0  -0.24901  0.037791  0  3.802178  0
N  N70  1  0.78146515  0.85150223  0.88935677  1  0  -0.249049  0.037877  0  3.80189  0
N  N71  1  0.24854036  0.62826489  0.09236733  1  0  -0.357544  -0.283432  0  3.522345  0
N  N72  1  0.75145117  0.37173663  0.90762586  1  0  -0.357489  -0.283343  0  3.522304  0
N  N73  1  0.09544917  0.28778823  0.01515779  1  0  -0.356324  -0.288827  0  3.500096  0
N  N74  1  0.90456142  0.71224421  0.98485986  1  0  -0.356208  -0.288614  0  3.500068  0
N  N75  1  0.42953690  0.80400205  0.22601855  1  0  -0.252702  0.034357  0  3.777203  0
N  N76  1  0.57045749  0.19599408  0.77397874  1  0  -0.252697  0.03432  0  3.777174  0
O  O77  1  0.96237129  0.53568545  0.20033523  1  0  -0.336303  -0.562438  0  2.241563  0
O  O78  1  0.03762270  0.46429783  0.79966168  1  0  -0.336354  -0.562521  0  2.241516  0
O  O79  1  0.02538796  0.76429838  0.33939731  1  0  -0.336404  -0.555096  0  2.11574  0
O  O80  1  0.97458919  0.23569016  0.66058940  1  0  -0.336487  -0.555117  0  2.11576  0
