# generated using pymatgen
data_ZnH9C10(NO)4
_symmetry_space_group_name_H-M   'P 1'
_cell_length_a   9.43605336
_cell_length_b   10.22471153
_cell_length_c   13.93800000
_cell_angle_alpha   90.00000000
_cell_angle_beta   109.42916993
_cell_angle_gamma   90.00000000
_symmetry_Int_Tables_number   1
_chemical_formula_structural   ZnH9C10(NO)4
_chemical_formula_sum   'Zn4 H36 C40 N16 O16'
_cell_volume   1268.17214656
_cell_formula_units_Z   4
loop_
 _symmetry_equiv_pos_site_id
 _symmetry_equiv_pos_as_xyz
  1  'x, y, z'
loop_
 _atom_site_type_symbol
 _atom_site_label
 _atom_site_symmetry_multiplicity
 _atom_site_fract_x
 _atom_site_fract_y
 _atom_site_fract_z
 _atom_site_occupancy
 _atom_site_hle17_bader_spin_density
 _atom_site_hle17_ddec_charge
 _atom_site_hle17_ddec_spin_density
 _atom_site_hle17_ddec_sum_bond_order
 _atom_site_hle17_magmom
 _atom_site_hse06_10hf_bader_spin_density
 _atom_site_hse06_10hf_ddec_charge
 _atom_site_hse06_10hf_ddec_spin_density
 _atom_site_hse06_10hf_ddec_sum_bond_order
 _atom_site_hse06_10hf_magmom
 _atom_site_hse06_bader_spin_density
 _atom_site_hse06_ddec_charge
 _atom_site_hse06_ddec_spin_density
 _atom_site_hse06_ddec_sum_bond_order
 _atom_site_hse06_magmom
 _atom_site_pbe_bader_charge
 _atom_site_pbe_bader_spin_density
 _atom_site_pbe_cm5_charge
 _atom_site_pbe_ddec_charge
 _atom_site_pbe_ddec_spin_density
 _atom_site_pbe_ddec_sum_bond_order
 _atom_site_pbe_magmom
Zn  Zn0  1  0.43433973  0.82799304  0.24822103  1  0  0.936373  0  1.971555  0  0  0.742591  0  2.441144  0  0  0.784018  0  2.395449  0  1.240301  0  0.719864  0.714148  0  2.47176  0
Zn  Zn1  1  0.06566013  0.32799263  0.25177898  1  0  0.936362  0  1.971594  0  0  0.74258  0  2.441185  0  0  0.783999  0  2.395489  0  1.240301  0  0.719852  0.714131  0  2.471804  0
Zn  Zn2  1  0.56566112  0.17200681  0.75177924  1  0  0.936358  0  1.97161  0  0  0.742559  0  2.441216  0  0  0.783984  0  2.395523  0  1.240301  0  0.719835  0.714112  0  2.471836  0
Zn  Zn3  1  0.93433959  0.67200625  0.74822103  1  0  0.936386  0  1.971549  0  0  0.742599  0  2.441148  0  0  0.784023  0  2.395455  0  1.24033  0  0.71986  0.71415  0  2.471768  0
H  H4  1  0.38411106  0.59848730  0.54233002  1  0  0.378203  0  0.925024  0  0  0.346223  0  1.007703  0  0  0.358869  0  0.995963  0  0.644175  0  0.289302  0.33739  0  1.015742  0
H  H5  1  0.11588768  0.09848689  0.95766901  1  0  0.378206  0  0.925003  0  0  0.346245  0  1.007652  0  0  0.358892  0  0.995912  0  0.64419  0  0.289304  0.337412  0  1.015691  0
H  H6  1  0.61588867  0.40151451  0.45766927  1  0  0.378193  0  0.924952  0  0  0.346219  0  1.007624  0  0  0.358867  0  0.995884  0  0.644179  0  0.289291  0.337387  0  1.015662  0
H  H7  1  0.88411092  0.90151394  0.04233074  1  0  0.378186  0  0.924957  0  0  0.346249  0  1.007561  0  0  0.358896  0  0.995822  0  0.644182  0  0.289293  0.337416  0  1.0156  0
H  H8  1  0.18067578  0.58896918  0.12446039  1  0  0.102829  0  0.921409  0  0  0.110167  0  0.985916  0  0  0.113604  0  0.981524  0  0.118825  0  0.136752  0.107677  0  0.98909  0
H  H9  1  0.31932408  0.08896975  0.37553890  1  0  0.102852  0  0.921426  0  0  0.110174  0  0.985949  0  0  0.113612  0  0.981554  0  0.118578  0  0.13676  0.107684  0  0.989121  0
H  H10  1  0.81932394  0.41103067  0.87553890  1  0  0.10284  0  0.92144  0  0  0.110159  0  0.985963  0  0  0.113597  0  0.981569  0  0.118577  0  0.136756  0.10767  0  0.989135  0
H  H11  1  0.68067564  0.91103010  0.62446183  1  0  0.102843  0  0.921429  0  0  0.110161  0  0.985954  0  0  0.1136  0  0.981557  0  0.118589  0  0.136755  0.107672  0  0.989125  0
H  H12  1  0.75037569  0.74794677  0.41845638  1  0  0.111316  0  0.972397  0  0  0.112142  0  1.049211  0  0  0.115756  0  1.044694  0  0.202729  0  0.134767  0.109283  0  1.052743  0
H  H13  1  0.74962389  0.24794636  0.08154292  1  0  0.111308  0  0.972397  0  0  0.112137  0  1.049211  0  0  0.115751  0  1.044692  0  0.202717  0  0.134751  0.109279  0  1.052741  0
H  H14  1  0.24962516  0.25205308  0.58154317  1  0  0.111315  0  0.972396  0  0  0.112142  0  1.049213  0  0  0.115757  0  1.044695  0  0.202719  0  0.134755  0.109284  0  1.052743  0
H  H15  1  0.25037583  0.75205447  0.91845781  1  0  0.111306  0  0.972391  0  0  0.112132  0  1.049208  0  0  0.115746  0  1.044693  0  0.202708  0  0.134745  0.109275  0  1.052737  0
H  H16  1  0.95753623  0.94214003  0.23137501  1  0  0.125042  0  0.941311  0  0  0.137299  0  0.99705  0  0  0.139434  0  0.99678  0  0.137671  0  0.127257  0.135531  0  0.997722  0
H  H17  1  0.54246448  0.44213961  0.26862526  1  0  0.125041  0  0.941302  0  0  0.137298  0  0.99704  0  0  0.139434  0  0.996771  0  0.13768  0  0.127265  0.135531  0  0.997712  0
H  H18  1  0.04246349  0.05785982  0.76862500  1  0  0.125034  0  0.941315  0  0  0.137293  0  0.997049  0  0  0.139427  0  0.996779  0  0.137672  0  0.127252  0.135527  0  0.997719  0
H  H19  1  0.45753412  0.55786024  0.73137449  1  0  0.125027  0  0.941379  0  0  0.137283  0  0.99712  0  0  0.139417  0  0.99685  0  0.137682  0  0.12724  0.135516  0  0.997792  0
H  H20  1  0.64988126  0.93000374  0.13065296  1  0  0.112101  0  0.962811  0  0  0.119277  0  1.024641  0  0  0.122164  0  1.022924  0  0.111366  0  0.116865  0.117081  0  1.026123  0
H  H21  1  0.85011832  0.43000431  0.36934634  1  0  0.112039  0  0.962885  0  0  0.119244  0  1.024683  0  0  0.12213  0  1.022966  0  0.111376  0  0.116858  0.117033  0  1.02618  0
H  H22  1  0.35011846  0.06999611  0.86934633  1  0  0.112099  0  0.962828  0  0  0.119274  0  1.024659  0  0  0.122162  0  1.022941  0  0.11137  0  0.116868  0.117079  0  1.026139  0
H  H23  1  0.14988140  0.56999554  0.63065367  1  0  0.112035  0  0.962908  0  0  0.119257  0  1.024684  0  0  0.122145  0  1.022967  0  0.111369  0  0.116828  0.117031  0  1.026199  0
H  H24  1  0.12718146  0.81277892  0.40463408  1  0  0.073985  0  0.929583  0  0  0.089098  0  0.99202  0  0  0.088915  0  0.993045  0  0.073474  0  0.108334  0.08913  0  0.9914  0
H  H25  1  0.37281727  0.31277851  0.09536639  1  0  0.073976  0  0.929571  0  0  0.089087  0  0.992012  0  0  0.088904  0  0.993037  0  0.07346  0  0.108329  0.089119  0  0.991392  0
H  H26  1  0.87281714  0.18722093  0.59536567  1  0  0.073988  0  0.929564  0  0  0.089102  0  0.992001  0  0  0.088918  0  0.993026  0  0.073468  0  0.108334  0.089133  0  0.991382  0
H  H27  1  0.62718245  0.68722134  0.90463434  1  0  0.073983  0  0.929566  0  0  0.089092  0  0.992001  0  0  0.08891  0  0.993026  0  0.073468  0  0.108337  0.089125  0  0.991381  0
H  H28  1  0.02617685  0.76743290  0.48701998  1  0  0.090547  0  0.916494  0  0  0.10713  0  0.976103  0  0  0.108261  0  0.975346  0  0.062926  0  0.1176  0.106272  0  0.976691  0
H  H29  1  0.47382301  0.26743248  0.01298003  1  0  0.09055  0  0.916487  0  0  0.107132  0  0.976098  0  0  0.108263  0  0.975341  0  0.062928  0  0.117603  0.106274  0  0.976686  0
H  H30  1  0.97382287  0.23256695  0.51298003  1  0  0.090553  0  0.91649  0  0  0.107137  0  0.976095  0  0  0.108268  0  0.975339  0  0.062928  0  0.117603  0.106278  0  0.976683  0
H  H31  1  0.52617784  0.73256737  0.98702024  1  0  0.090546  0  0.916484  0  0  0.10713  0  0.976087  0  0  0.108261  0  0.975331  0  0.062927  0  0.117605  0.106271  0  0.976677  0
H  H32  1  0.17051812  0.97242059  0.54478016  1  0  0.084383  0  0.92346  0  0  0.107236  0  0.972187  0  0  0.107566  0  0.973581  0  0.058077  0  0.101922  0.106848  0  0.971416  0
H  H33  1  0.32948174  0.47242017  0.95522056  1  0  0.084387  0  0.923439  0  0  0.107247  0  0.972162  0  0  0.107577  0  0.973556  0  0.058079  0  0.101927  0.106859  0  0.971391  0
H  H34  1  0.82948160  0.02758024  0.45521985  1  0  0.084379  0  0.923452  0  0  0.107238  0  0.972175  0  0  0.107568  0  0.973568  0  0.058074  0  0.101917  0.10685  0  0.971403  0
H  H35  1  0.67051798  0.52757968  0.04477945  1  0  0.084398  0  0.923426  0  0  0.107259  0  0.972149  0  0  0.107589  0  0.973543  0  0.058085  0  0.101931  0.106871  0  0.971378  0
H  H36  1  0.07957340  0.04853242  0.42663414  1  0  0.070916  0  0.934593  0  0  0.089551  0  0.997859  0  0  0.08979  0  0.998795  0  0.031175  0  0.094065  0.089189  0  0.997411  0
H  H37  1  0.42042646  0.54853284  0.07336586  1  0  0.070911  0  0.934593  0  0  0.089547  0  0.997861  0  0  0.089786  0  0.998798  0  0.031169  0  0.094058  0.089184  0  0.997414  0
H  H38  1  0.92042632  0.95146743  0.57336587  1  0  0.07091  0  0.934591  0  0  0.089546  0  0.997859  0  0  0.089784  0  0.998796  0  0.031169  0  0.094061  0.089183  0  0.997412  0
H  H39  1  0.57957326  0.45146702  0.92663415  1  0  0.070913  0  0.934589  0  0  0.089551  0  0.997858  0  0  0.08979  0  0.998794  0  0.031125  0  0.09406  0.089188  0  0.99741  0
C  C40  1  0.33788409  0.63903710  0.36552286  1  0  -0.036276  0  3.822543  0  0  -0.041247  0  4.075251  0  0  -0.044615  0  4.096746  0  0.430814  0  0.06353  -0.039254  0  4.060835  0
C  C41  1  0.16211577  0.13903766  0.13447714  1  0  -0.036251  0  3.822497  0  0  -0.041216  0  4.075186  0  0  -0.044578  0  4.096673  0  0.430804  0  0.063532  -0.039224  0  4.06077  0
C  C42  1  0.66211451  0.36096177  0.63447546  1  0  -0.036248  0  3.822388  0  0  -0.041209  0  4.075089  0  0  -0.044575  0  4.096578  0  0.430514  0  0.063536  -0.039216  0  4.060672  0
C  C43  1  0.83788508  0.86096219  0.86552456  1  0  -0.036204  0  3.822481  0  0  -0.041164  0  4.075166  0  0  -0.044528  0  4.096652  0  0.430504  0  0.063565  -0.039171  0  4.060748  0
C  C44  1  0.43234955  0.72061789  0.44918696  1  0  0.631395  0  3.893041  0  0  0.580268  0  4.197369  0  0  0.614176  0  4.187739  0  1.528461  0  0.21977  0.557278  0  4.203299  0
C  C45  1  0.06765144  0.22061845  0.05081330  1  0  0.63139  0  3.893039  0  0  0.580277  0  4.197344  0  0  0.614184  0  4.187711  0  1.528453  0  0.219775  0.557289  0  4.203272  0
C  C46  1  0.56765242  0.27938392  0.55080997  1  0  0.631353  0  3.893095  0  0  0.580225  0  4.197421  0  0  0.614134  0  4.187786  0  1.528747  0  0.219746  0.557236  0  4.203347  0
C  C47  1  0.93234829  0.77938434  0.94919030  1  0  0.631297  0  3.89312  0  0  0.580177  0  4.197428  0  0  0.614086  0  4.187792  0  1.52875  0  0.219732  0.557188  0  4.203353  0
C  C48  1  0.22231556  0.58565662  0.20707553  1  0  0.257462  0  3.656006  0  0  0.196473  0  3.932984  0  0  0.210909  0  3.943657  0  1.023576  0  0.148305  0.187399  0  3.925077  0
C  C49  1  0.27768543  0.08565718  0.29292473  1  0  0.257422  0  3.655888  0  0  0.196444  0  3.93286  0  0  0.210879  0  3.943534  0  1.023832  0  0.148288  0.187369  0  3.924955  0
C  C50  1  0.77768529  0.41434225  0.79292473  1  0  0.257465  0  3.655968  0  0  0.196483  0  3.932945  0  0  0.21092  0  3.943617  0  1.023835  0  0.148298  0.187409  0  3.925039  0
C  C51  1  0.72231542  0.91434169  0.70707553  1  0  0.257386  0  3.655957  0  0  0.196404  0  3.93294  0  0  0.21084  0  3.943613  0  1.02383  0  0.148262  0.187331  0  3.925032  0
C  C52  1  0.76165037  0.79819660  0.35285508  1  0  0.175969  0  3.632125  0  0  0.113161  0  3.896009  0  0  0.127576  0  3.907507  0  0.97244  0  0.147704  0.103869  0  3.888239  0
C  C53  1  0.73834922  0.29819619  0.14714421  1  0  0.175981  0  3.63205  0  0  0.113172  0  3.895944  0  0  0.127588  0  3.907439  0  0.972434  0  0.14774  0.10388  0  3.888174  0
C  C54  1  0.23834936  0.20180325  0.64714421  1  0  0.175998  0  3.632057  0  0  0.113185  0  3.895949  0  0  0.1276  0  3.907445  0  0.972437  0  0.147724  0.103894  0  3.888178  0
C  C55  1  0.26165051  0.70180366  0.85285580  1  0  0.17599  0  3.632112  0  0  0.113191  0  3.896006  0  0  0.127607  0  3.907501  0  0.972438  0  0.147766  0.103901  0  3.888235  0
C  C56  1  0.86793890  0.90022589  0.25384451  1  0  -0.053403  0  3.654249  0  0  -0.094633  0  3.911395  0  0  -0.093246  0  3.93041  0  0.321728  0  0.002371  -0.095501  0  3.89896  0
C  C57  1  0.63206069  0.40022547  0.24615478  1  0  -0.053377  0  3.654241  0  0  -0.094611  0  3.911393  0  0  -0.093222  0  3.930408  0  0.321724  0  0.002364  -0.095478  0  3.898952  0
C  C58  1  0.13206083  0.09977396  0.74615478  1  0  -0.053344  0  3.654258  0  0  -0.094577  0  3.911407  0  0  -0.093187  0  3.930421  0  0.32173  0  0.002403  -0.095444  0  3.89897  0
C  C59  1  0.36794016  0.59977438  0.75384476  1  0  -0.053362  0  3.654203  0  0  -0.094588  0  3.911357  0  0  -0.093199  0  3.930371  0  0.321721  0  0.002388  -0.095454  0  3.898915  0
C  C60  1  0.71567850  0.89371030  0.20503348  1  0  0.005693  0  3.74351  0  0  -0.030009  0  4.007675  0  0  -0.027804  0  4.027145  0  0.413549  0  -0.004848  -0.031567  0  3.994843  0
C  C61  1  0.78432109  0.39371086  0.29496581  1  0  0.005753  0  3.743572  0  0  -0.029965  0  4.007731  0  0  -0.027761  0  4.027203  0  0.413555  0  -0.004841  -0.03151  0  3.994906  0
C  C62  1  0.28432123  0.10628955  0.79496653  1  0  0.005691  0  3.743559  0  0  -0.030011  0  4.007726  0  0  -0.027805  0  4.027195  0  0.413547  0  -0.00486  -0.031568  0  3.994892  0
C  C63  1  0.21567751  0.60628899  0.70503394  1  0  0.005722  0  3.743565  0  0  -0.030016  0  4.007721  0  0  -0.027811  0  4.027192  0  0.413564  0  -0.004794  -0.031545  0  3.994901  0
C  C64  1  0.03541752  0.84136750  0.43224632  1  0  0.004183  0  3.61866  0  0  -0.058422  0  3.880873  0  0  -0.054026  0  3.892266  0  0.322649  0  -0.047511  -0.061383  0  3.87315  0
C  C65  1  0.46458234  0.34136807  0.06775368  1  0  0.004205  0  3.618652  0  0  -0.058393  0  3.880863  0  0  -0.053998  0  3.892256  0  0.322674  0  -0.047499  -0.061354  0  3.873139  0
C  C66  1  0.96458332  0.15863235  0.56775394  1  0  0.004172  0  3.618667  0  0  -0.058429  0  3.880872  0  0  -0.054033  0  3.892265  0  0.322655  0  -0.047512  -0.061389  0  3.873148  0
C  C67  1  0.53541738  0.65863178  0.93224633  1  0  0.004179  0  3.618646  0  0  -0.058399  0  3.880828  0  0  -0.054003  0  3.892222  0  0.322655  0  -0.047506  -0.061358  0  3.873106  0
C  C68  1  0.06345419  0.97709358  0.48127862  1  0  -0.12788  0  3.676112  0  0  -0.171419  0  3.942842  0  0  -0.172857  0  3.957378  0  -0.047086  0  -0.161021  -0.170161  0  3.932653  0
C  C69  1  0.43654567  0.47709414  0.01872139  1  0  -0.127893  0  3.676134  0  0  -0.171445  0  3.942879  0  0  -0.172881  0  3.957413  0  -0.047088  0  -0.161036  -0.170187  0  3.93269  0
C  C70  1  0.93654553  0.02290627  0.51872139  1  0  -0.127871  0  3.676114  0  0  -0.171418  0  3.942843  0  0  -0.172853  0  3.957378  0  -0.017907  0  -0.161019  -0.170159  0  3.932654  0
C  C71  1  0.56345406  0.52290668  0.98127790  1  0  -0.12791  0  3.676145  0  0  -0.171471  0  3.942895  0  0  -0.172907  0  3.957428  0  -0.017881  0  -0.161034  -0.170212  0  3.932706  0
C  C72  1  0.25097704  0.52844425  0.36287789  1  0  -0.011727  0  3.808267  0  0  -0.019836  0  4.057887  0  0  -0.021075  0  4.078317  0  0.403322  0  0.06734  -0.019214  0  4.044362  0
C  C73  1  0.24902282  0.02844481  0.13712140  1  0  -0.011714  0  3.808236  0  0  -0.019824  0  4.05786  0  0  -0.021063  0  4.078288  0  0.403318  0  0.067341  -0.0192  0  4.044331  0
C  C74  1  0.74902268  0.47155658  0.63712140  1  0  -0.011668  0  3.808283  0  0  -0.019779  0  4.057928  0  0  -0.021015  0  4.078353  0  0.403318  0  0.067389  -0.019156  0  4.044399  0
C  C75  1  0.75097690  0.97155602  0.86287861  1  0  -0.011663  0  3.808238  0  0  -0.019786  0  4.057873  0  0  -0.021023  0  4.078299  0  0.403308  0  0.06739  -0.019164  0  4.044345  0
C  C76  1  0.23069993  0.44577003  0.44405480  1  0  0.626395  0  3.953786  0  0  0.576799  0  4.251153  0  0  0.610895  0  4.242287  0  1.608328  0  0.205393  0.553696  0  4.256534  0
C  C77  1  0.26929994  0.94576947  0.05594521  1  0  0.626339  0  3.953761  0  0  0.576739  0  4.251154  0  0  0.610833  0  4.242287  0  1.608333  0  0.205365  0.553635  0  4.256532  0
C  C78  1  0.76929867  0.55422982  0.55594568  1  0  0.626405  0  3.953875  0  0  0.576762  0  4.251339  0  0  0.610858  0  4.242472  0  1.608304  0  0.205336  0.553661  0  4.256717  0
C  C79  1  0.73070203  0.05422940  0.94405459  1  0  0.626345  0  3.95395  0  0  0.576738  0  4.251362  0  0  0.610833  0  4.242496  0  1.608302  0  0.205324  0.553637  0  4.25674  0
N  N80  1  0.31937465  0.67292852  0.26652101  1  0  -0.404131  0  3.305296  0  0  -0.326658  0  3.605528  0  0  -0.345786  0  3.617352  0  -1.252817  0  -0.362654  -0.313367  0  3.596633  0
N  N81  1  0.18062409  0.17292908  0.23347802  1  0  -0.404153  0  3.305215  0  0  -0.326672  0  3.605436  0  0  -0.345799  0  3.617251  0  -1.252818  0  -0.362667  -0.313381  0  3.59654  0
N  N82  1  0.68062395  0.32707035  0.73347803  1  0  -0.404144  0  3.305261  0  0  -0.326662  0  3.605488  0  0  -0.345791  0  3.617309  0  -1.252789  0  -0.362638  -0.313371  0  3.596594  0
N  N83  1  0.81937564  0.82707077  0.76652270  1  0  -0.404143  0  3.305285  0  0  -0.326667  0  3.605504  0  0  -0.345794  0  3.617325  0  -1.25279  0  -0.362642  -0.313375  0  3.596608  0
N  N84  1  0.65090613  0.83003809  0.26769248  1  0  -0.387275  0  3.351059  0  0  -0.300511  0  3.648477  0  0  -0.321252  0  3.661086  0  -1.267123  0  -0.369688  -0.286839  0  3.639841  0
N  N85  1  0.84909345  0.33003767  0.23230753  1  0  -0.387288  0  3.351057  0  0  -0.300539  0  3.648507  0  0  -0.321277  0  3.661111  0  -1.26711  0  -0.369703  -0.286866  0  3.639866  0
N  N86  1  0.34909359  0.16996176  0.73230753  1  0  -0.38732  0  3.351031  0  0  -0.300555  0  3.648458  0  0  -0.321295  0  3.661065  0  -1.267101  0  -0.369702  -0.286883  0  3.639821  0
N  N87  1  0.15090739  0.66996316  0.76769273  1  0  -0.387268  0  3.351032  0  0  -0.300533  0  3.648505  0  0  -0.321274  0  3.661113  0  -1.267137  0  -0.369707  -0.286859  0  3.639859  0
N  N88  1  0.89473606  0.83851852  0.34658103  1  0  -0.066199  0  3.572749  0  0  0.029118  0  3.790866  0  0  0.014206  0  3.817322  0  -1.229958  0  -0.243708  0.039013  0  3.772696  0
N  N89  1  0.60526352  0.33851811  0.15341899  1  0  -0.066216  0  3.572752  0  0  0.029104  0  3.790865  0  0  0.01419  0  3.817324  0  -1.229981  0  -0.243709  0.039002  0  3.772688  0
N  N90  1  0.10526366  0.16148133  0.65341898  1  0  -0.06623  0  3.572784  0  0  0.029087  0  3.790902  0  0  0.014174  0  3.817359  0  -1.229978  0  -0.24372  0.038982  0  3.772732  0
N  N91  1  0.39473620  0.66148174  0.84658174  1  0  -0.066177  0  3.57271  0  0  0.029123  0  3.790826  0  0  0.014212  0  3.817278  0  -1.22997  0  -0.243745  0.039016  0  3.772659  0
N  N92  1  0.17903846  0.49654604  0.26293584  1  0  -0.397046  0  3.278644  0  0  -0.319492  0  3.570553  0  0  -0.338603  0  3.582455  0  -1.2331  0  -0.360706  -0.306159  0  3.561664  0
N  N93  1  0.32096140  0.99654547  0.23706345  1  0  -0.397038  0  3.278615  0  0  -0.319482  0  3.570519  0  0  -0.338596  0  3.582424  0  -1.233082  0  -0.360681  -0.30615  0  3.561629  0
N  N94  1  0.82096126  0.50345381  0.73706417  1  0  -0.397042  0  3.278595  0  0  -0.319481  0  3.570501  0  0  -0.338593  0  3.582405  0  -1.233079  0  -0.360682  -0.306148  0  3.561613  0
N  N95  1  0.67903832  0.00345438  0.76293584  1  0  -0.397014  0  3.278588  0  0  -0.319448  0  3.570495  0  0  -0.338561  0  3.582399  0  -1.233072  0  -0.360693  -0.306117  0  3.561606  0
O  O96  1  0.49474404  0.81999477  0.43009420  1  0  -0.554903  0  1.926451  0  0  -0.504088  0  2.156268  0  0  -0.525241  0  2.144574  0  -1.156802  0  -0.291837  -0.489761  0  2.164193  0
O  O97  1  0.00525582  0.31999338  0.06990580  1  0  -0.554891  0  1.926464  0  0  -0.504095  0  2.156291  0  0  -0.52525  0  2.144594  0  -1.156798  0  -0.291843  -0.489771  0  2.164216  0
O  O98  1  0.50525568  0.18000606  0.56990437  1  0  -0.554899  0  1.926427  0  0  -0.504077  0  2.156242  0  0  -0.52524  0  2.144557  0  -1.156731  0  -0.291839  -0.489752  0  2.164165  0
O  O99  1  0.99474502  0.68000647  0.93009518  1  0  -0.554894  0  1.926449  0  0  -0.504059  0  2.156236  0  0  -0.525225  0  2.144557  0  -1.156731  0  -0.29182  -0.489735  0  2.164158  0
O  O100  1  0.44487497  0.68649761  0.54292674  1  0  -0.54319  0  2.080954  0  0  -0.497753  0  2.299103  0  0  -0.520091  0  2.286778  0  -1.166941  0  -0.330979  -0.48224  0  2.307135  0
O  O101  1  0.05512489  0.18649817  0.95707326  1  0  -0.543207  0  2.080953  0  0  -0.497785  0  2.299079  0  0  -0.520123  0  2.286754  0  -1.166947  0  -0.33099  -0.482271  0  2.30711  0
O  O102  1  0.55512363  0.31350224  0.45706871  1  0  -0.543164  0  2.080946  0  0  -0.497749  0  2.299121  0  0  -0.520086  0  2.286797  0  -1.167052  0  -0.33096  -0.482235  0  2.307152  0
O  O103  1  0.94487708  0.81350266  0.04293084  1  0  -0.543125  0  2.080973  0  0  -0.497748  0  2.299125  0  0  -0.520085  0  2.2868  0  -1.16705  0  -0.330963  -0.482234  0  2.307154  0
O  O104  1  0.29935263  0.47798415  0.53627883  1  0  -0.597938  0  2.001294  0  0  -0.546996  0  2.227309  0  0  -0.571988  0  2.219653  0  -1.180262  0  -0.309978  -0.529615  0  2.232129  0
O  O105  1  0.20064611  0.97798456  0.96372092  1  0  -0.597914  0  2.001288  0  0  -0.546988  0  2.227303  0  0  -0.57198  0  2.219646  0  -1.180279  0  -0.309964  -0.529611  0  2.232133  0
O  O106  1  0.70064484  0.52201571  0.46372211  1  0  -0.597992  0  2.001297  0  0  -0.547044  0  2.227341  0  0  -0.572038  0  2.219686  0  -1.180271  0  -0.309993  -0.529661  0  2.232155  0
O  O107  1  0.79935474  0.02201627  0.03627791  1  0  -0.597957  0  2.001358  0  0  -0.547031  0  2.227358  0  0  -0.572024  0  2.219703  0  -1.180278  0  -0.309972  -0.529643  0  2.232163  0
O  O108  1  0.14534591  0.34605768  0.41627169  1  0  -0.606825  0  1.959978  0  0  -0.545455  0  2.210416  0  0  -0.569539  0  2.196376  0  -1.186073  0  -0.318204  -0.52873  0  2.219412  0
O  O109  1  0.35465395  0.84605712  0.08372832  1  0  -0.606785  0  1.959923  0  0  -0.545419  0  2.210383  0  0  -0.569502  0  2.196341  0  -1.186083  0  -0.318192  -0.528696  0  2.219378  0
O  O110  1  0.85465381  0.65394217  0.58372760  1  0  -0.606835  0  1.959947  0  0  -0.545436  0  2.210404  0  0  -0.569522  0  2.196369  0  -1.18606  0  -0.31819  -0.528712  0  2.219397  0
O  O111  1  0.64534577  0.15394175  0.91627169  1  0  -0.606814  0  1.959968  0  0  -0.545429  0  2.210411  0  0  -0.569516  0  2.196376  0  -1.186048  0  -0.318183  -0.528706  0  2.219404  0
