# generated using pymatgen
data_ErH15C15NO8
_symmetry_space_group_name_H-M   'P 1'
_cell_length_a   8.59630468
_cell_length_b   10.28353598
_cell_length_c   10.82594432
_cell_angle_alpha   63.09050238
_cell_angle_beta   70.57325604
_cell_angle_gamma   81.71729982
_symmetry_Int_Tables_number   1
_chemical_formula_structural   ErH15C15NO8
_chemical_formula_sum   'Er2 H30 C30 N2 O16'
_cell_volume   804.78471075
_cell_formula_units_Z   2
loop_
 _symmetry_equiv_pos_site_id
 _symmetry_equiv_pos_as_xyz
  1  'x, y, z'
loop_
 _atom_site_type_symbol
 _atom_site_label
 _atom_site_symmetry_multiplicity
 _atom_site_fract_x
 _atom_site_fract_y
 _atom_site_fract_z
 _atom_site_occupancy
 _atom_site_hle17_bader_spin_density
 _atom_site_hle17_ddec_charge
 _atom_site_hle17_ddec_spin_density
 _atom_site_hle17_ddec_sum_bond_order
 _atom_site_hle17_magmom
 _atom_site_hse06_10hf_bader_spin_density
 _atom_site_hse06_10hf_ddec_charge
 _atom_site_hse06_10hf_ddec_spin_density
 _atom_site_hse06_10hf_ddec_sum_bond_order
 _atom_site_hse06_10hf_magmom
 _atom_site_hse06_bader_spin_density
 _atom_site_hse06_ddec_charge
 _atom_site_hse06_ddec_spin_density
 _atom_site_hse06_ddec_sum_bond_order
 _atom_site_hse06_magmom
 _atom_site_pbe_bader_spin_density
 _atom_site_pbe_cm5_charge
 _atom_site_pbe_ddec_charge
 _atom_site_pbe_ddec_spin_density
 _atom_site_pbe_ddec_sum_bond_order
 _atom_site_pbe_magmom
Er  Er0  1  0.13832264  0.93825669  0.16200351  1  0  2.229974  0  1.623649  0  0  2.086001  0  2.099963  0  0  2.222089  0  1.898157  0  0  1.506565  2.04866  0  2.131839  0
Er  Er1  1  0.86167290  0.06175322  0.83798813  1  0  2.229918  0  1.623746  0  0  2.086023  0  2.099962  0  0  2.222028  0  1.898263  0  0  1.506557  2.048667  0  2.131847  0
H  H2  1  0.26057042  0.07561698  0.84553160  1  0  0.436533  0  0.866463  0  0  0.404841  0  0.932353  0  0  0.415761  0  0.916731  0  0  0.299501  0.397175  0  0.943576  0
H  H3  1  0.73942764  0.92438751  0.15446164  1  0  0.436472  0  0.866566  0  0  0.40476  0  0.932492  0  0  0.415678  0  0.916872  0  0  0.29945  0.397092  0  0.943718  0
H  H4  1  0.41844958  0.08798257  0.88796893  1  0  0.454901  0  0.832777  0  0  0.426829  0  0.890867  0  0  0.438309  0  0.874194  0  0  0.307321  0.419002  0  0.902358  0
H  H5  1  0.58154966  0.91202739  0.11202174  1  0  0.454875  0  0.832833  0  0  0.426779  0  0.89097  0  0  0.438266  0  0.874285  0  0  0.307261  0.418954  0  0.902457  0
H  H6  1  0.98692472  0.53416252  0.76137154  1  0  0.099941  0  0.956675  0  0  0.112641  0  1.014624  0  0  0.116033  0  1.012114  0  0  0.109077  0.110293  0  1.016215  0
H  H7  1  0.01307207  0.46583971  0.23862573  1  0  0.099989  0  0.956633  0  0  0.112648  0  1.01462  0  0  0.116039  0  1.012109  0  0  0.109087  0.110298  0  1.016214  0
H  H8  1  0.95953480  0.25160391  0.20560309  1  0  0.104861  0  0.983548  0  0  0.111682  0  1.050879  0  0  0.115078  0  1.049055  0  0  0.107715  0.108906  0  1.052933  0
H  H9  1  0.04046446  0.74839946  0.79439309  1  0  0.10484  0  0.983551  0  0  0.111654  0  1.050914  0  0  0.115069  0  1.049044  0  0  0.107721  0.108876  0  1.052968  0
H  H10  1  0.54910283  0.82099166  0.39667163  1  0  0.088568  0  0.994279  0  0  0.096855  0  1.061294  0  0  0.099306  0  1.060549  0  0  0.101992  0.095267  0  1.061341  0
H  H11  1  0.45089034  0.17900398  0.60332930  1  0  0.088543  0  0.994364  0  0  0.096912  0  1.061305  0  0  0.099364  0  1.060561  0  0  0.102032  0.095331  0  1.061337  0
H  H12  1  0.73870732  0.13547400  0.46978677  1  0  0.112912  0  0.944174  0  0  0.121674  0  1.005637  0  0  0.125169  0  1.003653  0  0  0.110514  0.119277  0  1.006994  0
H  H13  1  0.26128467  0.86452168  0.53021167  1  0  0.112923  0  0.944114  0  0  0.121639  0  1.005639  0  0  0.125125  0  1.003671  0  0  0.110508  0.119247  0  1.006992  0
H  H14  1  0.20359433  0.54394803  0.60045313  1  0  0.103978  0  0.963293  0  0  0.11256  0  1.025521  0  0  0.116376  0  1.022551  0  0  0.106081  0.10975  0  1.02772  0
H  H15  1  0.79640616  0.45606638  0.39953167  1  0  0.104047  0  0.963338  0  0  0.112576  0  1.025614  0  0  0.116394  0  1.022643  0  0  0.106096  0.109764  0  1.027813  0
H  H16  1  0.64759762  0.65285798  0.23953401  1  0  0.10635  0  0.940693  0  0  0.116447  0  1.000203  0  0  0.120296  0  0.997436  0  0  0.110462  0.113691  0  1.002091  0
H  H17  1  0.35239910  0.34715741  0.76045411  1  0  0.106379  0  0.940646  0  0  0.116504  0  1.000127  0  0  0.120359  0  0.997345  0  0  0.110484  0.113753  0  1.002013  0
H  H18  1  0.15078268  0.15102243  0.34274296  1  0  0.061474  0  0.918  0  0  0.069548  0  0.986082  0  0  0.071638  0  0.980899  0  0  0.13415  0.067864  0  0.989687  0
H  H19  1  0.84920303  0.84898958  0.65724659  1  0  0.061377  0  0.918154  0  0  0.069508  0  0.986175  0  0  0.071599  0  0.980988  0  0  0.134159  0.067819  0  0.989774  0
H  H20  1  0.43088186  0.36324394  0.32992142  1  0  0.09509  0  0.96041  0  0  0.113058  0  1.028295  0  0  0.112657  0  1.03099  0  0  0.099446  0.113206  0  1.026741  0
H  H21  1  0.56911849  0.63674937  0.67009160  1  0  0.095077  0  0.96044  0  0  0.112993  0  1.028389  0  0  0.112589  0  1.031086  0  0  0.099407  0.113139  0  1.026835  0
H  H22  1  0.21669016  0.32352650  0.38466764  1  0  0.116263  0  0.923714  0  0  0.138867  0  0.980621  0  0  0.139553  0  0.980381  0  0  0.115908  0.138301  0  0.980862  0
H  H23  1  0.78330782  0.67647019  0.61533717  1  0  0.116259  0  0.923765  0  0  0.138851  0  0.980679  0  0  0.139539  0  0.980434  0  0  0.115904  0.138284  0  0.98092  0
H  H24  1  0.30563789  0.47722737  0.21871431  1  0  0.109951  0  0.94218  0  0  0.127713  0  1.008674  0  0  0.128828  0  1.008048  0  0  0.105803  0.127059  0  1.008944  0
H  H25  1  0.69437254  0.52276411  0.78128674  1  0  0.109948  0  0.94223  0  0  0.127719  0  1.008686  0  0  0.128836  0  1.008057  0  0  0.105841  0.127068  0  1.008953  0
H  H26  1  0.60649083  0.35359882  0.10648662  1  0  0.095467  0  0.94167  0  0  0.116822  0  1.003534  0  0  0.11676  0  1.004635  0  0  0.104245  0.116804  0  1.00273  0
H  H27  1  0.39352423  0.64637145  0.89355072  1  0  0.095417  0  0.941605  0  0  0.116797  0  1.003468  0  0  0.116736  0  1.004572  0  0  0.104231  0.116774  0  1.00267  0
H  H28  1  0.49110191  0.36980809  0.98964838  1  0  0.098787  0  0.930915  0  0  0.121944  0  0.991134  0  0  0.122382  0  0.990755  0  0  0.106096  0.121613  0  0.99125  0
H  H29  1  0.50894572  0.63014887  0.01036775  1  0  0.098607  0  0.931097  0  0  0.12179  0  0.991294  0  0  0.122232  0  0.99091  0  0  0.106047  0.121457  0  0.991406  0
H  H30  1  0.56542941  0.19674358  0.08976527  1  0  0.127745  0  0.947617  0  0  0.143462  0  1.014279  0  0  0.14528  0  1.012765  0  0  0.114669  0.142096  0  1.015368  0
H  H31  1  0.43459539  0.80321679  0.91028572  1  0  0.127845  0  0.947415  0  0  0.14353  0  1.01414  0  0  0.145355  0  1.012621  0  0  0.114693  0.14215  0  1.015223  0
C  C32  1  0.94516791  0.25282159  0.95914637  1  0  0.706857  0  3.875404  0  0  0.66347  0  4.159821  0  0  0.699208  0  4.155116  0  0  0.228202  0.639283  0  4.16756  0
C  C33  1  0.05482029  0.74717945  0.04085266  1  0  0.706808  0  3.875164  0  0  0.663352  0  4.159686  0  0  0.699079  0  4.155005  0  0  0.228113  0.639159  0  4.167426  0
C  C34  1  0.97224197  0.38044390  0.98082616  1  0  -0.055561  0  3.7449  0  0  -0.032681  0  3.973204  0  0  -0.037486  0  3.991763  0  0  -0.011015  -0.028905  0  3.959208  0
C  C35  1  0.02775233  0.61956268  0.01916902  1  0  -0.055583  0  3.744844  0  0  -0.032687  0  3.973159  0  0  -0.037495  0  3.991732  0  0  -0.011011  -0.028909  0  3.959163  0
C  C36  1  0.99310388  0.52046863  0.86542450  1  0  -0.077073  0  3.74089  0  0  -0.101007  0  3.990165  0  0  -0.101799  0  4.009519  0  0  -0.083202  -0.099992  0  3.976033  0
C  C37  1  0.00689037  0.47953789  0.13457348  1  0  -0.077006  0  3.740634  0  0  -0.100889  0  3.989866  0  0  -0.10168  0  4.00922  0  0  -0.083148  -0.099878  0  3.975738  0
C  C38  1  0.97847928  0.36064727  0.11601326  1  0  -0.082281  0  3.734503  0  0  -0.105106  0  3.983311  0  0  -0.106014  0  4.002557  0  0  -0.083939  -0.1043  0  3.970201  0
C  C39  1  0.02151372  0.63935813  0.88398643  1  0  -0.082126  0  3.734529  0  0  -0.104957  0  3.983322  0  0  -0.105865  0  4.002566  0  0  -0.083889  -0.104151  0  3.970213  0
C  C40  1  0.82893528  0.94874192  0.34517349  1  0  0.636852  0  3.928119  0  0  0.590272  0  4.217356  0  0  0.623304  0  4.217369  0  0  0.195535  0.567082  0  4.222441  0
C  C41  1  0.17105665  0.05125921  0.65482271  1  0  0.637012  0  3.92817  0  0  0.590407  0  4.217436  0  0  0.623436  0  4.217449  0  0  0.195609  0.567207  0  4.222533  0
C  C42  1  0.65920349  0.97635919  0.42425765  1  0  -0.055279  0  3.752065  0  0  -0.032027  0  3.981988  0  0  -0.037797  0  4.002217  0  0  -0.013021  -0.027585  0  3.967253  0
C  C43  1  0.34078722  0.02363863  0.57574115  1  0  -0.055406  0  3.75218  0  0  -0.032113  0  3.982099  0  0  -0.037881  0  4.002333  0  0  -0.013038  -0.027667  0  3.967368  0
C  C44  1  0.52539192  0.89978373  0.44174314  1  0  -0.061458  0  3.720143  0  0  -0.085881  0  3.970544  0  0  -0.085321  0  3.989176  0  0  -0.082011  -0.085789  0  3.956872  0
C  C45  1  0.47460127  0.10021414  0.55825409  1  0  -0.061453  0  3.720475  0  0  -0.085997  0  3.970931  0  0  -0.08544  0  3.989567  0  0  -0.082041  -0.085909  0  3.957261  0
C  C46  1  0.63361018  0.07740955  0.48269302  1  0  -0.070854  0  3.708796  0  0  -0.094156  0  3.959362  0  0  -0.094952  0  3.977915  0  0  -0.078041  -0.093475  0  3.946188  0
C  C47  1  0.36638054  0.92258938  0.51730439  1  0  -0.070801  0  3.708661  0  0  -0.094084  0  3.959223  0  0  -0.094876  0  3.977772  0  0  -0.077993  -0.093406  0  3.946048  0
C  C48  1  0.32423393  0.73046030  0.32211321  1  0  0.637591  0  3.923939  0  0  0.591825  0  4.214295  0  0  0.624075  0  4.216342  0  0  0.196382  0.568715  0  4.219384  0
C  C49  1  0.67576757  0.26955611  0.67788067  1  0  0.6375  0  3.923711  0  0  0.591774  0  4.214035  0  0  0.624022  0  4.216085  0  0  0.196396  0.568672  0  4.219118  0
C  C50  1  0.41601068  0.61011980  0.41183756  1  0  -0.057248  0  3.744938  0  0  -0.032381  0  3.972237  0  0  -0.037807  0  3.99269  0  0  -0.011899  -0.028709  0  3.95827  0
C  C51  1  0.58399471  0.38989245  0.58814967  1  0  -0.056894  0  3.744275  0  0  -0.032075  0  3.971591  0  0  -0.037486  0  3.992022  0  0  -0.011801  -0.028412  0  3.95763  0
C  C52  1  0.33358890  0.52353209  0.55831525  1  0  -0.06007  0  3.708539  0  0  -0.083198  0  3.955404  0  0  -0.0841  0  3.974511  0  0  -0.077702  -0.082517  0  3.94238  0
C  C53  1  0.66641156  0.47648339  0.44167004  1  0  -0.06025  0  3.708514  0  0  -0.083313  0  3.955377  0  0  -0.084219  0  3.97448  0  0  -0.077692  -0.082624  0  3.942346  0
C  C54  1  0.58342264  0.58561304  0.35338869  1  0  -0.070761  0  3.719079  0  0  -0.095054  0  3.972585  0  0  -0.094823  0  3.98968  0  0  -0.078071  -0.09484  0  3.96083  0
C  C55  1  0.41657783  0.41440466  0.64659383  1  0  -0.070975  0  3.719059  0  0  -0.095282  0  3.972612  0  0  -0.095054  0  3.989705  0  0  -0.078133  -0.095067  0  3.96086  0
C  C56  1  0.26091774  0.16939541  0.24796712  1  0  0.41943  0  3.792977  0  0  0.344001  0  4.086473  0  0  0.37208  0  4.091105  0  0  0.1878  0.325484  0  4.085372  0
C  C57  1  0.73907908  0.83060133  0.75203428  1  0  0.419574  0  3.792833  0  0  0.344103  0  4.086373  0  0  0.372182  0  4.090992  0  0  0.187864  0.3256  0  4.085248  0
C  C58  1  0.32779365  0.36431883  0.29099576  1  0  -0.184737  0  3.661197  0  0  -0.28982  0  3.916624  0  0  -0.286867  0  3.928503  0  0  -0.130585  -0.291432  0  3.908296  0
C  C59  1  0.67221052  0.63567356  0.70901113  1  0  -0.184735  0  3.661321  0  0  -0.289762  0  3.916742  0  0  -0.286808  0  3.928621  0  0  -0.130539  -0.291374  0  3.908424  0
C  C60  1  0.51616811  0.29981129  0.09320308  1  0  -0.162385  0  3.619558  0  0  -0.264754  0  3.868007  0  0  -0.260091  0  3.875785  0  0  -0.133039  -0.267369  0  3.861787  0
C  C61  1  0.48385696  0.70015489  0.90682788  1  0  -0.162321  0  3.619389  0  0  -0.26467  0  3.867721  0  0  -0.260013  0  3.875503  0  0  -0.133014  -0.267264  0  3.861488  0
N  N62  1  0.36550045  0.27198312  0.21523386  1  0  -0.088173  0  3.501277  0  0  0.018783  0  3.731228  0  0  -0.001736  0  3.757004  0  0  -0.275988  0.032782  0  3.712528  0
N  N63  1  0.63450861  0.72800159  0.78478144  1  0  -0.088017  0  3.501133  0  0  0.018914  0  3.73111  0  0  -0.001604  0  3.756887  0  0  -0.275983  0.032907  0  3.712406  0
O  O64  1  0.99411924  0.12755607  0.03478334  1  0  -0.793886  0  2.132829  0  0  -0.737186  0  2.391722  0  0  -0.780809  0  2.381711  0  0  -0.403741  -0.718406  0  2.399184  0
O  O65  1  0.00586411  0.87244498  0.96521229  1  0  -0.793796  0  2.132721  0  0  -0.737109  0  2.391675  0  0  -0.780712  0  2.381675  0  0  -0.40371  -0.718315  0  2.399121  0
O  O66  1  0.87427065  0.27349673  0.86582190  1  0  -0.699578  0  1.989028  0  0  -0.653417  0  2.232411  0  0  -0.688777  0  2.220529  0  0  -0.378473  -0.636496  0  2.238278  0
O  O67  1  0.12571625  0.72650862  0.13417658  1  0  -0.699562  0  1.988774  0  0  -0.653352  0  2.232162  0  0  -0.688716  0  2.220286  0  0  -0.378438  -0.636435  0  2.238031  0
O  O68  1  0.95224341  0.00338956  0.34555376  1  0  -0.680365  0  2.012512  0  0  -0.635167  0  2.258878  0  0  -0.66867  0  2.249237  0  0  -0.366645  -0.617879  0  2.264746  0
O  O69  1  0.04775361  0.99660519  0.65443918  1  0  -0.680428  0  2.01269  0  0  -0.635201  0  2.259042  0  0  -0.66871  0  2.249431  0  0  -0.366699  -0.617918  0  2.264921  0
O  O70  1  0.85001264  0.87108782  0.27509486  1  0  -0.705612  0  2.02171  0  0  -0.647823  0  2.25134  0  0  -0.682307  0  2.242444  0  0  -0.367041  -0.629872  0  2.256654  0
O  O71  1  0.14997928  0.12891882  0.72489628  1  0  -0.705604  0  2.021524  0  0  -0.647864  0  2.251178  0  0  -0.682335  0  2.242283  0  0  -0.367038  -0.629902  0  2.256491  0
O  O72  1  0.17277252  0.75048101  0.37999739  1  0  -0.681614  0  1.943899  0  0  -0.637575  0  2.176009  0  0  -0.671508  0  2.16574  0  0  -0.380915  -0.620658  0  2.181965  0
O  O73  1  0.82723365  0.24954843  0.61999636  1  0  -0.681603  0  1.943977  0  0  -0.637579  0  2.176061  0  0  -0.671502  0  2.165797  0  0  -0.38089  -0.62066  0  2.182009  0
O  O74  1  0.39782540  0.81344970  0.18840519  1  0  -0.697546  0  2.002194  0  0  -0.640748  0  2.235523  0  0  -0.674516  0  2.226187  0  0  -0.359247  -0.62302  0  2.241932  0
O  O75  1  0.60217494  0.18656677  0.81158527  1  0  -0.697495  0  2.002023  0  0  -0.64073  0  2.235351  0  0  -0.674486  0  2.226004  0  0  -0.359295  -0.623008  0  2.24176  0
O  O76  1  0.31419234  0.03282048  0.92418918  1  0  -0.919948  0  1.853567  0  0  -0.873835  0  2.055031  0  0  -0.904508  0  2.014878  0  0  -0.646395  -0.860396  0  2.078189  0
O  O77  1  0.68581078  0.96718202  0.07579806  1  0  -0.919824  0  1.853616  0  0  -0.873704  0  2.055074  0  0  -0.904357  0  2.01492  0  0  -0.646313  -0.860262  0  2.078238  0
O  O78  1  0.28558277  0.09651588  0.17601834  1  0  -0.63925  0  2.121794  0  0  -0.587595  0  2.393755  0  0  -0.624421  0  2.383364  0  0  -0.386597  -0.570791  0  2.397822  0
O  O79  1  0.71440904  0.90348622  0.82398302  1  0  -0.639379  0  2.121525  0  0  -0.587752  0  2.393523  0  0  -0.624557  0  2.383112  0  0  -0.386691  -0.570935  0  2.39756  0
