# generated using pymatgen
data_SmZnH9C12N4O9
_symmetry_space_group_name_H-M   'P 1'
_cell_length_a   11.45554687
_cell_length_b   12.80161358
_cell_length_c   13.35000000
_cell_angle_alpha   116.07719969
_cell_angle_beta   90.00000000
_cell_angle_gamma   90.00000000
_symmetry_Int_Tables_number   1
_chemical_formula_structural   SmZnH9C12N4O9
_chemical_formula_sum   'Sm4 Zn4 H36 C48 N16 O36'
_cell_volume   1758.47460761
_cell_formula_units_Z   4
loop_
 _symmetry_equiv_pos_site_id
 _symmetry_equiv_pos_as_xyz
  1  'x, y, z'
loop_
 _atom_site_type_symbol
 _atom_site_label
 _atom_site_symmetry_multiplicity
 _atom_site_fract_x
 _atom_site_fract_y
 _atom_site_fract_z
 _atom_site_occupancy
 _atom_site_hle17_bader_spin_density
 _atom_site_hle17_ddec_charge
 _atom_site_hle17_ddec_spin_density
 _atom_site_hle17_ddec_sum_bond_order
 _atom_site_hle17_magmom
 _atom_site_hse06_10hf_bader_spin_density
 _atom_site_hse06_10hf_ddec_charge
 _atom_site_hse06_10hf_ddec_spin_density
 _atom_site_hse06_10hf_ddec_sum_bond_order
 _atom_site_hse06_10hf_magmom
 _atom_site_hse06_bader_spin_density
 _atom_site_hse06_ddec_charge
 _atom_site_hse06_ddec_spin_density
 _atom_site_hse06_ddec_sum_bond_order
 _atom_site_hse06_magmom
 _atom_site_pbe_bader_charge
 _atom_site_pbe_bader_spin_density
 _atom_site_pbe_cm5_charge
 _atom_site_pbe_ddec_charge
 _atom_site_pbe_ddec_spin_density
 _atom_site_pbe_ddec_sum_bond_order
 _atom_site_pbe_magmom
Sm  Sm0  1  0.70854234  0.38833347  0.68124799  1  0  2.293575  0  1.73269  0  0  2.141509  0  2.210985  0  0  2.240127  0  2.061043  0  2.234695  0  1.554319  2.107855  0  2.246497  0
Sm  Sm1  1  0.20854351  0.61166633  0.81875612  1  0  2.293579  0  1.732548  0  0  2.141528  0  2.210796  0  0  2.240134  0  2.060883  0  2.234702  0  1.554348  2.107886  0  2.246289  0
Sm  Sm2  1  0.29146230  0.61165676  0.31874909  1  0  2.293565  0  1.732742  0  0  2.141582  0  2.21091  0  0  2.240115  0  2.061107  0  2.234905  0  1.554359  2.107908  0  2.246463  0
Sm  Sm3  1  0.79145938  0.38833956  0.18124681  1  0  2.293571  0  1.732683  0  0  2.141527  0  2.210931  0  0  2.240116  0  2.061036  0  2.234803  0  1.554398  2.107876  0  2.246439  0
Zn  Zn4  1  0.44777696  0.06756741  0.84403115  1  0  1.027006  0  1.865164  0  0  0.841095  0  2.334007  0  0  0.885892  0  2.281007  0  1.271614  0  0.702543  0.810006  0  2.369892  0
Zn  Zn5  1  0.94777928  0.93243239  0.65597221  1  0  1.02701  0  1.865131  0  0  0.841076  0  2.333973  0  0  0.885867  0  2.280976  0  1.271809  0  0.70252  0.809988  0  2.369859  0
Zn  Zn6  1  0.55222418  0.93243587  0.15596768  1  0  1.026992  0  1.865123  0  0  0.841067  0  2.333974  0  0  0.88586  0  2.280974  0  1.271724  0  0.702522  0.809982  0  2.369861  0
Zn  Zn7  1  0.05222361  0.06756306  0.34403082  1  0  1.026981  0  1.865101  0  0  0.841061  0  2.333942  0  0  0.885853  0  2.280946  0  1.271688  0  0.702512  0.809977  0  2.36983  0
H  H8  1  0.48997224  0.25389787  0.02263623  1  0  0.446858  0  0.785388  0  0  0.428464  0  0.837235  0  0  0.436936  0  0.827977  0  0.617965  0  0.338241  0.422431  0  0.843817  0
H  H9  1  0.98997456  0.74610454  0.47736673  1  0  0.446869  0  0.785365  0  0  0.428467  0  0.837223  0  0  0.436938  0  0.827965  0  0.618107  0  0.338223  0.422434  0  0.843808  0
H  H10  1  0.51002367  0.74610280  0.97736600  1  0  0.446889  0  0.785406  0  0  0.428489  0  0.837254  0  0  0.436959  0  0.827998  0  0.618059  0  0.338227  0.422456  0  0.843837  0
H  H11  1  0.01002484  0.25389178  0.52263292  1  0  0.446808  0  0.785423  0  0  0.42841  0  0.837275  0  0  0.43688  0  0.828019  0  0.618121  0  0.338215  0.422377  0  0.843858  0
H  H12  1  0.49392666  0.14451175  0.04934675  1  0  0.425748  0  0.882789  0  0  0.389469  0  0.955168  0  0  0.401557  0  0.937754  0  0.652998  0  0.29255  0.380997  0  0.967323  0
H  H13  1  0.99392461  0.85548979  0.45065286  1  0  0.425758  0  0.882784  0  0  0.389474  0  0.955173  0  0  0.40156  0  0.937764  0  0.653055  0  0.29255  0.381002  0  0.967327  0
H  H14  1  0.50607536  0.85548979  0.95065136  1  0  0.425726  0  0.88282  0  0  0.389452  0  0.955191  0  0  0.401541  0  0.937778  0  0.653008  0  0.292536  0.380978  0  0.967349  0
H  H15  1  0.00607479  0.14450914  0.54935089  1  0  0.425746  0  0.882795  0  0  0.389472  0  0.955161  0  0  0.401553  0  0.937762  0  0.652983  0  0.292546  0.380999  0  0.967317  0
H  H16  1  0.33920162  0.33969384  0.36867851  1  0  0.327674  0  0.838649  0  0  0.316267  0  0.885255  0  0  0.323492  0  0.880282  0  0.511714  0  0.348868  0.311076  0  0.888962  0
H  H17  1  0.83921354  0.66030683  0.13132297  1  0  0.327802  0  0.838534  0  0  0.316295  0  0.885243  0  0  0.323522  0  0.880267  0  0.511882  0  0.348922  0.311107  0  0.888944  0
H  H18  1  0.66079429  0.66031379  0.63131916  1  0  0.327572  0  0.838734  0  0  0.316168  0  0.885338  0  0  0.323394  0  0.880365  0  0.511835  0  0.348846  0.310981  0  0.889037  0
H  H19  1  0.16079285  0.33968949  0.86868192  1  0  0.327627  0  0.838679  0  0  0.316214  0  0.885279  0  0  0.323441  0  0.880304  0  0.511821  0  0.348855  0.311027  0  0.88898  0
H  H20  1  0.72932616  0.93296898  0.90949802  1  0  0.134682  0  0.923837  0  0  0.158261  0  0.976537  0  0  0.159711  0  0.97667  0  0.069313  0  0.102072  0.157357  0  0.976264  0
H  H21  1  0.22932908  0.06703082  0.59050759  1  0  0.134807  0  0.923792  0  0  0.158369  0  0.976498  0  0  0.159832  0  0.976618  0  0.069403  0  0.102111  0.157465  0  0.976226  0
H  H22  1  0.27066975  0.06703169  0.09050945  1  0  0.134812  0  0.923748  0  0  0.158376  0  0.976458  0  0  0.159839  0  0.976576  0  0.06942  0  0.102105  0.157471  0  0.976186  0
H  H23  1  0.77066770  0.93296637  0.40949243  1  0  0.134773  0  0.923793  0  0  0.158331  0  0.976516  0  0  0.159791  0  0.976638  0  0.069376  0  0.102073  0.157426  0  0.976245  0
H  H24  1  0.78249516  0.82581360  0.78019005  1  0  0.143156  0  0.972919  0  0  0.159773  0  1.035226  0  0  0.162839  0  1.032966  0  0.110801  0  0.100407  0.157592  0  1.036851  0
H  H25  1  0.28249633  0.17418794  0.71981705  1  0  0.143183  0  0.973032  0  0  0.159867  0  1.035236  0  0  0.162934  0  1.032977  0  0.110774  0  0.100458  0.157685  0  1.036861  0
H  H26  1  0.21749900  0.17419055  0.21981590  1  0  0.143153  0  0.972922  0  0  0.159866  0  1.035106  0  0  0.162929  0  1.032849  0  0.110707  0  0.100454  0.157684  0  1.036732  0
H  H27  1  0.71749783  0.82580838  0.28018260  1  0  0.143119  0  0.97294  0  0  0.159833  0  1.035126  0  0  0.162897  0  1.032869  0  0.110677  0  0.100442  0.157651  0  1.036752  0
H  H28  1  0.62815421  0.84264023  0.80993757  1  0  0.131115  0  0.965671  0  0  0.146419  0  1.033114  0  0  0.148643  0  1.032303  0  0.069085  0  0.09621  0.144878  0  1.033611  0
H  H29  1  0.12815538  0.15736392  0.69006688  1  0  0.131141  0  0.965657  0  0  0.146444  0  1.033107  0  0  0.148667  0  1.032299  0  0.069012  0  0.09621  0.144904  0  1.033603  0
H  H30  1  0.37184170  0.15736045  0.19006391  1  0  0.131112  0  0.965696  0  0  0.146404  0  1.033173  0  0  0.148625  0  1.032367  0  0.069144  0  0.096165  0.144859  0  1.033663  0
H  H31  1  0.87183965  0.84264110  0.30993793  1  0  0.131122  0  0.965675  0  0  0.146426  0  1.033132  0  0  0.148648  0  1.032325  0  0.069177  0  0.096187  0.144884  0  1.033623  0
H  H32  1  0.27800506  0.31889798  0.55279120  1  0  0.146304  0  0.92495  0  0  0.165647  0  0.981861  0  0  0.16816  0  0.980773  0  0.087832  0  0.110435  0.163757  0  0.982864  0
H  H33  1  0.77800738  0.68110965  0.94721472  1  0  0.146214  0  0.92492  0  0  0.165514  0  0.981886  0  0  0.16803  0  0.980795  0  0.088276  0  0.110386  0.163627  0  0.982886  0
H  H34  1  0.72198998  0.68110269  0.44720729  1  0  0.146267  0  0.924965  0  0  0.165564  0  0.981929  0  0  0.168076  0  0.980842  0  0.088707  0  0.110392  0.163675  0  0.98293  0
H  H35  1  0.22198853  0.31889885  0.05279531  1  0  0.146263  0  0.924955  0  0  0.165568  0  0.98191  0  0  0.168082  0  0.980822  0  0.088733  0  0.110416  0.163679  0  0.982912  0
H  H36  1  0.39545297  0.28762331  0.62450253  1  0  0.163225  0  0.948901  0  0  0.179922  0  1.006767  0  0  0.18329  0  1.004634  0  0.138729  0  0.114696  0.177441  0  1.008478  0
H  H37  1  0.89545878  0.71238345  0.87550527  1  0  0.16325  0  0.948969  0  0  0.179954  0  1.006814  0  0  0.183325  0  1.004672  0  0.138542  0  0.114705  0.177473  0  1.008527  0
H  H38  1  0.60454032  0.71237910  0.37549594  1  0  0.163374  0  0.948884  0  0  0.180041  0  1.006742  0  0  0.183411  0  1.004603  0  0.138519  0  0.11475  0.17756  0  1.008454  0
H  H39  1  0.10453888  0.28762418  0.12449915  1  0  0.163251  0  0.948881  0  0  0.17993  0  1.006766  0  0  0.183301  0  1.004625  0  0.138438  0  0.114698  0.177451  0  1.008476  0
H  H40  1  0.34682063  0.18046271  0.49265902  1  0  0.134896  0  0.925401  0  0  0.154351  0  0.984102  0  0  0.155876  0  0.984471  0  0.047564  0  0.101921  0.153278  0  0.983769  0
H  H41  1  0.84682732  0.81954405  0.00734728  1  0  0.134915  0  0.925416  0  0  0.154361  0  0.984106  0  0  0.155886  0  0.984477  0  0.047595  0  0.101925  0.153287  0  0.983774  0
H  H42  1  0.65317877  0.81954145  0.50733569  1  0  0.134922  0  0.9253  0  0  0.154353  0  0.984022  0  0  0.155878  0  0.984391  0  0.047525  0  0.101906  0.153276  0  0.983694  0
H  H43  1  0.15317383  0.18046010  0.99266316  1  0  0.134893  0  0.925338  0  0  0.154333  0  0.984051  0  0  0.155857  0  0.984422  0  0.047551  0  0.101919  0.153255  0  0.983723  0
C  C44  1  0.63886169  0.11382498  0.73529541  1  0  5.3e-05  0  3.761534  0  0  -0.00945  0  4.016706  0  0  -0.010605  0  4.037827  0  0.394043  0  0.077638  -0.008776  0  4.002363  0
C  C45  1  0.13886373  0.88617656  0.76470344  1  0  -8.9e-05  0  3.761804  0  0  -0.009552  0  4.016946  0  0  -0.01068  0  4.038053  0  0.394019  0  0.077594  -0.008884  0  4.002604  0
C  C46  1  0.36113684  0.88617395  0.26470010  1  0  2.9e-05  0  3.761567  0  0  -0.009496  0  4.016766  0  0  -0.010631  0  4.037878  0  0.393906  0  0.07762  -0.00883  0  4.002427  0
C  C47  1  0.86113567  0.11382585  0.23530027  1  0  5e-05  0  3.761653  0  0  -0.009427  0  4.016812  0  0  -0.010561  0  4.037926  0  0.393906  0  0.077612  -0.008759  0  4.002474  0
C  C48  1  0.75228622  0.08585511  0.69351590  1  0  -0.019838  0  3.790193  0  0  -0.030133  0  4.053311  0  0  -0.03359  0  4.075503  0  0.413279  0  0.068762  -0.027872  0  4.038257  0
C  C49  1  0.25228390  0.91414296  0.80648448  1  0  -0.01975  0  3.7903  0  0  -0.030076  0  4.053428  0  0  -0.03354  0  4.075615  0  0.413202  0  0.068759  -0.027814  0  4.038375  0
C  C50  1  0.24771842  0.91414035  0.30648563  1  0  -0.019688  0  3.790036  0  0  -0.030006  0  4.053225  0  0  -0.033466  0  4.075414  0  0.413225  0  0.068795  -0.027741  0  4.038169  0
C  C51  1  0.74772161  0.08586207  0.19351958  1  0  -0.01978  0  3.790047  0  0  -0.030095  0  4.053225  0  0  -0.033555  0  4.075412  0  0.413241  0  0.068776  -0.027832  0  4.03817  0
C  C52  1  0.70423264  0.97301528  0.77218902  1  0  0.466605  0  3.701729  0  0  0.447104  0  3.966859  0  0  0.463004  0  3.982122  0  1.00288  0  0.222418  0.436704  0  3.955753  0
C  C53  1  0.20423381  0.02698452  0.72781285  1  0  0.466726  0  3.701829  0  0  0.447244  0  3.966918  0  0  0.463142  0  3.982185  0  1.002849  0  0.222495  0.436843  0  3.955811  0
C  C54  1  0.29576589  0.02698279  0.22781361  1  0  0.466635  0  3.701727  0  0  0.447179  0  3.966789  0  0  0.463079  0  3.982054  0  1.002795  0  0.222497  0.436778  0  3.955682  0
C  C55  1  0.79576384  0.97301615  0.27218714  1  0  0.466668  0  3.701903  0  0  0.447217  0  3.966979  0  0  0.463117  0  3.982244  0  1.002763  0  0.22255  0.436815  0  3.955871  0
C  C56  1  0.54965076  0.20064283  0.74134971  1  0  0.683651  0  3.909503  0  0  0.635676  0  4.202072  0  0  0.671027  0  4.19284  0  1.619113  0  0.228021  0.61155  0  4.209142  0
C  C57  1  0.04965193  0.79935784  0.75865102  1  0  0.683742  0  3.909636  0  0  0.635743  0  4.202221  0  0  0.671057  0  4.193042  0  1.620101  0  0.228063  0.611628  0  4.209277  0
C  C58  1  0.45034341  0.79935610  0.25864280  1  0  0.683649  0  3.909764  0  0  0.635718  0  4.20228  0  0  0.671034  0  4.193099  0  1.6196  0  0.227978  0.6116  0  4.209338  0
C  C59  1  0.95034398  0.20064892  0.24135527  1  0  0.683764  0  3.909778  0  0  0.635819  0  4.202286  0  0  0.671136  0  4.193103  0  1.619677  0  0.22807  0.611697  0  4.209355  0
C  C60  1  0.83255825  0.12821998  0.63346663  1  0  0.66823  0  3.927614  0  0  0.61557  0  4.228265  0  0  0.650448  0  4.220951  0  1.565366  0  0.222127  0.591769  0  4.234122  0
C  C61  1  0.33255418  0.87177722  0.86653264  1  0  0.66808  0  3.9279  0  0  0.615451  0  4.228533  0  0  0.650334  0  4.221218  0  1.565336  0  0.222029  0.591649  0  4.234392  0
C  C62  1  0.16744901  0.87177635  0.36653302  1  0  0.667948  0  3.927955  0  0  0.615256  0  4.228676  0  0  0.650133  0  4.22137  0  1.565916  0  0.222  0.591463  0  4.234523  0
C  C63  1  0.66744871  0.12822606  0.13346620  1  0  0.668126  0  3.92766  0  0  0.615413  0  4.228416  0  0  0.650294  0  4.221104  0  1.565376  0  0.222041  0.591614  0  4.234269  0
C  C64  1  0.71147455  0.88778721  0.81940485  1  0  -0.403994  0  3.683021  0  0  -0.48294  0  3.919167  0  0  -0.487432  0  3.924849  0  -0.075979  0  -0.239928  -0.479516  0  3.914809  0
C  C65  1  0.21147572  0.11221607  0.68059998  1  0  -0.404236  0  3.683114  0  0  -0.483236  0  3.919231  0  0  -0.487742  0  3.924903  0  -0.075987  0  -0.240033  -0.479808  0  3.914876  0
C  C66  1  0.28852049  0.11221607  0.18060148  1  0  -0.404176  0  3.682958  0  0  -0.483195  0  3.919051  0  0  -0.487695  0  3.924725  0  -0.075952  0  -0.240004  -0.479759  0  3.914691  0
C  C67  1  0.78851757  0.88778547  0.31940037  1  0  -0.404121  0  3.683044  0  0  -0.483143  0  3.919137  0  0  -0.487641  0  3.924813  0  -0.075933  0  -0.239983  -0.47971  0  3.914777  0
C  C68  1  0.60755284  0.37269396  0.43302334  1  0  -0.004806  0  3.776873  0  0  -0.01341  0  4.046966  0  0  -0.015226  0  4.070021  0  0.443898  0  0.08399  -0.012563  0  4.033345  0
C  C69  1  0.10755925  0.62730323  0.06697218  1  0  -0.004852  0  3.777262  0  0  -0.013433  0  4.047303  0  0  -0.015248  0  4.070355  0  0.444054  0  0.083995  -0.012592  0  4.033688  0
C  C70  1  0.39244482  0.62730932  0.56697325  1  0  -0.004687  0  3.777064  0  0  -0.013283  0  4.047165  0  0  -0.015097  0  4.070219  0  0.443908  0  0.084033  -0.012443  0  4.033551  0
C  C71  1  0.89244452  0.37268961  0.93302450  1  0  -0.004756  0  3.777008  0  0  -0.013412  0  4.047119  0  0  -0.015225  0  4.070171  0  0.444141  0  0.084022  -0.01257  0  4.033507  0
C  C72  1  0.51845452  0.37600311  0.36340399  1  0  0.003687  0  3.673502  0  0  -0.011091  0  3.938499  0  0  -0.012904  0  3.956616  0  0.351577  0  0.090405  -0.009769  0  3.925842  0
C  C73  1  0.01845743  0.62398452  0.13658450  1  0  0.003697  0  3.673641  0  0  -0.010992  0  3.938552  0  0  -0.01281  0  3.956671  0  0.351584  0  0.090568  -0.009668  0  3.925897  0
C  C74  1  0.48154314  0.62400452  0.63659667  1  0  0.003445  0  3.673699  0  0  -0.011235  0  3.9387  0  0  -0.013052  0  3.956818  0  0.351567  0  0.090474  -0.00991  0  3.926045  0
C  C75  1  0.98154459  0.37600050  0.86340514  1  0  0.003559  0  3.673619  0  0  -0.011126  0  3.938591  0  0  -0.012939  0  3.956705  0  0.35149  0  0.090465  -0.009803  0  3.925936  0
C  C76  1  0.44846222  0.31721253  0.48712493  1  0  0.483161  0  3.660446  0  0  0.462203  0  3.934178  0  0  0.478688  0  3.947807  0  1.002063  0  0.24457  0.451343  0  3.925146  0
C  C77  1  0.94846891  0.68278466  0.01287358  1  0  0.483487  0  3.660336  0  0  0.462477  0  3.934062  0  0  0.47897  0  3.947675  0  1.002092  0  0.244719  0.451615  0  3.925036  0
C  C78  1  0.55153631  0.68279162  0.51287352  1  0  0.483245  0  3.66035  0  0  0.462296  0  3.934057  0  0  0.478779  0  3.947685  0  1.001926  0  0.244661  0.451436  0  3.925025  0
C  C79  1  0.05153573  0.31721166  0.98712831  1  0  0.483354  0  3.660472  0  0  0.462401  0  3.934153  0  0  0.478884  0  3.947782  0  1.002086  0  0.244713  0.45154  0  3.925123  0
C  C80  1  0.73194760  0.40989465  0.44430435  1  0  0.705159  0  3.917777  0  0  0.656016  0  4.222088  0  0  0.690734  0  4.213812  0  1.615613  0  0.230199  0.632509  0  4.229479  0
C  C81  1  0.23194615  0.59010254  0.05569641  1  0  0.705162  0  3.91786  0  0  0.655979  0  4.222216  0  0  0.690698  0  4.213933  0  1.614544  0  0.230206  0.632474  0  4.229607  0
C  C82  1  0.26805093  0.59010950  0.55568960  1  0  0.705233  0  3.917715  0  0  0.65599  0  4.222197  0  0  0.690706  0  4.213924  0  1.615647  0  0.230217  0.632486  0  4.229585  0
C  C83  1  0.76805761  0.40989465  0.94430960  1  0  0.705347  0  3.917784  0  0  0.656217  0  4.222058  0  0  0.690936  0  4.213777  0  1.615256  0  0.230306  0.63271  0  4.229454  0
C  C84  1  0.50535518  0.42124141  0.27908505  1  0  0.70123  0  3.930342  0  0  0.650853  0  4.236377  0  0  0.68624  0  4.22817  0  1.628383  0  0.233992  0.626496  0  4.244552  0
C  C85  1  0.00535461  0.57875144  0.22090040  1  0  0.701505  0  3.930229  0  0  0.650979  0  4.236505  0  0  0.686368  0  4.228293  0  1.62841  0  0.233981  0.62662  0  4.244687  0
C  C86  1  0.49464771  0.57876274  0.72091116  1  0  0.701524  0  3.93009  0  0  0.650995  0  4.236359  0  0  0.686385  0  4.228146  0  1.628541  0  0.234014  0.626637  0  4.24454  0
C  C87  1  0.99465439  0.42123619  0.77908659  1  0  0.701402  0  3.92994  0  0  0.650914  0  4.236153  0  0  0.686302  0  4.227941  0  1.628823  0  0.23402  0.626556  0  4.244332  0
C  C88  1  0.36210144  0.27420236  0.54293365  1  0  -0.407716  0  3.658592  0  0  -0.485068  0  3.892265  0  0  -0.489905  0  3.89706  0  -0.074395  0  -0.224406  -0.481492  0  3.888678  0
C  C89  1  0.86210463  0.72580266  0.95707266  1  0  -0.407833  0  3.658662  0  0  -0.485116  0  3.892303  0  0  -0.489957  0  3.897091  0  -0.074552  0  -0.224462  -0.481544  0  3.888718  0
C  C90  1  0.63789622  0.72580005  0.45706407  1  0  -0.40788  0  3.658539  0  0  -0.485139  0  3.89217  0  0  -0.489976  0  3.896965  0  -0.074832  0  -0.224419  -0.48156  0  3.888586  0
C  C91  1  0.13789564  0.27420062  0.04293367  1  0  -0.407729  0  3.658573  0  0  -0.485019  0  3.892215  0  0  -0.489856  0  3.897012  0  -0.074964  0  -0.224423  -0.481441  0  3.88863  0
N  N92  1  0.61063431  0.04133429  0.78304291  1  0  -0.47667  0  3.243767  0  0  -0.404246  0  3.530948  0  0  -0.425413  0  3.541802  0  -1.247733  0  -0.362299  -0.389629  0  3.522774  0
N  N93  1  0.11063898  0.95866464  0.71695485  1  0  -0.476696  0  3.244143  0  0  -0.404286  0  3.531312  0  0  -0.425457  0  3.542159  0  -1.247778  0  -0.362339  -0.389668  0  3.523139  0
N  N94  1  0.38936421  0.95866290  0.21695411  1  0  -0.476659  0  3.243833  0  0  -0.404242  0  3.531008  0  0  -0.42541  0  3.541855  0  -1.247759  0  -0.362305  -0.389625  0  3.522835  0
N  N95  1  0.88936129  0.04133690  0.28304775  1  0  -0.476705  0  3.243957  0  0  -0.404336  0  3.531155  0  0  -0.425507  0  3.542006  0  -1.24769  0  -0.36233  -0.389716  0  3.52298  0
N  N96  1  0.79122543  0.99729770  0.71752653  1  0  -0.474662  0  3.245513  0  0  -0.401003  0  3.533032  0  0  -0.422239  0  3.544919  0  -1.229556  0  -0.362034  -0.386373  0  3.524209  0
N  N97  1  0.29122660  0.00270297  0.78247795  1  0  -0.474734  0  3.245547  0  0  -0.401086  0  3.533082  0  0  -0.422323  0  3.544967  0  -1.229454  0  -0.362102  -0.386455  0  3.52426  0
N  N98  1  0.20877572  0.00269602  0.28247427  1  0  -0.474672  0  3.245461  0  0  -0.401038  0  3.533011  0  0  -0.422274  0  3.544895  0  -1.229441  0  -0.362084  -0.386406  0  3.524187  0
N  N99  1  0.70877454  0.99729944  0.21752202  1  0  -0.474659  0  3.245471  0  0  -0.401025  0  3.533021  0  0  -0.422263  0  3.544905  0  -1.229468  0  -0.362097  -0.386394  0  3.524199  0
N  N100  1  0.56255455  0.33757877  0.50955175  1  0  -0.54305  0  3.097646  0  0  -0.504245  0  3.369581  0  0  -0.527105  0  3.385353  0  -1.21325  0  -0.382256  -0.492831  0  3.359372  0
N  N101  1  0.06256271  0.66241581  0.99044417  1  0  -0.543059  0  3.097756  0  0  -0.504257  0  3.369691  0  0  -0.527117  0  3.38546  0  -1.213838  0  -0.382292  -0.492842  0  3.359484  0
N  N102  1  0.43744311  0.66242538  0.49044595  1  0  -0.543126  0  3.097792  0  0  -0.504329  0  3.369742  0  0  -0.52718  0  3.385513  0  -1.213435  0  -0.382294  -0.492909  0  3.359535  0
N  N103  1  0.93744193  0.33757703  0.00955552  1  0  -0.543149  0  3.097674  0  0  -0.50434  0  3.369634  0  0  -0.527199  0  3.385407  0  -1.213402  0  -0.382349  -0.492924  0  3.359428  0
N  N104  1  0.42029421  0.34094531  0.40037758  1  0  -0.348288  0  3.39337  0  0  -0.292851  0  3.622656  0  0  -0.309024  0  3.636351  0  -1.254797  0  -0.365927  -0.281866  0  3.612798  0
N  N105  1  0.92029915  0.65904666  0.09961500  1  0  -0.34852  0  3.393342  0  0  -0.292982  0  3.622651  0  0  -0.309155  0  3.636338  0  -1.254762  0  -0.366056  -0.281999  0  3.612797  0
N  N106  1  0.57970170  0.65906058  0.59962011  1  0  -0.3481  0  3.393424  0  0  -0.292698  0  3.622744  0  0  -0.308868  0  3.63644  0  -1.254885  0  -0.365956  -0.281717  0  3.612887  0
N  N107  1  0.07970200  0.34094531  0.90038282  1  0  -0.348236  0  3.393462  0  0  -0.292806  0  3.622748  0  0  -0.308974  0  3.636439  0  -1.254812  0  -0.365949  -0.281824  0  3.612891  0
O  O108  1  0.45525456  0.20175863  0.79220357  1  0  -0.606411  0  1.9837  0  0  -0.541743  0  2.223749  0  0  -0.56646  0  2.208138  0  -1.166097  0  -0.31  -0.524415  0  2.2338  0
O  O109  1  0.95526125  0.79824900  0.70779710  1  0  -0.606454  0  1.983878  0  0  -0.541751  0  2.223911  0  0  -0.566463  0  2.208328  0  -1.166726  0  -0.310024  -0.524423  0  2.233952  0
O  O110  1  0.54473785  0.79824900  0.20779485  1  0  -0.606432  0  1.983899  0  0  -0.541754  0  2.223906  0  0  -0.566465  0  2.208319  0  -1.166707  0  -0.310002  -0.524426  0  2.233948  0
O  O111  1  0.04473641  0.20175168  0.29220888  1  0  -0.606512  0  1.983893  0  0  -0.541843  0  2.223921  0  0  -0.566554  0  2.208327  0  -1.166675  0  -0.310061  -0.524512  0  2.233966  0
O  O112  1  0.56858743  0.26816415  0.69637716  1  0  -0.740054  0  2.105343  0  0  -0.690282  0  2.367371  0  0  -0.722952  0  2.350882  0  -1.208871  0  -0.423683  -0.673267  0  2.37687  0
O  O113  1  0.06858686  0.73184261  0.80362314  1  0  -0.740021  0  2.105346  0  0  -0.690262  0  2.36739  0  0  -0.722917  0  2.350922  0  -1.209247  0  -0.423629  -0.673253  0  2.37688  0
O  O114  1  0.43141371  0.73183565  0.30361646  1  0  -0.740046  0  2.105433  0  0  -0.690317  0  2.367452  0  0  -0.722961  0  2.350986  0  -1.208735  0  -0.423605  -0.673299  0  2.37694  0
O  O115  1  0.93141429  0.26816589  0.19638689  1  0  -0.740066  0  2.105549  0  0  -0.69033  0  2.367579  0  0  -0.722983  0  2.351108  0  -1.208773  0  -0.423647  -0.673318  0  2.377071  0
O  O116  1  0.80439460  0.20945620  0.60821682  1  0  -0.745333  0  2.060454  0  0  -0.696735  0  2.321051  0  0  -0.728829  0  2.305493  0  -1.212375  0  -0.418322  -0.68023  0  2.329697  0
O  O117  1  0.30439751  0.79054273  0.89178917  1  0  -0.7453  0  2.060513  0  0  -0.696703  0  2.321095  0  0  -0.728794  0  2.305535  0  -1.212485  0  -0.418256  -0.680199  0  2.329741  0
O  O118  1  0.19560393  0.79053317  0.39178289  1  0  -0.745229  0  2.060288  0  0  -0.696631  0  2.320893  0  0  -0.72871  0  2.305342  0  -1.212688  0  -0.418275  -0.680122  0  2.329531  0
O  O119  1  0.69560712  0.20945968  0.10820780  1  0  -0.74527  0  2.060381  0  0  -0.696643  0  2.320986  0  0  -0.728734  0  2.305436  0  -1.212614  0  -0.418253  -0.680135  0  2.329622  0
O  O120  1  0.93292360  0.07810623  0.60794619  1  0  -0.628741  0  2.029792  0  0  -0.551317  0  2.26749  0  0  -0.578774  0  2.254777  0  -1.173607  0  -0.301501  -0.532192  0  2.275627  0
O  O121  1  0.43291604  0.92189531  0.89205342  1  0  -0.628666  0  2.029916  0  0  -0.551282  0  2.267631  0  0  -0.578754  0  2.25493  0  -1.17349  0  -0.301488  -0.532153  0  2.275766  0
O  O122  1  0.06708715  0.92188922  0.39205310  1  0  -0.628681  0  2.03009  0  0  -0.551217  0  2.267787  0  0  -0.578678  0  2.255078  0  -1.173942  0  -0.301497  -0.532114  0  2.275939  0
O  O123  1  0.56708772  0.07810623  0.10794619  1  0  -0.628798  0  2.029966  0  0  -0.551337  0  2.267678  0  0  -0.578805  0  2.25497  0  -1.173417  0  -0.301535  -0.532221  0  2.27582  0
O  O124  1  0.78392766  0.42073786  0.53269826  1  0  -0.705965  0  1.955467  0  0  -0.66192  0  2.200697  0  0  -0.690127  0  2.18095  0  -1.182133  0  -0.403053  -0.647227  0  2.211899  0
O  O125  1  0.28391923  0.57926107  0.96730174  1  0  -0.705894  0  1.95565  0  0  -0.66184  0  2.200896  0  0  -0.690043  0  2.18115  0  -1.182104  0  -0.403029  -0.647149  0  2.212095  0
O  O126  1  0.21607262  0.57926194  0.46729387  1  0  -0.705885  0  1.955471  0  0  -0.661814  0  2.200738  0  0  -0.690007  0  2.181005  0  -1.182345  0  -0.403053  -0.647115  0  2.211933  0
O  O127  1  0.71608279  0.42074308  0.03270645  1  0  -0.705935  0  1.955668  0  0  -0.661885  0  2.200881  0  0  -0.69009  0  2.181142  0  -1.182237  0  -0.403051  -0.64719  0  2.212077  0
O  O128  1  0.77939535  0.43053919  0.36937732  1  0  -0.726868  0  2.041324  0  0  -0.678626  0  2.296862  0  0  -0.709947  0  2.279178  0  -1.198816  0  -0.410674  -0.662243  0  2.306258  0
O  O129  1  0.27940176  0.56945366  0.13062311  1  0  -0.726952  0  2.041159  0  0  -0.678714  0  2.296703  0  0  -0.710033  0  2.279033  0  -1.197699  0  -0.410773  -0.662327  0  2.306102  0
O  O130  1  0.22060317  0.56946583  0.63061775  1  0  -0.727043  0  2.041168  0  0  -0.678777  0  2.296758  0  0  -0.710096  0  2.27907  0  -1.198547  0  -0.410777  -0.6624  0  2.30616  0
O  O131  1  0.72061073  0.43054093  0.86937881  1  0  -0.727088  0  2.041077  0  0  -0.678858  0  2.296627  0  0  -0.710194  0  2.278956  0  -1.198601  0  -0.410841  -0.662474  0  2.306025  0
O  O132  1  0.59280278  0.44104757  0.23288102  1  0  -0.696615  0  2.02039  0  0  -0.649405  0  2.272279  0  0  -0.67958  0  2.255804  0  -1.184967  0  -0.378473  -0.633677  0  2.282214  0
O  O133  1  0.09281443  0.55894267  0.26710932  1  0  -0.696877  0  2.020074  0  0  -0.649612  0  2.271988  0  0  -0.679786  0  2.255516  0  -1.184832  0  -0.378595  -0.633876  0  2.281923  0
O  O134  1  0.40719750  0.55895136  0.76711598  1  0  -0.696763  0  2.020114  0  0  -0.649508  0  2.272081  0  0  -0.679687  0  2.2556  0  -1.184862  0  -0.378521  -0.633778  0  2.282017  0
O  O135  1  0.90719283  0.44104322  0.73287994  1  0  -0.696796  0  2.019786  0  0  -0.649555  0  2.271743  0  0  -0.679734  0  2.255265  0  -1.18499  0  -0.378613  -0.633824  0  2.281678  0
O  O136  1  0.39922232  0.43995699  0.26032244  1  0  -0.756292  0  1.97372  0  0  -0.708738  0  2.231035  0  0  -0.739986  0  2.211703  0  -1.202304  0  -0.423054  -0.692542  0  2.242154  0
O  O137  1  0.89923162  0.56003934  0.23967196  1  0  -0.75627  0  1.974002  0  0  -0.708669  0  2.231386  0  0  -0.739923  0  2.212048  0  -1.202536  0  -0.422973  -0.692473  0  2.242492  0
O  O138  1  0.60077621  0.56004369  0.73967380  1  0  -0.75635  0  1.973772  0  0  -0.708736  0  2.231155  0  0  -0.74  0  2.211824  0  -1.202504  0  -0.423031  -0.692537  0  2.242257  0
O  O139  1  0.10078000  0.43995264  0.76032285  1  0  -0.756247  0  1.973902  0  0  -0.708652  0  2.23126  0  0  -0.739933  0  2.21198  0  -1.202631  0  -0.422976  -0.692456  0  2.242361  0
O  O140  1  0.44792449  0.18259778  0.00920170  1  0  -0.800664  0  1.902589  0  0  -0.735365  0  2.119467  0  0  -0.756495  0  2.087006  0  -1.223682  0  -0.558757  -0.720537  0  2.141563  0
O  O141  1  0.94792419  0.81740376  0.49080240  1  0  -0.80069  0  1.902553  0  0  -0.735364  0  2.119434  0  0  -0.756495  0  2.086975  0  -1.223956  0  -0.558726  -0.720533  0  2.141528  0
O  O142  1  0.55206967  0.81740203  0.99080016  1  0  -0.800691  0  1.902655  0  0  -0.735374  0  2.119536  0  0  -0.756503  0  2.08707  0  -1.223848  0  -0.55872  -0.720545  0  2.141635  0
O  O143  1  0.05207084  0.18259430  0.50920098  1  0  -0.800638  0  1.902612  0  0  -0.735308  0  2.119479  0  0  -0.756429  0  2.087014  0  -1.223886  0  -0.558744  -0.72048  0  2.141575  0
