# generated using pymatgen
data_CdH9C11O5
_symmetry_space_group_name_H-M   'P 1'
_cell_length_a   8.22794427
_cell_length_b   11.35624694
_cell_length_c   12.23259708
_cell_angle_alpha   83.79699972
_cell_angle_beta   87.48165154
_cell_angle_gamma   78.29154798
_symmetry_Int_Tables_number   1
_chemical_formula_structural   CdH9C11O5
_chemical_formula_sum   'Cd4 H36 C44 O20'
_cell_volume   1112.37673300
_cell_formula_units_Z   4
loop_
 _symmetry_equiv_pos_site_id
 _symmetry_equiv_pos_as_xyz
  1  'x, y, z'
loop_
 _atom_site_type_symbol
 _atom_site_label
 _atom_site_symmetry_multiplicity
 _atom_site_fract_x
 _atom_site_fract_y
 _atom_site_fract_z
 _atom_site_occupancy
 _atom_site_hle17_bader_spin_density
 _atom_site_hle17_ddec_charge
 _atom_site_hle17_ddec_spin_density
 _atom_site_hle17_ddec_sum_bond_order
 _atom_site_hle17_magmom
 _atom_site_hse06_10hf_bader_spin_density
 _atom_site_hse06_10hf_ddec_charge
 _atom_site_hse06_10hf_ddec_spin_density
 _atom_site_hse06_10hf_ddec_sum_bond_order
 _atom_site_hse06_10hf_magmom
 _atom_site_hse06_bader_spin_density
 _atom_site_hse06_ddec_charge
 _atom_site_hse06_ddec_spin_density
 _atom_site_hse06_ddec_sum_bond_order
 _atom_site_hse06_magmom
 _atom_site_pbe_bader_spin_density
 _atom_site_pbe_cm5_charge
 _atom_site_pbe_ddec_charge
 _atom_site_pbe_ddec_spin_density
 _atom_site_pbe_ddec_sum_bond_order
 _atom_site_pbe_magmom
Cd  Cd0  1  0.98713251  0.35019421  0.99248757  1  0  1.313508  0  1.592143  0  0  1.153244  0  2.033817  0  0  1.208668  0  1.971903  0  0  0.758722  1.112773  0  2.077217  0
Cd  Cd1  1  0.01287723  0.64980164  0.00751048  1  0  1.313402  0  1.592213  0  0  1.153143  0  2.033872  0  0  1.208572  0  1.971956  0  0  0.758705  1.112669  0  2.07727  0
Cd  Cd2  1  0.39079265  0.45821790  0.88882776  1  0  1.266435  0  1.652979  0  0  1.096913  0  2.105254  0  0  1.155758  0  2.043372  0  0  0.764837  1.053415  0  2.148217  0
Cd  Cd3  1  0.60921757  0.54177694  0.11117526  1  0  1.2664  0  1.652993  0  0  1.096846  0  2.105304  0  0  1.155711  0  2.04339  0  0  0.764849  1.05335  0  2.14826  0
H  H4  1  0.21490902  0.98328086  0.95493101  1  0  0.121909  0  0.932901  0  0  0.130057  0  0.993646  0  0  0.134659  0  0.989519  0  0  0.109803  0.126714  0  0.996805  0
H  H5  1  0.78507670  0.01671518  0.04507560  1  0  0.121873  0  0.93296  0  0  0.129992  0  0.993732  0  0  0.134592  0  0.989608  0  0  0.10978  0.126649  0  0.996893  0
H  H6  1  0.64912153  0.73353072  0.85294351  1  0  0.112793  0  0.955297  0  0  0.121744  0  1.021563  0  0  0.126164  0  1.017553  0  0  0.106008  0.118678  0  1.024391  0
H  H7  1  0.35089939  0.26647806  0.14707409  1  0  0.113024  0  0.955234  0  0  0.121974  0  1.021441  0  0  0.126394  0  1.017432  0  0  0.106117  0.118908  0  1.024267  0
H  H8  1  0.61475697  0.11817220  0.78088024  1  0  0.117481  0  0.96042  0  0  0.125715  0  1.024786  0  0  0.130163  0  1.02112  0  0  0.107137  0.122489  0  1.027538  0
H  H9  1  0.38525114  0.88181801  0.21913149  1  0  0.117532  0  0.960265  0  0  0.125731  0  1.024682  0  0  0.130174  0  1.021022  0  0  0.107141  0.122503  0  1.027434  0
H  H10  1  0.88061081  0.05574392  0.73753823  1  0  0.061669  0  0.911279  0  0  0.0776  0  0.969078  0  0  0.078415  0  0.967181  0  0  0.104014  0.076916  0  0.97056  0
H  H11  1  0.11938829  0.94426475  0.26245594  1  0  0.061701  0  0.911327  0  0  0.077566  0  0.969171  0  0  0.078385  0  0.967276  0  0  0.104017  0.076881  0  0.970651  0
H  H12  1  0.77453439  0.02272454  0.62322556  1  0  0.055158  0  0.938776  0  0  0.066581  0  1.008692  0  0  0.066324  0  1.009406  0  0  0.09869  0.06672  0  1.008257  0
H  H13  1  0.22544853  0.97726713  0.37677667  1  0  0.055216  0  0.938864  0  0  0.066626  0  1.008738  0  0  0.066374  0  1.009455  0  0  0.098717  0.066766  0  1.00829  0
H  H14  1  0.92136433  0.80170504  0.55361224  1  0  0.090493  0  0.961145  0  0  0.100773  0  1.024045  0  0  0.102837  0  1.024419  0  0  0.097414  0.099272  0  1.023872  0
H  H15  1  0.07864355  0.19829352  0.44638648  1  0  0.090515  0  0.96107  0  0  0.100798  0  1.023975  0  0  0.102863  0  1.024346  0  0  0.097396  0.099291  0  1.0238  0
H  H16  1  0.19404148  0.68843288  0.49284538  1  0  0.084016  0  0.974234  0  0  0.095375  0  1.036906  0  0  0.097539  0  1.036305  0  0  0.094139  0.093893  0  1.037288  0
H  H17  1  0.80595455  0.31156489  0.50715646  1  0  0.08414  0  0.974324  0  0  0.095472  0  1.036989  0  0  0.097639  0  1.036387  0  0  0.094203  0.093991  0  1.037371  0
H  H18  1  0.44126340  0.91965752  0.65242199  1  0  0.084596  0  0.984203  0  0  0.094429  0  1.048844  0  0  0.096216  0  1.049605  0  0  0.093501  0.093089  0  1.048414  0
H  H19  1  0.55873308  0.08034380  0.34758197  1  0  0.084607  0  0.984082  0  0  0.094406  0  1.048781  0  0  0.096192  0  1.04954  0  0  0.093495  0.093064  0  1.048352  0
H  H20  1  0.16898390  0.03002482  0.71758884  1  0  0.086037  0  0.972275  0  0  0.095598  0  1.037556  0  0  0.097619  0  1.037488  0  0  0.095954  0.094141  0  1.037654  0
H  H21  1  0.83100930  0.96997478  0.28241380  1  0  0.085966  0  0.972361  0  0  0.095593  0  1.037571  0  0  0.097614  0  1.037503  0  0  0.095946  0.094138  0  1.037669  0
H  H22  1  0.79470465  0.46968492  0.59231360  1  0  0.075716  0  0.988783  0  0  0.087017  0  1.054239  0  0  0.090014  0  1.051599  0  0  0.098369  0.084859  0  1.056117  0
H  H23  1  0.20529017  0.53032032  0.40767537  1  0  0.075801  0  0.988749  0  0  0.087096  0  1.054191  0  0  0.090102  0  1.05155  0  0  0.098411  0.084941  0  1.056066  0
H  H24  1  0.91954614  0.54885540  0.41825544  1  0  0.085455  0  0.975417  0  0  0.095772  0  1.039333  0  0  0.098299  0  1.038665  0  0  0.097632  0.093946  0  1.039917  0
H  H25  1  0.08043845  0.45114725  0.58173592  1  0  0.085506  0  0.975548  0  0  0.09579  0  1.039488  0  0  0.09832  0  1.038823  0  0  0.097686  0.093965  0  1.040074  0
H  H26  1  0.78409745  0.75031020  0.32564133  1  0  0.075664  0  0.974565  0  0  0.088684  0  1.035184  0  0  0.090988  0  1.033617  0  0  0.097946  0.086934  0  1.03645  0
H  H27  1  0.21589725  0.24969427  0.67434117  1  0  0.075617  0  0.974679  0  0  0.08866  0  1.035266  0  0  0.090948  0  1.033719  0  0  0.09791  0.086904  0  1.036535  0
H  H28  1  0.51884035  0.85882352  0.39885690  1  0  0.087866  0  0.972394  0  0  0.096479  0  1.041537  0  0  0.099074  0  1.040989  0  0  0.097086  0.094607  0  1.041982  0
H  H29  1  0.48115368  0.14118774  0.60114630  1  0  0.087829  0  0.972519  0  0  0.096475  0  1.041608  0  0  0.099071  0  1.04107  0  0  0.097123  0.094604  0  1.042056  0
H  H30  1  0.86802860  0.34697060  0.23421544  1  0  0.445543  0  0.831501  0  0  0.419435  0  0.889398  0  0  0.428494  0  0.876507  0  0  0.307344  0.412964  0  0.898604  0
H  H31  1  0.13197534  0.65301986  0.76578665  1  0  0.445584  0  0.831438  0  0  0.41949  0  0.889321  0  0  0.428549  0  0.876428  0  0  0.307386  0.413018  0  0.898529  0
H  H32  1  0.98134764  0.44316585  0.20830219  1  0  0.428575  0  0.867036  0  0  0.402724  0  0.921896  0  0  0.412308  0  0.907763  0  0  0.291589  0.395921  0  0.931927  0
H  H33  1  0.01865322  0.55682734  0.79170064  1  0  0.428583  0  0.867032  0  0  0.402804  0  0.921806  0  0  0.412389  0  0.90767  0  0  0.291603  0.396001  0  0.931838  0
H  H34  1  0.24050663  0.44096280  0.08120765  1  0  0.407245  0  0.880775  0  0  0.382623  0  0.94462  0  0  0.391801  0  0.931638  0  0  0.285919  0.375716  0  0.953487  0
H  H35  1  0.75949480  0.55903762  0.91879287  1  0  0.407166  0  0.880853  0  0  0.382548  0  0.944708  0  0  0.391724  0  0.931733  0  0  0.285896  0.375642  0  0.953537  0
H  H36  1  0.81973770  0.44023174  0.76902309  1  0  0.436254  0  0.867618  0  0  0.400694  0  0.937702  0  0  0.412912  0  0.919969  0  0  0.288959  0.392  0  0.950321  0
H  H37  1  0.18025315  0.55976622  0.23097328  1  0  0.436232  0  0.867664  0  0  0.400661  0  0.937779  0  0  0.412882  0  0.920039  0  0  0.288912  0.391967  0  0.9504  0
H  H38  1  0.99037759  0.34045200  0.76439004  1  0  0.423499  0  0.834479  0  0  0.402231  0  0.894525  0  0  0.410305  0  0.885274  0  0  0.315335  0.396411  0  0.901208  0
H  H39  1  0.00961910  0.65954680  0.23560514  1  0  0.42356  0  0.834423  0  0  0.402288  0  0.894464  0  0  0.410362  0  0.885213  0  0  0.315365  0.39647  0  0.901146  0
C  C40  1  0.40707299  0.06194961  0.86828871  1  0  -0.052852  0  3.773108  0  0  -0.024467  0  4.007184  0  0  -0.032941  0  4.031807  0  0  -0.020775  -0.018958  0  3.990669  0
C  C41  1  0.59293070  0.93806237  0.13171638  1  0  -0.053052  0  3.773354  0  0  -0.024685  0  4.007481  0  0  -0.033156  0  4.032102  0  0  -0.020839  -0.01918  0  3.990967  0
C  C42  1  0.33718367  0.96603583  0.91539879  1  0  -0.079415  0  3.698862  0  0  -0.120806  0  3.952501  0  0  -0.118945  0  3.971303  0  0  -0.082228  -0.121985  0  3.939967  0
C  C43  1  0.66281129  0.03397180  0.08460550  1  0  -0.079189  0  3.699392  0  0  -0.120563  0  3.953012  0  0  -0.1187  0  3.971814  0  0  -0.08217  -0.121745  0  3.940484  0
C  C44  1  0.42554754  0.84704733  0.91134618  1  0  -0.055332  0  3.761898  0  0  -0.028616  0  3.998362  0  0  -0.036894  0  4.021744  0  0  -0.01869  -0.023027  0  3.982527  0
C  C45  1  0.57446835  0.15294632  0.08866730  1  0  -0.055394  0  3.762394  0  0  -0.028618  0  3.998778  0  0  -0.036895  0  4.022179  0  0  -0.018639  -0.023032  0  3.98294  0
C  C46  1  0.58118797  0.82536702  0.85904369  1  0  -0.148971  0  3.67287  0  0  -0.187758  0  3.931356  0  0  -0.188591  0  3.947725  0  0  -0.087845  -0.186649  0  3.919935  0
C  C47  1  0.41883212  0.17464080  0.14097731  1  0  -0.149461  0  3.673041  0  0  -0.188229  0  3.931471  0  0  -0.189055  0  3.947837  0  0  -0.088042  -0.187117  0  3.920044  0
C  C48  1  0.64997609  0.92202717  0.80958382  1  0  0.261814  0  3.832095  0  0  0.257193  0  4.094439  0  0  0.266587  0  4.110129  0  0  0.082186  0.250409  0  4.083626  0
C  C49  1  0.35003739  0.07798013  0.19042366  1  0  0.262124  0  3.831589  0  0  0.25754  0  4.093933  0  0  0.26692  0  4.109633  0  0  0.082271  0.250766  0  4.083109  0
C  C50  1  0.56387523  0.04065853  0.81539851  1  0  -0.195911  0  3.717762  0  0  -0.23049  0  3.971165  0  0  -0.232561  0  3.989049  0  0  -0.097878  -0.228415  0  3.958841  0
C  C51  1  0.43613007  0.95933640  0.18460394  1  0  -0.195884  0  3.717388  0  0  -0.230398  0  3.970741  0  0  -0.23247  0  3.988651  0  0  -0.097839  -0.228336  0  3.958444  0
C  C52  1  0.31601905  0.19012567  0.87421131  1  0  0.664775  0  3.917661  0  0  0.610789  0  4.217835  0  0  0.646077  0  4.211063  0  0  0.207871  0.58663  0  4.221493  0
C  C53  1  0.68397971  0.80986951  0.12578327  1  0  0.664783  0  3.9174  0  0  0.610803  0  4.217578  0  0  0.646091  0  4.210813  0  0  0.207868  0.586645  0  4.221231  0
C  C54  1  0.34735293  0.74387184  0.95812704  1  0  0.697116  0  3.847183  0  0  0.642644  0  4.137769  0  0  0.67937  0  4.128789  0  0  0.220763  0.617103  0  4.143398  0
C  C55  1  0.65265521  0.25612126  0.04187461  1  0  0.697368  0  3.847123  0  0  0.642849  0  4.137772  0  0  0.679544  0  4.128836  0  0  0.220759  0.617318  0  4.143396  0
C  C56  1  0.86382693  0.98326908  0.68850391  1  0  0.061918  0  3.639634  0  0  -0.00296  0  3.9033  0  0  0.006062  0  3.907317  0  0  -0.057634  -0.00908  0  3.900412  0
C  C57  1  0.13616106  0.01672698  0.31149931  1  0  0.061662  0  3.639813  0  0  -0.003033  0  3.903312  0  0  0.005963  0  3.907349  0  0  -0.057736  -0.009133  0  3.900411  0
C  C58  1  0.02703748  0.92295660  0.64134408  1  0  0.059474  0  3.76752  0  0  0.078861  0  4.004589  0  0  0.077841  0  4.028449  0  0  -0.015953  0.07947  0  3.988441  0
C  C59  1  0.97295606  0.07704496  0.35865019  1  0  0.059552  0  3.767571  0  0  0.078928  0  4.004579  0  0  0.07791  0  4.028448  0  0  -0.015926  0.079538  0  3.988427  0
C  C60  1  0.03513767  0.82807792  0.57546065  1  0  -0.099647  0  3.746523  0  0  -0.120082  0  3.99457  0  0  -0.121599  0  4.015118  0  0  -0.089951  -0.118889  0  3.980588  0
C  C61  1  0.96487379  0.17191527  0.42453427  1  0  -0.099584  0  3.746511  0  0  -0.120043  0  3.994532  0  0  -0.121558  0  4.015082  0  0  -0.08993  -0.118842  0  3.980539  0
C  C62  1  0.18819465  0.76460278  0.54089589  1  0  -0.112456  0  3.757754  0  0  -0.131432  0  4.006667  0  0  -0.133667  0  4.026537  0  0  -0.094888  -0.129905  0  3.993151  0
C  C63  1  0.81182282  0.23539653  0.45910309  1  0  -0.112677  0  3.757621  0  0  -0.131612  0  4.006554  0  0  -0.133846  0  4.026415  0  0  -0.094964  -0.130087  0  3.993042  0
C  C64  1  0.33667577  0.79479215  0.57027231  1  0  0.054158  0  3.792495  0  0  0.066784  0  4.030058  0  0  0.067027  0  4.052469  0  0  -0.010092  0.066559  0  4.014957  0
C  C65  1  0.66332638  0.20521007  0.42972719  1  0  0.054024  0  3.792207  0  0  0.066679  0  4.02982  0  0  0.066922  0  4.052236  0  0  -0.010068  0.066455  0  4.014718  0
C  C66  1  0.32752446  0.89407781  0.63012197  1  0  -0.113385  0  3.755746  0  0  -0.133403  0  4.003512  0  0  -0.136664  0  4.026586  0  0  -0.096255  -0.131228  0  3.988015  0
C  C67  1  0.67247270  0.10592162  0.36988622  1  0  -0.113319  0  3.755729  0  0  -0.133302  0  4.003529  0  0  -0.136562  0  4.026601  0  0  -0.096281  -0.131125  0  3.98803  0
C  C68  1  0.17386062  0.95657410  0.66629930  1  0  -0.107092  0  3.756891  0  0  -0.12545  0  4.000767  0  0  -0.128796  0  4.024861  0  0  -0.091181  -0.123098  0  3.984486  0
C  C69  1  0.82613206  0.04342279  0.33370443  1  0  -0.107103  0  3.756704  0  0  -0.125525  0  4.000578  0  0  -0.12887  0  4.024669  0  0  -0.091193  -0.123173  0  3.9843  0
C  C70  1  0.50066945  0.72522090  0.53511931  1  0  0.063693  0  3.715294  0  0  0.072392  0  3.944753  0  0  0.074843  0  3.967939  0  0  0.008099  0.070864  0  3.929023  0
C  C71  1  0.49931991  0.27478953  0.46488420  1  0  0.064036  0  3.714694  0  0  0.072589  0  3.94442  0  0  0.075042  0  3.967602  0  0  0.008131  0.071058  0  3.928692  0
C  C72  1  0.58302442  0.61543057  0.59168214  1  0  -0.101908  0  3.702007  0  0  -0.085378  0  3.936115  0  0  -0.094339  0  3.958421  0  0  -0.013767  -0.079492  0  3.921016  0
C  C73  1  0.41696192  0.38457721  0.40832094  1  0  -0.102003  0  3.701799  0  0  -0.085523  0  3.936081  0  0  -0.094484  0  3.958392  0  0  -0.013766  -0.079634  0  3.920977  0
C  C74  1  0.73431103  0.55487742  0.54882531  1  0  -0.064338  0  3.760369  0  0  -0.090668  0  4.012027  0  0  -0.089913  0  4.032466  0  0  -0.086347  -0.09091  0  3.998032  0
C  C75  1  0.26567244  0.44512975  0.45116570  1  0  -0.064299  0  3.76058  0  0  -0.090586  0  4.012234  0  0  -0.089841  0  4.032689  0  0  -0.086327  -0.090826  0  3.998236  0
C  C76  1  0.80590970  0.60014489  0.45251834  1  0  -0.079561  0  3.778061  0  0  -0.092742  0  4.029519  0  0  -0.09625  0  4.05106  0  0  -0.095513  -0.090485  0  4.014915  0
C  C77  1  0.19407490  0.39985694  0.54746900  1  0  -0.079776  0  3.778291  0  0  -0.092942  0  4.029748  0  0  -0.096454  0  4.05129  0  0  -0.09561  -0.090689  0  4.015147  0
C  C78  1  0.72916948  0.71130627  0.39998227  1  0  -0.034782  0  3.766234  0  0  -0.051175  0  4.015266  0  0  -0.050275  0  4.03518  0  0  -0.084505  -0.051691  0  4.001872  0
C  C79  1  0.27081693  0.28869369  0.60000760  1  0  -0.034519  0  3.76613  0  0  -0.050905  0  4.015118  0  0  -0.049993  0  4.035036  0  0  -0.084437  -0.051415  0  4.001728  0
C  C80  1  0.57884460  0.77268620  0.44124171  1  0  -0.112097  0  3.723521  0  0  -0.130471  0  3.968217  0  0  -0.134762  0  3.989368  0  0  -0.087953  -0.127618  0  3.954005  0
C  C81  1  0.42114338  0.22731814  0.55875259  1  0  -0.112282  0  3.723655  0  0  -0.130626  0  3.968432  0  0  -0.134928  0  3.989589  0  0  -0.088039  -0.127776  0  3.954222  0
C  C82  1  0.51836467  0.55990880  0.69685894  1  0  0.667286  0  3.868516  0  0  0.616507  0  4.156935  0  0  0.651564  0  4.150968  0  0  0.209646  0.592705  0  4.160098  0
C  C83  1  0.48163803  0.44009612  0.30314030  1  0  0.667095  0  3.86848  0  0  0.616359  0  4.156882  0  0  0.651412  0  4.150925  0  0  0.209516  0.592555  0  4.160041  0
O  O84  1  0.16350629  0.20631630  0.90504937  1  0  -0.684863  0  2.009225  0  0  -0.620126  0  2.267362  0  0  -0.648612  0  2.252596  0  0  -0.339475  -0.599645  0  2.276816  0
O  O85  1  0.83650350  0.79367871  0.09494547  1  0  -0.684863  0  2.009134  0  0  -0.620125  0  2.267275  0  0  -0.648616  0  2.252516  0  0  -0.339432  -0.599642  0  2.276726  0
O  O86  1  0.39898232  0.27169657  0.84439808  1  0  -0.662211  0  2.05723  0  0  -0.595629  0  2.321958  0  0  -0.625694  0  2.309466  0  0  -0.33228  -0.57341  0  2.329155  0
O  O87  1  0.60101341  0.72830214  0.15560206  1  0  -0.662194  0  2.057277  0  0  -0.59559  0  2.321973  0  0  -0.625664  0  2.309502  0  0  -0.332277  -0.573369  0  2.329164  0
O  O88  1  0.19635878  0.77026190  0.98868756  1  0  -0.628037  0  1.999266  0  0  -0.55905  0  2.244954  0  0  -0.587991  0  2.23061  0  0  -0.316899  -0.538797  0  2.254511  0
O  O89  1  0.80364392  0.22974302  0.01131167  1  0  -0.628143  0  1.999133  0  0  -0.559154  0  2.244871  0  0  -0.588085  0  2.230539  0  0  -0.316846  -0.538908  0  2.254431  0
O  O90  1  0.43581951  0.63584976  0.96256481  1  0  -0.738396  0  2.120245  0  0  -0.661983  0  2.40119  0  0  -0.692989  0  2.384541  0  0  -0.349244  -0.638879  0  2.411684  0
O  O91  1  0.56420379  0.36414503  0.03743101  1  0  -0.738605  0  2.120457  0  0  -0.662139  0  2.40134  0  0  -0.69313  0  2.384696  0  0  -0.349339  -0.639039  0  2.411836  0
O  O92  1  0.79989741  0.89061898  0.75735281  1  0  -0.279556  0  2.310728  0  0  -0.208424  0  2.540439  0  0  -0.226519  0  2.542538  0  0  -0.179543  -0.195499  0  2.53845  0
O  O93  1  0.20012053  0.10938550  0.24265714  1  0  -0.279575  0  2.310446  0  0  -0.208598  0  2.540218  0  0  -0.226665  0  2.542308  0  0  -0.179564  -0.195692  0  2.538239  0
O  O94  1  0.36402295  0.58115736  0.72106142  1  0  -0.647181  0  2.016755  0  0  -0.578154  0  2.251959  0  0  -0.60929  0  2.245018  0  0  -0.31168  -0.556509  0  2.256118  0
O  O95  1  0.63597848  0.41883688  0.27893310  1  0  -0.647027  0  2.016784  0  0  -0.578014  0  2.252002  0  0  -0.609151  0  2.245067  0  0  -0.311569  -0.556368  0  2.256157  0
O  O96  1  0.62151931  0.48888607  0.76285614  1  0  -0.669233  0  1.985952  0  0  -0.595421  0  2.214616  0  0  -0.625689  0  2.202046  0  0  -0.323667  -0.574211  0  2.222758  0
O  O97  1  0.37847372  0.51110742  0.23713724  1  0  -0.669235  0  1.985966  0  0  -0.595403  0  2.214599  0  0  -0.625674  0  2.202028  0  0  -0.323669  -0.5742  0  2.222761  0
O  O98  1  0.18321594  0.46064324  0.01151301  1  0  -1.024508  0  1.897266  0  0  -0.921397  0  2.174366  0  0  -0.960953  0  2.140476  0  0  -0.597801  -0.893275  0  2.197179  0
O  O99  1  0.81678542  0.53934731  0.98848676  1  0  -1.024372  0  1.8972  0  0  -0.921237  0  2.174367  0  0  -0.960792  0  2.140479  0  0  -0.597807  -0.893119  0  2.197143  0
O  O100  1  0.96129776  0.36564194  0.18779205  1  0  -0.847191  0  1.836054  0  0  -0.792297  0  2.020454  0  0  -0.813007  0  1.988242  0  0  -0.588202  -0.777648  0  2.043043  0
O  O101  1  0.03870000  0.63435317  0.81220668  1  0  -0.847225  0  1.835988  0  0  -0.792441  0  2.020252  0  0  -0.81315  0  1.988035  0  0  -0.588275  -0.777792  0  2.042844  0
O  O102  1  0.94166908  0.41975697  0.78696877  1  0  -0.851154  0  1.873626  0  0  -0.790443  0  2.063047  0  0  -0.810949  0  2.03185  0  0  -0.568677  -0.77585  0  2.084911  0
O  O103  1  0.05832679  0.58024087  0.21302981  1  0  -0.851187  0  1.873668  0  0  -0.790451  0  2.063057  0  0  -0.810959  0  2.031861  0  0  -0.568661  -0.775864  0  2.084934  0
