# generated using pymatgen
data_Al2H15C24S2N3O10
_symmetry_space_group_name_H-M   'P 1'
_cell_length_a   6.64789847
_cell_length_b   12.75317856
_cell_length_c   17.68615550
_cell_angle_alpha   85.91755424
_cell_angle_beta   79.87433323
_cell_angle_gamma   74.67383852
_symmetry_Int_Tables_number   1
_chemical_formula_structural   Al2H15C24S2N3O10
_chemical_formula_sum   'Al2 H15 C24 S2 N3 O10'
_cell_volume   1423.13194470
_cell_formula_units_Z   1
loop_
 _symmetry_equiv_pos_site_id
 _symmetry_equiv_pos_as_xyz
  1  'x, y, z'
loop_
 _atom_site_type_symbol
 _atom_site_label
 _atom_site_symmetry_multiplicity
 _atom_site_fract_x
 _atom_site_fract_y
 _atom_site_fract_z
 _atom_site_occupancy
 _atom_site_pbe_bader_charge
 _atom_site_pbe_bader_spin_density
 _atom_site_pbe_cm5_charge
 _atom_site_pbe_ddec_charge
 _atom_site_pbe_ddec_spin_density
 _atom_site_pbe_ddec_sum_bond_order
 _atom_site_pbe_magmom
Al  Al0  1  0.48637387  0.51515663  0.50091045  1  2.505115  0  0.395112  1.639972  0  2.584172  0
Al  Al1  1  0.98935566  0.51613894  0.49833880  1  2.502893  0  0.390769  1.63849  0  2.585559  0
H  H2  1  0.27585464  0.38957860  0.54733232  1  0.598187  0  0.349255  0.422953  0  0.865804  0
H  H3  1  0.73242925  0.59689064  0.41316511  1  0.621017  0  0.355266  0.435004  0  0.846426  0
H  H4  1  0.63590601  0.53525301  0.27125481  1  0.077885  0  0.102883  0.101816  0  1.018673  0
H  H5  1  0.72711961  0.53303926  0.12835972  1  0.062204  0  0.100677  0.109999  0  1.00849  0
H  H6  1  0.18073747  0.41419934  0.12014801  1  0.060707  0  0.105636  0.119653  0  0.996499  0
H  H7  1  0.91256043  0.45392345  0.87454341  1  0.052777  0  0.105153  0.118782  0  1.000347  0
H  H8  1  0.31304906  0.58311708  0.73041221  1  0.097879  0  0.107766  0.108907  0  1.01027  0
H  H9  1  0.24044514  0.56474308  0.87369892  1  0.074159  0  0.100116  0.108657  0  1.009777  0
H  H10  1  0.63591747  0.16277930  0.45736060  1  0.140512  0  0.115152  0.137196  0  0.993136  0
H  H11  1  0.00882424  0.41592589  0.32565912  1  0.506563  0  0.307226  0.317257  0  0.976959  0
H  H12  1  0.95862751  0.38895116  0.23588258  1  0.453644  0  0.308052  0.304082  0  0.953179  0
H  H13  1  0.06412023  0.49163135  0.66959972  1  0.49589  0  0.307728  0.319263  0  0.980355  0
H  H14  1  0.14741471  0.44904988  0.75737181  1  0.432684  0  0.306119  0.300771  0  0.959966  0
H  H15  1  0.47643068  0.90933629  0.55024032  1  0.451787  0  0.293212  0.284273  0  0.993865  0
H  H16  1  0.45400924  0.77829351  0.54336107  1  0.487358  0  0.312647  0.325266  0  0.945036  0
C  C17  1  0.82848704  0.31817040  0.50352513  1  1.581491  0  0.256377  0.645113  0  4.14654  0
C  C18  1  0.67874108  0.53328010  0.63706741  1  1.530595  0  0.25886  0.650129  0  4.097857  0
C  C19  1  0.14725690  0.71090697  0.49518414  1  1.471344  0  0.246124  0.648129  0  4.155869  0
C  C20  1  0.31029167  0.48928779  0.36116264  1  1.511598  0  0.25523  0.646335  0  4.093941  0
C  C21  1  0.35968638  0.47677804  0.27730558  1  -0.004217  0  -0.037737  -0.188729  0  3.937327  0
C  C22  1  0.53931045  0.50739042  0.23729189  1  -0.002316  0  -0.0907  -0.072749  0  4.061683  0
C  C23  1  0.59091907  0.50612771  0.15819914  1  -0.032356  0  -0.110678  -0.190609  0  4.00992  0
C  C24  1  0.45715407  0.47394092  0.11506535  1  0.049688  0  0.001644  0.173917  0  4.149172  0
C  C25  1  0.28157933  0.44023122  0.15344811  1  -0.013444  0  -0.100517  -0.260507  0  3.886742  0
C  C26  1  0.22860179  0.44008573  0.23442547  1  0.450064  0  0.114646  0.320329  0  4.074866  0
C  C27  1  0.49863044  0.48026778  0.03370108  1  0.216875  0  -0.04516  -0.110011  0  4.103037  0
C  C28  1  0.53593578  0.49121584  0.96391918  1  -0.516424  0  -0.040316  -0.0959  0  4.099699  0
C  C29  1  0.57388035  0.50529805  0.88287577  1  0.049941  0  0.001094  0.168771  0  4.150183  0
C  C30  1  0.78091241  0.48271780  0.84279056  1  0.016981  0  -0.101576  -0.260745  0  3.887364  0
C  C31  1  0.82497095  0.49510629  0.76198394  1  0.424563  0  0.115363  0.319823  0  4.075558  0
C  C32  1  0.64943721  0.52925890  0.72158384  1  0.062744  0  -0.034059  -0.180661  0  3.944195  0
C  C33  1  0.44255153  0.55386931  0.76303933  1  -0.087237  0  -0.090013  -0.078319  0  4.060549  0
C  C34  1  0.40133986  0.54338424  0.84222476  1  -0.082492  0  -0.112018  -0.190235  0  4.005508  0
C  C35  1  0.20093173  0.89527506  0.51886758  1  0.522931  0  0.10938  0.28526  0  4.119695  0
C  C36  1  0.78726780  0.13170993  0.47702832  1  0.013197  0  -0.091294  -0.140472  0  3.978707  0
C  C37  1  0.08727938  0.82805697  0.49514299  1  -0.067511  0  -0.046462  -0.269276  0  3.951438  0
C  C38  1  0.89560220  0.19910467  0.50058255  1  -0.183185  0  -0.021591  -0.120909  0  3.979768  0
C  C39  1  0.89942029  0.02157246  0.48216275  1  -0.145432  0  -0.023349  0.003909  0  4.116842  0
C  C40  1  0.09022109  0.00669044  0.51038874  1  -0.107307  0  -0.028893  -0.120304  0  4.030624  0
S  S41  1  0.85221991  0.89990512  0.46398113  1  0.219333  0  0.066496  0.094829  0  2.828689  0
S  S42  1  0.13383612  0.12897203  0.52902039  1  0.231769  0  0.082318  0.130323  0  2.765658  0
N  N43  1  0.05811438  0.40405356  0.26848686  1  -1.274767  0  -0.586756  -0.607824  0  3.346983  0
N  N44  1  0.02937746  0.46917264  0.72569556  1  -1.232874  0  -0.587173  -0.609249  0  3.354868  0
N  N45  1  0.38193272  0.85906624  0.54886320  1  -1.251058  0  -0.578601  -0.581418  0  3.356221  0
O  O46  1  0.63908824  0.36341989  0.49360718  1  -1.256059  0  -0.239292  -0.586999  0  2.316226  0
O  O47  1  0.85273976  0.54978694  0.60041040  1  -1.270463  0  -0.24265  -0.601761  0  2.361549  0
O  O48  1  0.01635939  0.66111508  0.47909389  1  -1.27432  0  -0.249288  -0.607258  0  2.333434  0
O  O49  1  0.44462041  0.51519577  0.39508019  1  -1.276112  0  -0.248021  -0.617169  0  2.353708  0
O  O50  1  0.33158016  0.66301912  0.51131374  1  -1.272007  0  -0.237887  -0.592776  0  2.342022  0
O  O51  1  0.13091256  0.47611413  0.39620445  1  -1.273607  0  -0.245163  -0.616  0  2.373217  0
O  O52  1  0.96424277  0.36675965  0.51613619  1  -1.258022  0  -0.243591  -0.603774  0  2.344023  0
O  O53  1  0.53227145  0.51736607  0.60474994  1  -1.265631  0  -0.240407  -0.596037  0  2.336126  0
O  O54  1  0.24378279  0.46760167  0.53733252  1  -1.401074  0  -0.447569  -0.980089  0  2.189278  0
O  O55  1  0.73299837  0.55752430  0.46200529  1  -1.426462  0  -0.449537  -0.999428  0  2.214123  0
