# generated using pymatgen
data_CuH18C18S2N2Cl
_symmetry_space_group_name_H-M   'P 1'
_cell_length_a   6.36243007
_cell_length_b   12.11664330
_cell_length_c   12.57231481
_cell_angle_alpha   111.12369606
_cell_angle_beta   92.68657221
_cell_angle_gamma   100.81044064
_symmetry_Int_Tables_number   1
_chemical_formula_structural   CuH18C18S2N2Cl
_chemical_formula_sum   'Cu2 H36 C36 S4 N4 Cl2'
_cell_volume   881.08718719
_cell_formula_units_Z   2
loop_
 _symmetry_equiv_pos_site_id
 _symmetry_equiv_pos_as_xyz
  1  'x, y, z'
loop_
 _atom_site_type_symbol
 _atom_site_label
 _atom_site_symmetry_multiplicity
 _atom_site_fract_x
 _atom_site_fract_y
 _atom_site_fract_z
 _atom_site_occupancy
 _atom_site_pbe_bader_spin_density
 _atom_site_pbe_cm5_charge
 _atom_site_pbe_ddec_charge
 _atom_site_pbe_ddec_spin_density
 _atom_site_pbe_ddec_sum_bond_order
 _atom_site_pbe_magmom
Cu  Cu0  1  0.39793488  0.40158829  0.13278779  1  0  0.330621  0.272487  0  2.708137  0
Cu  Cu1  1  0.60205394  0.59841033  0.86721643  1  0  0.330668  0.272532  0  2.708471  0
H  H2  1  0.92130774  0.06067177  0.00495314  1  0  0.100285  0.092521  0  1.020066  0
H  H3  1  0.07869289  0.93932222  0.99505947  1  0  0.100306  0.09263  0  1.020028  0
H  H4  1  0.63913828  0.05653000  0.98949072  1  0  0.101624  0.092908  0  1.008495  0
H  H5  1  0.36084753  0.94346864  0.01051101  1  0  0.101667  0.093016  0  1.008676  0
H  H6  1  0.64258566  0.11015552  0.19241400  1  0  0.104282  0.097446  0  0.998647  0
H  H7  1  0.35739143  0.88986040  0.80759101  1  0  0.104289  0.097498  0  0.998628  0
H  H8  1  0.92826122  0.11770657  0.20723016  1  0  0.103836  0.090246  0  0.991858  0
H  H9  1  0.07171482  0.88229657  0.79278312  1  0  0.103913  0.09041  0  0.991972  0
H  H10  1  0.05887266  0.20719525  0.90441246  1  0  0.102388  0.088743  0  1.00297  0
H  H11  1  0.94114189  0.79280146  0.09559684  1  0  0.102363  0.088662  0  1.002961  0
H  H12  1  0.92968348  0.33060230  0.92758302  1  0  0.097114  0.091246  0  1.052138  0
H  H13  1  0.07034613  0.66939533  0.07241681  1  0  0.097124  0.091205  0  1.052116  0
H  H14  1  0.50522974  0.27143061  0.87504834  1  0  0.089486  0.094153  0  1.043515  0
H  H15  1  0.49481066  0.72856071  0.12493618  1  0  0.089611  0.094388  0  1.043521  0
H  H16  1  0.22430420  0.14392507  0.70998492  1  0  0.096303  0.092008  0  1.02947  0
H  H17  1  0.77571398  0.85606993  0.29000164  1  0  0.096375  0.092127  0  1.029566  0
H  H18  1  0.29119682  0.95677931  0.56253830  1  0  0.096636  0.094781  0  1.026297  0
H  H19  1  0.70882114  0.04320109  0.43745673  1  0  0.096671  0.094761  0  1.026219  0
H  H20  1  0.64093911  0.89539860  0.58083799  1  0  0.095393  0.094116  0  1.026494  0
H  H21  1  0.35909757  0.10459164  0.41917864  1  0  0.095426  0.093981  0  1.026765  0
H  H22  1  0.92111809  0.02380142  0.74495782  1  0  0.097666  0.097679  0  1.02914  0
H  H23  1  0.07889737  0.97619157  0.25506454  1  0  0.097686  0.097741  0  1.028904  0
H  H24  1  0.64195659  0.32034390  0.34050462  1  0  0.1062  0.090883  0  1.001323  0
H  H25  1  0.35801378  0.67966296  0.65949621  1  0  0.106271  0.090978  0  1.001304  0
H  H26  1  0.83584265  0.44502738  0.33713012  1  0  0.109252  0.100367  0  1.019173  0
H  H27  1  0.16415837  0.55497671  0.66286532  1  0  0.109254  0.100477  0  1.019021  0
H  H28  1  0.70778397  0.26199750  0.49533628  1  0  0.099071  0.099371  0  1.029118  0
H  H29  1  0.29222215  0.73799568  0.50465557  1  0  0.099047  0.0993  0  1.029086  0
H  H30  1  0.95511602  0.24464815  0.64446378  1  0  0.093307  0.093546  0  1.02909  0
H  H31  1  0.04486887  0.75534691  0.35552713  1  0  0.093292  0.093567  0  1.028943  0
H  H32  1  0.35361762  0.31175120  0.65142015  1  0  0.090673  0.091641  0  1.044938  0
H  H33  1  0.64635971  0.68825017  0.34858460  1  0  0.090672  0.091625  0  1.044846  0
H  H34  1  0.49866597  0.39711868  0.51086073  1  0  0.095433  0.089826  0  1.045066  0
H  H35  1  0.50132219  0.60289358  0.48914421  1  0  0.095425  0.089811  0  1.04512  0
H  H36  1  0.24938551  0.40913622  0.35833966  1  0  0.088274  0.081292  0  1.067743  0
H  H37  1  0.75060199  0.59089871  0.64167789  1  0  0.088243  0.081428  0  1.067848  0
C  C38  1  0.86564875  0.31770443  0.12667942  1  0  0.263083  0.250813  0  4.045039  0
C  C39  1  0.13431752  0.68229244  0.87332018  1  0  0.262997  0.250681  0  4.045446  0
C  C40  1  0.79554022  0.10961257  0.03857586  1  0  -0.053657  -0.073895  0  3.827214  0
C  C41  1  0.20446479  0.89039231  0.96143988  1  0  -0.053653  -0.074035  0  3.827188  0
C  C42  1  0.79819582  0.14508161  0.16907913  1  0  -0.050912  -0.066457  0  3.803468  0
C  C43  1  0.20179188  0.85492522  0.83092153  1  0  -0.05105  -0.066843  0  3.803449  0
C  C44  1  0.91402140  0.44740668  0.14240116  1  0  0.009785  0.037251  0  4.04345  0
C  C45  1  0.08596189  0.55260018  0.85759378  1  0  0.009763  0.037371  0  4.04361  0
C  C46  1  0.90405681  0.23523453  0.91833113  1  0  -0.05502  -0.109998  0  3.920904  0
C  C47  1  0.09595284  0.76476130  0.08167449  1  0  -0.055096  -0.109908  0  3.920989  0
C  C48  1  0.73295177  0.15684982  0.81919174  1  0  -0.014581  0.091816  0  3.966398  0
C  C49  1  0.26707329  0.84315061  0.18079696  1  0  -0.0146  0.09173  0  3.966593  0
C  C50  1  0.53493103  0.18950456  0.80976199  1  0  -0.093256  -0.125392  0  3.96637  0
C  C51  1  0.46511749  0.81049041  0.19021694  1  0  -0.093224  -0.125386  0  3.966781  0
C  C52  1  0.37694396  0.11737342  0.71786023  1  0  -0.095899  -0.086378  0  4.019734  0
C  C53  1  0.62307156  0.88261799  0.28211862  1  0  -0.096068  -0.086771  0  4.020228  0
C  C54  1  0.41441991  0.01198787  0.63476801  1  0  -0.095623  -0.091946  0  4.020217  0
C  C55  1  0.58558712  0.98801530  0.36522574  1  0  -0.095526  -0.091571  0  4.020199  0
C  C56  1  0.60994324  0.97787123  0.64457220  1  0  -0.095442  -0.080729  0  4.021847  0
C  C57  1  0.39009085  0.02212446  0.35544702  1  0  -0.095555  -0.080736  0  4.022097  0
C  C58  1  0.76826149  0.05033765  0.73667922  1  0  -0.094712  -0.14341  0  3.982249  0
C  C59  1  0.23175907  0.94964547  0.26331764  1  0  -0.094772  -0.143548  0  3.98175  0
C  C60  1  0.81097730  0.34994389  0.32892877  1  0  -0.048775  -0.10476  0  3.909248  0
C  C61  1  0.18899718  0.65005665  0.67106365  1  0  -0.048822  -0.10499  0  3.909293  0
C  C62  1  0.96238621  0.33721607  0.41791767  1  0  -0.015301  0.092633  0  3.955596  0
C  C63  1  0.03759411  0.66277989  0.58207736  1  0  -0.015393  0.092725  0  3.955515  0
C  C64  1  0.88175358  0.29069580  0.49838280  1  0  -0.093745  -0.141111  0  3.976978  0
C  C65  1  0.11823568  0.70931014  0.50161125  1  0  -0.093708  -0.141065  0  3.97689  0
C  C66  1  0.02122101  0.28048260  0.58198289  1  0  -0.097519  -0.076747  0  4.017708  0
C  C67  1  0.97877183  0.71951332  0.41801339  1  0  -0.097463  -0.076651  0  4.017437  0
C  C68  1  0.24375545  0.31803073  0.58582067  1  0  -0.100077  -0.101028  0  4.029946  0
C  C69  1  0.75623424  0.68196068  0.41416995  1  0  -0.100108  -0.101065  0  4.029837  0
C  C70  1  0.32522737  0.36523150  0.50593903  1  0  -0.098928  -0.09318  0  4.023304  0
C  C71  1  0.67475015  0.63478446  0.49405804  1  0  -0.098814  -0.09296  0  4.023064  0
C  C72  1  0.18590696  0.37392171  0.42179924  1  0  -0.093249  -0.12195  0  3.960281  0
C  C73  1  0.81407766  0.62607246  0.57818976  1  0  -0.09333  -0.122457  0  3.960278  0
S  S74  1  0.70803027  0.50883411  0.11856110  1  0  -0.155474  -0.216754  0  2.843586  0
S  S75  1  0.29197286  0.49116726  0.88143267  1  0  -0.155516  -0.216911  0  2.843423  0
S  S76  1  0.17286301  0.52476107  0.18409963  1  0  -0.151069  -0.20368  0  2.809626  0
S  S77  1  0.82713417  0.47525302  0.81589833  1  0  -0.151041  -0.203639  0  2.809974  0
N  N78  1  0.84357705  0.22707552  0.02561852  1  0  -0.259918  -0.042222  0  3.671451  0
N  N79  1  0.15643358  0.77291851  0.97438413  1  0  -0.259902  -0.042123  0  3.671368  0
N  N80  1  0.84069777  0.27849476  0.21238761  1  0  -0.26048  -0.049518  0  3.66174  0
N  N81  1  0.15929020  0.72150932  0.78761609  1  0  -0.260345  -0.049311  0  3.661292  0
Cl  Cl82  1  0.32753025  0.20905816  0.10997941  1  0  -0.347071  -0.488634  0  1.404046  0
Cl  Cl83  1  0.67248264  0.79093490  0.89003254  1  0  -0.347086  -0.488653  0  1.404159  0
