# generated using pymatgen
data_CdH4C4O5
_symmetry_space_group_name_H-M   'P 1'
_cell_length_a   7.59984835
_cell_length_b   8.70612540
_cell_length_c   9.43269208
_cell_angle_alpha   98.05027321
_cell_angle_beta   98.70736051
_cell_angle_gamma   108.78411342
_symmetry_Int_Tables_number   1
_chemical_formula_structural   CdH4C4O5
_chemical_formula_sum   'Cd4 H16 C16 O20'
_cell_volume   572.05646443
_cell_formula_units_Z   4
loop_
 _symmetry_equiv_pos_site_id
 _symmetry_equiv_pos_as_xyz
  1  'x, y, z'
loop_
 _atom_site_type_symbol
 _atom_site_label
 _atom_site_symmetry_multiplicity
 _atom_site_fract_x
 _atom_site_fract_y
 _atom_site_fract_z
 _atom_site_occupancy
 _atom_site_pbe_bader_spin_density
 _atom_site_pbe_cm5_charge
 _atom_site_pbe_ddec_charge
 _atom_site_pbe_ddec_spin_density
 _atom_site_pbe_ddec_sum_bond_order
 _atom_site_pbe_magmom
Cd  Cd0  1  0.22465377  0.15742678  0.14180440  1  0  0.776411  1.061101  0  2.044811  0
Cd  Cd1  1  0.77534110  0.84257235  0.85819479  1  0  0.776422  1.061106  0  2.044818  0
Cd  Cd2  1  0.69631289  0.53562939  0.32909516  1  0  0.79962  1.022484  0  2.049355  0
Cd  Cd3  1  0.30368998  0.46436978  0.67090288  1  0  0.799612  1.022458  0  2.049364  0
H  H4  1  0.04235712  0.45611273  0.17296360  1  0  0.110655  0.141459  0  0.977522  0
H  H5  1  0.95764506  0.54389139  0.82703182  1  0  0.110648  0.141428  0  0.977585  0
H  H6  1  0.16084428  0.58426393  0.06093686  1  0  0.113268  0.143302  0  0.971041  0
H  H7  1  0.83916303  0.41574639  0.93906425  1  0  0.113278  0.143315  0  0.971062  0
H  H8  1  0.24774608  0.82975657  0.27715942  1  0  0.118124  0.093828  0  1.013668  0
H  H9  1  0.75226093  0.17024631  0.72284492  1  0  0.11815  0.093913  0  1.013601  0
H  H10  1  0.02664304  0.91097525  0.43112487  1  0  0.111102  0.066502  0  1.017043  0
H  H11  1  0.97335518  0.08901894  0.56887832  1  0  0.111095  0.066467  0  1.017066  0
H  H12  1  0.30097035  0.04417942  0.62817245  1  0  0.109646  0.145892  0  0.993896  0
H  H13  1  0.69902951  0.95582221  0.37182979  1  0  0.109639  0.145899  0  0.993915  0
H  H14  1  0.36795821  0.95814293  0.47798207  1  0  0.108553  0.141638  0  1.039425  0
H  H15  1  0.63203948  0.04185993  0.52201795  1  0  0.108536  0.14162  0  1.039424  0
H  H16  1  0.31683939  0.99062044  0.90616059  1  0  0.316118  0.40828  0  0.882634  0
H  H17  1  0.68311224  0.00936373  0.09382079  1  0  0.316215  0.408361  0  0.882691  0
H  H18  1  0.32862876  0.17221826  0.89218117  1  0  0.291972  0.384515  0  0.954755  0
H  H19  1  0.67137510  0.82778338  0.10782156  1  0  0.291916  0.384444  0  0.954856  0
C  C20  1  0.34620755  0.56286222  0.24014785  1  0  0.208717  0.65782  0  4.111179  0
C  C21  1  0.65379497  0.43713942  0.75985153  1  0  0.208719  0.657772  0  4.111202  0
C  C22  1  0.15650493  0.57314997  0.17514634  1  0  -0.1582  -0.337546  0  3.878031  0
C  C23  1  0.84349907  0.42685539  0.82485371  1  0  -0.158237  -0.337581  0  3.87813  0
C  C24  1  0.11647203  0.72054409  0.25214445  1  0  -0.005587  0.042852  0  3.853317  0
C  C25  1  0.88353331  0.27946126  0.74785894  1  0  -0.00559  0.042776  0  3.853356  0
C  C26  1  0.96435644  0.75826078  0.15065453  1  0  0.212067  0.56934  0  4.149179  0
C  C27  1  0.03564939  0.24174581  0.84934909  1  0  0.21209  0.569363  0  4.149162  0
C  C28  1  0.95276104  0.78284848  0.59980755  1  0  0.208454  0.573437  0  4.160778  0
C  C29  1  0.04724400  0.21714945  0.40019589  1  0  0.208468  0.573446  0  4.160753  0
C  C30  1  0.08088913  0.82899853  0.49055514  1  0  -0.004228  0.058751  0  3.874594  0
C  C31  1  0.91911240  0.17100062  0.50944805  1  0  -0.004237  0.058803  0  3.874388  0
C  C32  1  0.28731912  0.92455123  0.56271859  1  0  -0.175018  -0.373923  0  3.903106  0
C  C33  1  0.71267891  0.07544916  0.43728114  1  0  -0.175015  -0.373959  0  3.902993  0
C  C34  1  0.38254734  0.83616779  0.65930035  1  0  0.218725  0.669551  0  4.121309  0
C  C35  1  0.61745603  0.16383261  0.34069791  1  0  0.218768  0.66964  0  4.121232  0
O  O36  1  0.46394033  0.67568681  0.34022239  1  0  -0.304423  -0.517107  0  2.150593  0
O  O37  1  0.53606520  0.32431237  0.65977704  1  0  -0.304431  -0.517062  0  2.150557  0
O  O38  1  0.38718060  0.43790597  0.18202398  1  0  -0.347029  -0.614921  0  2.341583  0
O  O39  1  0.61282142  0.56209443  0.81797413  1  0  -0.34704  -0.614901  0  2.341599  0
O  O40  1  0.79334701  0.70516161  0.16723491  1  0  -0.30786  -0.546528  0  2.343364  0
O  O41  1  0.20666015  0.29484499  0.83277099  1  0  -0.307907  -0.54659  0  2.343314  0
O  O42  1  0.01779300  0.83878888  0.05265031  1  0  -0.321841  -0.58057  0  2.296283  0
O  O43  1  0.98221233  0.16121648  0.94734990  1  0  -0.321817  -0.580541  0  2.296318  0
O  O44  1  0.05620692  0.68230078  0.38468477  1  0  -0.208328  -0.247268  0  2.493996  0
O  O45  1  0.94379777  0.31769962  0.61531896  1  0  -0.208301  -0.247227  0  2.494025  0
O  O46  1  0.27568711  0.70924497  0.69757236  1  0  -0.33926  -0.58122  0  2.285304  0
O  O47  1  0.72431660  0.29075296  0.30242880  1  0  -0.339259  -0.581248  0  2.285396  0
O  O48  1  0.56241398  0.89912911  0.69757326  1  0  -0.320204  -0.563635  0  2.290523  0
O  O49  1  0.43758805  0.10087129  0.30242484  1  0  -0.320241  -0.563668  0  2.290374  0
O  O50  1  0.99684028  0.88885953  0.71927990  1  0  -0.323986  -0.553961  0  2.292834  0
O  O51  1  0.00316560  0.11113717  0.28072349  1  0  -0.323992  -0.553988  0  2.292942  0
O  O52  1  0.80556539  0.65351014  0.56583045  1  0  -0.314952  -0.538909  0  2.332243  0
O  O53  1  0.19443530  0.34649026  0.43416856  1  0  -0.31496  -0.538908  0  2.332199  0
O  O54  1  0.37893737  0.10659957  0.95557007  1  0  -0.572505  -0.72513  0  2.02898  0
O  O55  1  0.62104476  0.89338098  0.04442196  1  0  -0.57254  -0.725174  0  2.029116  0
