# generated using pymatgen
data_BaH28(C2O)10
_symmetry_space_group_name_H-M   'P 1'
_cell_length_a   7.14865660
_cell_length_b   12.98368841
_cell_length_c   14.95217722
_cell_angle_alpha   114.90601610
_cell_angle_beta   102.08674574
_cell_angle_gamma   94.17790150
_symmetry_Int_Tables_number   1
_chemical_formula_structural   BaH28(C2O)10
_chemical_formula_sum   'Ba2 H56 C40 O20'
_cell_volume   1210.37118738
_cell_formula_units_Z   2
loop_
 _symmetry_equiv_pos_site_id
 _symmetry_equiv_pos_as_xyz
  1  'x, y, z'
loop_
 _atom_site_type_symbol
 _atom_site_label
 _atom_site_symmetry_multiplicity
 _atom_site_fract_x
 _atom_site_fract_y
 _atom_site_fract_z
 _atom_site_occupancy
 _atom_site_hle17_bader_spin_density
 _atom_site_hle17_ddec_charge
 _atom_site_hle17_ddec_spin_density
 _atom_site_hle17_ddec_sum_bond_order
 _atom_site_hle17_magmom
 _atom_site_hse06_10hf_bader_spin_density
 _atom_site_hse06_10hf_ddec_charge
 _atom_site_hse06_10hf_ddec_spin_density
 _atom_site_hse06_10hf_ddec_sum_bond_order
 _atom_site_hse06_10hf_magmom
 _atom_site_hse06_bader_spin_density
 _atom_site_hse06_ddec_charge
 _atom_site_hse06_ddec_spin_density
 _atom_site_hse06_ddec_sum_bond_order
 _atom_site_hse06_magmom
 _atom_site_pbe_bader_charge
 _atom_site_pbe_bader_spin_density
 _atom_site_pbe_cm5_charge
 _atom_site_pbe_ddec_charge
 _atom_site_pbe_ddec_spin_density
 _atom_site_pbe_ddec_sum_bond_order
 _atom_site_pbe_magmom
Ba  Ba0  1  0.14624394  0.35418967  0.89783800  1  0  1.641928  0  1.174354  0  0  1.482449  0  1.588357  0  0  1.526522  0  1.541187  0  1.703676  0  0.955592  1.450022  0  1.621958  0
Ba  Ba1  1  0.74891621  0.45650854  0.10169482  1  0  1.641142  0  1.178458  0  0  1.481232  0  1.593761  0  0  1.525373  0  1.546467  0  1.704796  0  0.957061  1.44877  0  1.627448  0
H  H2  1  0.26614529  0.30955445  0.55885161  1  0  0.115574  0  0.943976  0  0  0.13625  0  1.005284  0  0  0.137325  0  1.00527  0  0.051272  0  0.096088  0.135424  0  1.005318  0
H  H3  1  0.20731969  0.75089586  0.44110458  1  0  0.114972  0  0.945363  0  0  0.135826  0  1.006503  0  0  0.136945  0  1.006448  0  0.069796  0  0.095814  0.13496  0  1.006578  0
H  H4  1  0.20513787  0.37743739  0.47718065  1  0  0.095984  0  0.974538  0  0  0.118404  0  1.035297  0  0  0.119366  0  1.035578  0  0.039904  0  0.087771  0.117635  0  1.035141  0
H  H5  1  0.23100482  0.90116440  0.52397593  1  0  0.096443  0  0.974919  0  0  0.118754  0  1.03589  0  0  0.119782  0  1.036106  0  0.022266  0  0.087688  0.11795  0  1.035778  0
H  H6  1  0.04015077  0.35490916  0.54419354  1  0  0.111978  0  0.951003  0  0  0.133476  0  1.011001  0  0  0.133838  0  1.012384  0  0.052701  0  0.093957  0.133149  0  1.010051  0
H  H7  1  0.99743081  0.81222478  0.45660510  1  0  0.111943  0  0.949688  0  0  0.134124  0  1.008864  0  0  0.134512  0  1.010213  0  0.061172  0  0.094445  0.133766  0  1.007952  0
H  H8  1  0.35669503  0.58095166  0.55430522  1  0  0.120078  0  0.980371  0  0  0.134354  0  1.041806  0  0  0.137068  0  1.041339  0  0.051056  0  0.094542  0.132322  0  1.04228  0
H  H9  1  0.30530439  0.02858082  0.44820361  1  0  0.119622  0  0.982738  0  0  0.133503  0  1.044449  0  0  0.136248  0  1.043982  0  0.07817  0  0.094124  0.131513  0  1.044839  0
H  H10  1  0.42258129  0.66717787  0.69579344  1  0  0.126828  0  0.978682  0  0  0.139729  0  1.041712  0  0  0.14281  0  1.040215  0  0.097675  0  0.099365  0.137497  0  1.042846  0
H  H11  1  0.22836687  0.97284891  0.30681820  1  0  0.126745  0  0.976108  0  0  0.13942  0  1.039656  0  0  0.142485  0  1.038116  0  0.06882  0  0.099937  0.137178  0  1.040841  0
H  H12  1  0.35018188  0.60098246  0.88744450  1  0  0.404678  0  0.890422  0  0  0.372053  0  0.972008  0  0  0.385052  0  0.957059  0  0.654048  0  0.308168  0.362932  0  0.981498  0
H  H13  1  0.96258850  0.71481990  0.11388220  1  0  0.404582  0  0.891563  0  0  0.371358  0  0.973949  0  0  0.38435  0  0.958324  0  0.654613  0  0.307211  0.362257  0  0.983382  0
H  H14  1  0.14365062  0.93403308  0.68824137  1  0  0.112892  0  0.949015  0  0  0.136023  0  1.007488  0  0  0.136712  0  1.008221  0  0.034984  0  0.09647  0.135483  0  1.007018  0
H  H15  1  0.95272526  0.24725040  0.31018905  1  0  0.113483  0  0.947874  0  0  0.136369  0  1.006632  0  0  0.137136  0  1.007244  0  0.072858  0  0.096769  0.135773  0  1.006242  0
H  H16  1  0.97035087  0.89395199  0.74065145  1  0  0.102105  0  0.955095  0  0  0.124079  0  1.017676  0  0  0.12465  0  1.017734  0  0.041008  0  0.092  0.123621  0  1.017671  0
H  H17  1  0.72793504  0.15270702  0.25668971  1  0  0.101647  0  0.955036  0  0  0.123609  0  1.017571  0  0  0.12418  0  1.017643  0  0.051044  0  0.09176  0.123176  0  1.017531  0
H  H18  1  0.13277721  0.79870980  0.69353940  1  0  0.106343  0  0.947214  0  0  0.131823  0  1.001414  0  0  0.132583  0  1.002373  0  0.061745  0  0.091976  0.131241  0  1.000752  0
H  H19  1  0.93886105  0.10652341  0.30473852  1  0  0.10595  0  0.94709  0  0  0.131254  0  1.001328  0  0  0.131979  0  1.002319  0  0.053409  0  0.09185  0.130699  0  1.000639  0
H  H20  1  0.38536697  0.80141197  0.83455050  1  0  0.127584  0  0.988555  0  0  0.138149  0  1.054981  0  0  0.141808  0  1.052618  0  0.089171  0  0.095305  0.135506  0  1.056692  0
H  H21  1  0.05312422  0.96844787  0.16495559  1  0  0.128412  0  0.985965  0  0  0.139101  0  1.052013  0  0  0.142756  0  1.049659  0  0.084498  0  0.096091  0.136481  0  1.05371  0
H  H22  1  0.48818025  0.94081790  0.95114527  1  0  0.131538  0  0.967925  0  0  0.142205  0  1.031506  0  0  0.145558  0  1.029684  0  0.122509  0  0.099588  0.139796  0  1.032884  0
H  H23  1  0.03954175  0.99020305  0.04850779  1  0  0.133366  0  0.967451  0  0  0.143472  0  1.031347  0  0  0.146818  0  1.029552  0  0.098214  0  0.100081  0.141021  0  1.032767  0
H  H24  1  0.37919411  0.20765388  0.02867628  1  0  0.407856  0  0.887054  0  0  0.375121  0  0.968994  0  0  0.387583  0  0.953639  0  0.659755  0  0.312966  0.366402  0  0.978224  0
H  H25  1  0.84910695  0.17763017  0.97015258  1  0  0.409758  0  0.88451  0  0  0.377269  0  0.966046  0  0  0.389741  0  0.950289  0  0.666335  0  0.313951  0.368538  0  0.975374  0
H  H26  1  0.78987501  0.41762090  0.74289011  1  0  0.409452  0  0.887278  0  0  0.376708  0  0.967475  0  0  0.389708  0  0.949242  0  0.643333  0  0.309263  0.367589  0  0.978143  0
H  H27  1  0.55073776  0.67528728  0.25869369  1  0  0.410087  0  0.884966  0  0  0.377819  0  0.965328  0  0  0.390763  0  0.947143  0  0.643651  0  0.309041  0.368667  0  0.97546  0
H  H28  1  0.74075102  0.02380368  0.54772264  1  0  0.112216  0  0.944053  0  0  0.133147  0  1.006464  0  0  0.133974  0  1.006647  0  0.054024  0  0.094959  0.132495  0  1.006369  0
H  H29  1  0.69334458  0.47250555  0.44846461  1  0  0.111949  0  0.945197  0  0  0.133004  0  1.00761  0  0  0.133846  0  1.007782  0  0.045984  0  0.09474  0.132323  0  1.007534  0
H  H30  1  0.94663749  0.07580081  0.52198232  1  0  0.115143  0  0.938751  0  0  0.140039  0  0.99321  0  0  0.140764  0  0.993838  0  0.075364  0  0.09764  0.139484  0  0.992762  0
H  H31  1  0.92597215  0.55210386  0.47844908  1  0  0.115677  0  0.938119  0  0  0.140338  0  0.992873  0  0  0.14105  0  0.99353  0  0.03933  0  0.097957  0.139772  0  0.992432  0
H  H32  1  0.72807460  0.00620665  0.42121639  1  0  0.107281  0  0.96661  0  0  0.130249  0  1.026078  0  0  0.13105  0  1.027023  0  0.035311  0  0.091324  0.1296  0  1.025452  0
H  H33  1  0.80318771  0.58071428  0.57658020  1  0  0.1077  0  0.963089  0  0  0.130509  0  1.022475  0  0  0.131325  0  1.023359  0  0.033058  0  0.090925  0.129854  0  1.021875  0
H  H34  1  0.32561400  0.91248488  0.07171230  1  0  0.118588  0  0.96651  0  0  0.136863  0  1.02115  0  0  0.139159  0  1.020603  0  0.061675  0  0.097811  0.135195  0  1.021592  0
H  H35  1  0.75336836  0.84139072  0.93003562  1  0  0.11779  0  0.968841  0  0  0.136243  0  1.023248  0  0  0.138517  0  1.022712  0  0.039378  0  0.097886  0.134591  0  1.02368  0
H  H36  1  0.22397270  0.76060748  0.97573679  1  0  0.125461  0  0.985545  0  0  0.136747  0  1.048638  0  0  0.139569  0  1.048345  0  0.081697  0  0.098647  0.134699  0  1.048941  0
H  H37  1  0.74670416  0.78531274  0.02507269  1  0  0.125879  0  0.983239  0  0  0.137098  0  1.046466  0  0  0.139901  0  1.046227  0  0.100049  0  0.099463  0.135033  0  1.046803  0
H  H38  1  0.72427441  0.85592526  0.21423448  1  0  0.109859  0  0.966811  0  0  0.128631  0  1.033098  0  0  0.129887  0  1.033166  0  0.068072  0  0.091077  0.127669  0  1.033085  0
H  H39  1  0.01297609  0.64260699  0.78859986  1  0  0.108221  0  0.969198  0  0  0.127461  0  1.034769  0  0  0.128688  0  1.034876  0  0.05462  0  0.090522  0.126522  0  1.034721  0
H  H40  1  0.53383169  0.85479476  0.27269874  1  0  0.106161  0  0.970722  0  0  0.127061  0  1.035151  0  0  0.127994  0  1.035473  0  0.044537  0  0.091404  0.126323  0  1.034997  0
H  H41  1  0.76368668  0.58290621  0.72883277  1  0  0.106921  0  0.969866  0  0  0.12731  0  1.034977  0  0  0.12824  0  1.035298  0  0.05058  0  0.091528  0.126562  0  1.034836  0
H  H42  1  0.56480723  0.95694398  0.22408503  1  0  0.094562  0  0.960441  0  0  0.120164  0  1.018025  0  0  0.120698  0  1.0188  0  -0.001511  0  0.087977  0.119702  0  1.017538  0
H  H43  1  0.84466497  0.73433160  0.77911030  1  0  0.094994  0  0.958788  0  0  0.120864  0  1.015786  0  0  0.121443  0  1.016534  0  0.022767  0  0.087616  0.120351  0  1.015328  0
H  H44  1  0.38709936  0.23199524  0.68876658  1  0  0.122037  0  0.957527  0  0  0.140448  0  1.02179  0  0  0.14238  0  1.021053  0  0.078691  0  0.09973  0.139033  0  1.022341  0
H  H45  1  0.20355443  0.54338006  0.31258431  1  0  0.121465  0  0.957581  0  0  0.140022  0  1.021575  0  0  0.141891  0  1.020911  0  0.068787  0  0.099965  0.138644  0  1.022078  0
H  H46  1  0.23934066  0.13661367  0.71242478  1  0  0.112823  0  0.966077  0  0  0.134918  0  1.029315  0  0  0.136409  0  1.028768  0  0.086924  0  0.103252  0.133799  0  1.029774  0
H  H47  1  0.02964781  0.42418563  0.28694987  1  0  0.112744  0  0.967738  0  0  0.134723  0  1.031169  0  0  0.136273  0  1.030574  0  0.052174  0  0.103078  0.133571  0  1.031651  0
H  H48  1  0.35671749  0.07953935  0.61305949  1  0  0.087335  0  0.985375  0  0  0.110867  0  1.0492  0  0  0.111358  0  1.049999  0  0.011223  0  0.083884  0.110424  0  1.048715  0
H  H49  1  0.24732824  0.46462273  0.38596066  1  0  0.086749  0  0.984325  0  0  0.110437  0  1.047928  0  0  0.110941  0  1.048703  0  0.027656  0  0.083527  0.109986  0  1.047447  0
H  H50  1  0.57837073  0.97234424  0.67085443  1  0  0.10815  0  0.978685  0  0  0.126058  0  1.037878  0  0  0.128421  0  1.037214  0  0.032461  0  0.091005  0.124353  0  1.03839  0
H  H51  1  0.40867809  0.29894085  0.32567783  1  0  0.10835  0  0.977362  0  0  0.126547  0  1.036203  0  0  0.128829  0  1.035608  0  0.058307  0  0.09161  0.124882  0  1.036674  0
H  H52  1  0.76344362  0.05020570  0.79664814  1  0  0.13561  0  0.973242  0  0  0.146336  0  1.037103  0  0  0.150304  0  1.034491  0  0.10763  0  0.103719  0.143499  0  1.038988  0
H  H53  1  0.46627522  0.25146490  0.19990540  1  0  0.13654  0  0.975723  0  0  0.147369  0  1.039285  0  0  0.151349  0  1.036656  0  0.118742  0  0.103521  0.144505  0  1.041213  0
H  H54  1  0.55893556  0.14573288  0.38191276  1  0  0.120291  0  0.968342  0  0  0.136231  0  1.027198  0  0  0.139195  0  1.02595  0  0.039665  0  0.097711  0.134057  0  1.028205  0
H  H55  1  0.67473017  0.76005906  0.61754881  1  0  0.120421  0  0.968375  0  0  0.136554  0  1.026758  0  0  0.139424  0  1.025611  0  0.036164  0  0.09751  0.134435  0  1.027689  0
H  H56  1  0.56980870  0.29177923  0.48724603  1  0  0.131684  0  0.973006  0  0  0.142508  0  1.038099  0  0  0.146085  0  1.036112  0  0.093162  0  0.100172  0.13995  0  1.039506  0
H  H57  1  0.58322111  0.80260748  0.51372884  1  0  0.131802  0  0.974232  0  0  0.142222  0  1.039587  0  0  0.145801  0  1.03759  0  0.091209  0  0.100408  0.139665  0  1.041031  0
C  C58  1  0.28900790  0.50034090  0.74091700  1  0  0.650245  0  3.792352  0  0  0.603766  0  4.079353  0  0  0.63727  0  4.070199  0  1.497425  0  0.241277  0.580947  0  4.085145  0
C  C59  1  0.04914298  0.76038205  0.26012195  1  0  0.651366  0  3.793445  0  0  0.604784  0  4.080419  0  0  0.638255  0  4.071356  0  1.529993  0  0.241657  0.581998  0  4.086152  0
C  C60  1  0.28408722  0.49324295  0.63804376  1  0  0.039718  0  3.761673  0  0  0.071922  0  4.001828  0  0  0.065967  0  4.024966  0  0.017599  0  -0.01477  0.075657  0  3.986208  0
C  C61  1  0.14770841  0.85637338  0.36347984  1  0  0.041714  0  3.758016  0  0  0.0726  0  4.000071  0  0  0.066562  0  4.023338  0  0.005865  0  -0.014396  0.076347  0  3.984433  0
C  C62  1  0.19455450  0.37775361  0.54935178  1  0  -0.316462  0  3.751453  0  0  -0.397268  0  3.980952  0  0  -0.398568  0  3.992375  0  -0.059852  0  -0.237811  -0.396005  0  3.973084  0
C  C63  1  0.14682602  0.82932046  0.45147485  1  0  -0.316573  0  3.749704  0  0  -0.397765  0  3.979273  0  0  -0.399116  0  3.990614  0  -0.067477  0  -0.237711  -0.396438  0  3.971468  0
C  C64  1  0.35742130  0.58532576  0.62882380  1  0  -0.261326  0  3.563041  0  0  -0.321081  0  3.793944  0  0  -0.322985  0  3.808974  0  -0.118849  0  -0.162721  -0.31949  0  3.78389  0
C  C65  1  0.23074333  0.95809424  0.37349160  1  0  -0.261202  0  3.559733  0  0  -0.320013  0  3.791452  0  0  -0.321903  0  3.806479  0  -0.13285  0  -0.163504  -0.318446  0  3.781369  0
C  C66  1  0.26523632  0.07264224  0.89870178  1  0  0.65069  0  3.803582  0  0  0.603693  0  4.092592  0  0  0.636833  0  4.085117  0  1.510582  0  0.239983  0.58114  0  4.097243  0
C  C67  1  0.86554730  0.17364771  0.09989052  1  0  0.651147  0  3.802249  0  0  0.602939  0  4.093108  0  0  0.636165  0  4.085574  0  1.517449  0  0.240664  0.580323  0  4.097794  0
C  C68  1  0.26287201  0.94722035  0.83790740  1  0  0.022164  0  3.781988  0  0  0.056548  0  4.019115  0  0  0.04847  0  4.045522  0  -0.077846  0  -0.02089  0.061724  0  4.001296  0
C  C69  1  0.92465864  0.10972431  0.16072613  1  0  0.024042  0  3.77911  0  0  0.058226  0  4.016668  0  0  0.050151  0  4.042976  0  0.003765  0  -0.019398  0.06344  0  3.998854  0
C  C70  1  0.12035201  0.88951617  0.73437249  1  0  -0.313714  0  3.757341  0  0  -0.396642  0  3.986997  0  0  -0.397918  0  3.999868  0  -0.054975  0  -0.239365  -0.395397  0  3.97812  0
C  C71  1  0.88466951  0.15583774  0.26377321  1  0  -0.313491  0  3.756062  0  0  -0.395758  0  3.985512  0  0  -0.397038  0  3.998343  0  -0.092708  0  -0.239557  -0.39452  0  3.976658  0
C  C72  1  0.38555529  0.89340725  0.87609102  1  0  -0.249505  0  3.556928  0  0  -0.309267  0  3.791895  0  0  -0.310699  0  3.80668  0  -0.074412  0  -0.161276  -0.307934  0  3.781933  0
C  C73  1  0.01098189  0.01813709  0.12314393  1  0  -0.252246  0  3.558255  0  0  -0.311329  0  3.793695  0  0  -0.312775  0  3.808454  0  -0.125812  0  -0.16231  -0.309985  0  3.78376  0
C  C74  1  0.79279539  0.26378437  0.64048790  1  0  0.649106  0  3.799829  0  0  0.603917  0  4.086709  0  0  0.636792  0  4.079042  0  1.48633  0  0.24166  0.581552  0  4.091451  0
C  C75  1  0.65565095  0.62249541  0.35964744  1  0  0.648625  0  3.801329  0  0  0.603314  0  4.088636  0  0  0.636132  0  4.081057  0  1.51424  0  0.240986  0.580952  0  4.09336  0
C  C76  1  0.72306208  0.17893312  0.53003785  1  0  0.034903  0  3.769404  0  0  0.066474  0  4.010696  0  0  0.060286  0  4.034789  0  -0.059639  0  -0.013815  0.070384  0  3.994428  0
C  C77  1  0.69396991  0.64671719  0.46944024  1  0  0.035996  0  3.76864  0  0  0.067301  0  4.010386  0  0  0.061054  0  4.034636  0  -0.070722  0  -0.013578  0.07124  0  3.994056  0
C  C78  1  0.62446714  0.24808146  0.86463318  1  0  0.670459  0  3.861999  0  0  0.621112  0  4.146503  0  0  0.655557  0  4.137993  0  1.555468  0  0.229116  0.59768  0  4.151568  0
C  C79  1  0.26031483  0.38327059  0.13468671  1  0  0.670412  0  3.857136  0  0  0.622315  0  4.141025  0  0  0.656741  0  4.132449  0  1.55117  0  0.22982  0.598902  0  4.146131  0
C  C80  1  0.54822166  0.14304991  0.76355885  1  0  0.038198  0  3.748693  0  0  0.07221  0  3.988049  0  0  0.066192  0  4.011814  0  -0.068318  0  -0.014334  0.076001  0  3.972013  0
C  C81  1  0.28613104  0.37856112  0.23504897  1  0  0.040873  0  3.74687  0  0  0.072237  0  3.989302  0  0  0.066167  0  4.013086  0  -0.008482  0  -0.014144  0.076054  0  3.973248  0
C  C82  1  0.78698988  0.06458961  0.50274203  1  0  -0.316341  0  3.746195  0  0  -0.397684  0  3.973822  0  0  -0.399154  0  3.985641  0  -0.064399  0  -0.238353  -0.396329  0  3.965681  0
C  C83  1  0.78384649  0.55882178  0.49562183  1  0  -0.317415  0  3.744385  0  0  -0.398503  0  3.97215  0  0  -0.399954  0  3.984  0  -0.011888  0  -0.23832  -0.397115  0  3.964005  0
C  C84  1  0.43259166  0.65791591  0.07548871  1  0  0.678694  0  3.84247  0  0  0.629219  0  4.131101  0  0  0.664245  0  4.121269  0  1.563002  0  0.238009  0.605451  0  4.137073  0
C  C85  1  0.85789936  0.58314399  0.92570778  1  0  0.681877  0  3.834351  0  0  0.629979  0  4.126895  0  0  0.665068  0  4.116907  0  1.544725  0  0.238066  0.60621  0  4.132934  0
C  C86  1  0.43891892  0.78484482  0.10839718  1  0  0.021846  0  3.758377  0  0  0.054135  0  3.998841  0  0  0.047947  0  4.021016  0  -0.063028  0  -0.021822  0.058056  0  3.983806  0
C  C87  1  0.83196976  0.67723974  0.89329559  1  0  0.020069  0  3.75597  0  0  0.052763  0  3.997385  0  0  0.04656  0  4.019442  0  -0.092641  0  -0.023198  0.05664  0  3.982481  0
C  C88  1  0.32423678  0.82078174  0.04835212  1  0  -0.244848  0  3.566402  0  0  -0.300047  0  3.796856  0  0  -0.302072  0  3.813172  0  -0.065573  0  -0.161667  -0.298366  0  3.785821  0
C  C89  1  0.77567082  0.77306136  0.95305909  1  0  -0.243024  0  3.566983  0  0  -0.29824  0  3.797359  0  0  -0.300226  0  3.813612  0  -0.009327  0  -0.161695  -0.296573  0  3.786384  0
C  C90  1  0.57254827  0.86758567  0.21028894  1  0  -0.321262  0  3.757194  0  0  -0.403911  0  3.989486  0  0  -0.405314  0  4.001049  0  -0.032303  0  -0.244888  -0.402585  0  3.981562  0
C  C91  1  0.86507032  0.65827382  0.79207569  1  0  -0.320115  0  3.753702  0  0  -0.402515  0  3.984976  0  0  -0.403995  0  3.996601  0  -0.059273  0  -0.24365  -0.401108  0  3.977042  0
C  C92  1  0.37403081  0.14809349  0.69042991  1  0  -0.332016  0  3.744307  0  0  -0.418585  0  3.980077  0  0  -0.420504  0  3.99118  0  -0.105041  0  -0.238745  -0.416883  0  3.972438  0
C  C93  1  0.18692467  0.45700491  0.30922547  1  0  -0.331574  0  3.747029  0  0  -0.41723  0  3.98283  0  0  -0.419228  0  3.994146  0  -0.066047  0  -0.238109  -0.415487  0  3.975093  0
C  C94  1  0.63435046  0.05035253  0.74305406  1  0  -0.256197  0  3.555965  0  0  -0.312669  0  3.783287  0  0  -0.314991  0  3.798142  0  -0.058353  0  -0.160627  -0.31083  0  3.773316  0
C  C95  1  0.39197786  0.30540740  0.25409483  1  0  -0.259101  0  3.559241  0  0  -0.315239  0  3.787713  0  0  -0.317474  0  3.802642  0  -0.161622  0  -0.162179  -0.313416  0  3.777673  0
C  C96  1  0.61101855  0.20695682  0.46264657  1  0  -0.265249  0  3.560945  0  0  -0.325155  0  3.792864  0  0  -0.327176  0  3.80716  0  -0.014188  0  -0.163127  -0.323505  0  3.783253  0
C  C97  1  0.64808105  0.74167346  0.53733015  1  0  -0.265655  0  3.563068  0  0  -0.325234  0  3.795326  0  0  -0.327184  0  3.809762  0  -0.030767  0  -0.162831  -0.323603  0  3.785635  0
O  O98  1  0.23826655  0.41282502  0.75006278  1  0  -0.592489  0  1.989565  0  0  -0.542272  0  2.222011  0  0  -0.564265  0  2.213628  0  -1.162525  0  -0.314861  -0.527096  0  2.227527  0
O  O99  1  0.99009045  0.66296748  0.24991345  1  0  -0.59374  0  1.99022  0  0  -0.543581  0  2.223485  0  0  -0.565549  0  2.214983  0  -1.166252  0  -0.316411  -0.528382  0  2.229008  0
O  O100  1  0.34827534  0.60506388  0.81920475  1  0  -0.570631  0  2.135658  0  0  -0.51509  0  2.358584  0  0  -0.54009  0  2.346249  0  -1.172807  0  -0.322753  -0.497723  0  2.365989  0
O  O101  1  0.02869631  0.78744684  0.18265229  1  0  -0.572947  0  2.135992  0  0  -0.516158  0  2.358413  0  0  -0.541179  0  2.345649  0  -1.178562  0  -0.323215  -0.498787  0  2.365736  0
O  O102  1  0.16203698  0.12610364  0.86254952  1  0  -0.608601  0  1.978857  0  0  -0.556605  0  2.212519  0  0  -0.579014  0  2.203741  0  -1.174259  0  -0.321073  -0.541075  0  2.218305  0
O  O103  1  0.79829882  0.26346512  0.13596616  1  0  -0.608485  0  1.980922  0  0  -0.55566  0  2.21489  0  0  -0.578138  0  2.20612  0  -1.185344  0  -0.321006  -0.540103  0  2.220693  0
O  O104  1  0.38428575  0.12116286  0.99257566  1  0  -0.553523  0  2.089414  0  0  -0.502271  0  2.308613  0  0  -0.525231  0  2.293824  0  -1.182785  0  -0.322831  -0.486301  0  2.317291  0
O  O105  1  0.89037406  0.12755023  0.00611540  1  0  -0.554578  0  2.085927  0  0  -0.502821  0  2.304318  0  0  -0.52569  0  2.289035  0  -1.186723  0  -0.323847  -0.486913  0  2.313177  0
O  O106  1  0.73507051  0.36507857  0.66522333  1  0  -0.564306  0  2.08099  0  0  -0.513703  0  2.296975  0  0  -0.536816  0  2.280291  0  -1.166006  0  -0.331889  -0.497621  0  2.306493  0
O  O107  1  0.57406176  0.69986080  0.33603745  1  0  -0.563815  0  2.079749  0  0  -0.513637  0  2.295577  0  0  -0.536614  0  2.278855  0  -1.169692  0  -0.331285  -0.4976  0  2.30474  0
O  O108  1  0.89637005  0.23836808  0.70286915  1  0  -0.596652  0  1.98863  0  0  -0.544122  0  2.218331  0  0  -0.567425  0  2.211627  0  -1.168593  0  -0.318201  -0.52799  0  2.222641  0
O  O109  1  0.69759450  0.53502613  0.29674840  1  0  -0.59575  0  1.990404  0  0  -0.542906  0  2.219891  0  0  -0.566181  0  2.21326  0  -1.169126  0  -0.317071  -0.5268  0  2.224194  0
O  O110  1  0.79589116  0.26013525  0.92160884  1  0  -0.760645  0  2.076623  0  0  -0.690142  0  2.319197  0  0  -0.718023  0  2.308234  0  -1.237211  0  -0.37873  -0.670457  0  2.325855  0
O  O111  1  0.37418707  0.33862688  0.07741476  1  0  -0.761043  0  2.077876  0  0  -0.690314  0  2.320123  0  0  -0.718257  0  2.30939  0  -1.232506  0  -0.378392  -0.670582  0  2.326633  0
O  O112  1  0.51808485  0.32328248  0.89214294  1  0  -0.694898  0  1.989746  0  0  -0.632749  0  2.234905  0  0  -0.659267  0  2.225531  0  -1.199139  0  -0.376172  -0.614146  0  2.240891  0
O  O113  1  0.12627762  0.43122541  0.10799633  1  0  -0.693943  0  1.987834  0  0  -0.632371  0  2.233  0  0  -0.658831  0  2.223612  0  -1.204402  0  -0.375788  -0.613813  0  2.238996  0
O  O114  1  0.35096877  0.58488244  0.98270534  1  0  -0.685344  0  2.028737  0  0  -0.6241  0  2.266679  0  0  -0.650766  0  2.255833  0  -1.214458  0  -0.33553  -0.605477  0  2.273427  0
O  O115  1  0.86871902  0.60317873  0.01822825  1  0  -0.684842  0  2.027281  0  0  -0.622622  0  2.266475  0  0  -0.649318  0  2.255498  0  -1.20666  0  -0.334376  -0.603995  0  2.273166  0
O  O116  1  0.51174022  0.62567440  0.14188536  1  0  -0.677072  0  2.031107  0  0  -0.614141  0  2.268347  0  0  -0.640518  0  2.256688  0  -1.207093  0  -0.338941  -0.595687  0  2.275331  0
O  O117  1  0.87004015  0.48392798  0.85911302  1  0  -0.678896  0  2.032861  0  0  -0.614955  0  2.271601  0  0  -0.641381  0  2.259791  0  -1.207288  0  -0.339524  -0.596482  0  2.278688  0
