# generated using pymatgen
data_NiH9C5(NO2)3
_symmetry_space_group_name_H-M   'P 1'
_cell_length_a   7.56162956
_cell_length_b   8.30365444
_cell_length_c   14.61836383
_cell_angle_alpha   90.00015728
_cell_angle_beta   89.99999583
_cell_angle_gamma   89.99954229
_symmetry_Int_Tables_number   1
_chemical_formula_structural   NiH9C5(NO2)3
_chemical_formula_sum   'Ni4 H36 C20 N12 O24'
_cell_volume   917.87476876
_cell_formula_units_Z   4
loop_
 _symmetry_equiv_pos_site_id
 _symmetry_equiv_pos_as_xyz
  1  'x, y, z'
loop_
 _atom_site_type_symbol
 _atom_site_label
 _atom_site_symmetry_multiplicity
 _atom_site_fract_x
 _atom_site_fract_y
 _atom_site_fract_z
 _atom_site_occupancy
 _atom_site_hle17_ddec_charge
 _atom_site_hle17_ddec_spin_density
 _atom_site_hle17_ddec_sum_bond_order
 _atom_site_hle17_magmom
 _atom_site_hse06_10hf_ddec_charge
 _atom_site_hse06_10hf_ddec_spin_density
 _atom_site_hse06_10hf_ddec_sum_bond_order
 _atom_site_hse06_10hf_magmom
 _atom_site_hse06_ddec_charge
 _atom_site_hse06_ddec_spin_density
 _atom_site_hse06_ddec_sum_bond_order
 _atom_site_hse06_magmom
 _atom_site_pbe_cm5_charge
 _atom_site_pbe_ddec_charge
 _atom_site_pbe_ddec_spin_density
 _atom_site_pbe_ddec_sum_bond_order
 _atom_site_pbe_magmom
Ni  Ni0  1  0.69044616  0.36068761  0.32715179  1  0.928399  1.758332  1.858121  1.526  0.932782  1.822972  2.247606  1.646  1.020062  1.872246  2.176732  1.727  0.623554  0.864002  1.778775  2.305095  1.576
Ni  Ni1  1  0.19044507  0.13931188  0.67284832  1  0.928399  1.758334  1.858137  1.526  0.932772  1.822976  2.247617  1.646  1.020104  1.872248  2.176648  1.727  0.62356  0.86401  1.778779  2.305053  1.576
Ni  Ni2  1  0.30955391  0.86068658  0.17284832  1  0.928449  1.758332  1.858067  1.526  0.932831  1.822978  2.247534  1.646  1.0201  1.87224  2.176642  1.727  0.623579  0.864013  1.778782  2.305045  1.576
Ni  Ni3  1  0.80955285  0.63931510  0.82715188  1  0.928477  1.75833  1.858042  1.526  0.932821  1.822967  2.247496  1.646  1.020094  1.872242  2.176656  1.727  0.623591  0.864034  1.778778  2.305011  1.576
H  H4  1  0.76883765  0.43481215  0.67394716  1  0.333587  6e-05  0.918449  0.001  0.308596  9.6e-05  0.990323  0.0  0.318907  -3e-06  0.980814  0.0  0.317599  0.30123  0.000214  0.997253  0.001
H  H5  1  0.26884122  0.06518796  0.32605295  1  0.33365  6e-05  0.918369  0.001  0.308631  9.6e-05  0.990274  0.0  0.318956  -3e-06  0.980746  0.0  0.31761  0.301264  0.000214  0.997211  0.001
H  H6  1  0.23115906  0.93480522  0.82605281  1  0.333719  6.1e-05  0.918264  0.001  0.308713  9.7e-05  0.990135  0.0  0.319041  -3e-06  0.980614  0.0  0.317621  0.301344  0.000214  0.997073  0.001
H  H7  1  0.73115874  0.56519343  0.17394739  1  0.333663  6.1e-05  0.918304  0.001  0.308645  9.7e-05  0.990203  0.0  0.318977  -3e-06  0.980683  0.0  0.317619  0.30128  0.000214  0.997143  0.001
H  H8  1  0.82430933  0.85962211  0.51741902  1  0.154997  0.000378  0.935086  0.001  0.16226  0.000362  0.994503  0.0  0.167456  0.000242  0.992031  0.0  0.114911  0.158503  0.000494  0.996601  0.001
H  H9  1  0.32430958  0.64037825  0.48257912  1  0.155012  0.000376  0.935083  0.001  0.162275  0.000362  0.994497  0.0  0.167471  0.000243  0.992024  0.0  0.114943  0.158523  0.000494  0.996595  0.001
H  H10  1  0.17569728  0.35961809  0.98258220  1  0.155036  0.000377  0.935124  0.001  0.162318  0.000362  0.994518  0.0  0.167516  0.000242  0.992043  0.0  0.114922  0.158562  0.000494  0.996617  0.001
H  H11  1  0.67569370  0.14038271  0.01741860  1  0.155035  0.000375  0.935109  0.001  0.162301  0.000362  0.994514  0.0  0.167497  0.000243  0.992042  0.0  0.114938  0.158549  0.000494  0.996614  0.001
H  H12  1  0.35852815  0.39420528  0.27160730  1  0.412501  -9.5e-05  0.873243  0.0  0.386285  0.000353  0.94152  0.001  0.397634  0.000204  0.925057  0.0  0.295214  0.377977  0.000499  0.953555  0.001
H  H13  1  0.85852740  0.10579176  0.72839212  1  0.412598  -9.4e-05  0.873085  0.0  0.386237  0.000353  0.941594  0.001  0.397586  0.000204  0.925129  0.0  0.295192  0.377932  0.000499  0.953626  0.001
H  H14  1  0.64147295  0.89420205  0.22839492  1  0.412425  -9.5e-05  0.873303  0.0  0.386213  0.000352  0.94161  0.001  0.397562  0.000204  0.925146  0.0  0.295169  0.377902  0.000499  0.953648  0.001
H  H15  1  0.14147478  0.60579727  0.77160597  1  0.412487  -9.6e-05  0.873237  0.0  0.386205  0.000353  0.941631  0.001  0.397556  0.000204  0.925164  0.0  0.295164  0.377896  0.000499  0.953667  0.001
H  H16  1  0.35300838  0.34493206  0.37541505  1  0.413611  -0.00035  0.890434  0.0  0.385286  6.5e-05  0.950667  0.0  0.396858  -4.2e-05  0.933979  0.0  0.291006  0.376943  0.000175  0.96268  0.0
H  H17  1  0.85300590  0.15506742  0.62458574  1  0.413642  -0.000349  0.890393  0.0  0.385311  6.5e-05  0.950632  0.0  0.396882  -4.2e-05  0.933946  0.0  0.291012  0.376969  0.000175  0.962644  0.0
H  H18  1  0.64699447  0.84493311  0.12458504  1  0.41364  -0.00035  0.890393  0.0  0.385307  6.5e-05  0.95064  0.0  0.396879  -4.3e-05  0.933952  0.0  0.291008  0.376967  0.000175  0.962649  0.0
H  H19  1  0.14699321  0.65506737  0.87541517  1  0.41362  -0.00035  0.890419  0.0  0.385282  6.5e-05  0.950672  0.0  0.396855  -4.2e-05  0.933982  0.0  0.291012  0.376938  0.000175  0.962687  0.0
H  H20  1  0.02262746  0.28659872  0.36891429  1  0.339319  -0.001561  0.919191  -0.002  0.327458  -0.000342  0.978669  0.0  0.335068  -0.000448  0.973397  -0.001  0.284956  0.321881  -0.000212  0.982494  0.0
H  H21  1  0.52262448  0.21340322  0.63108583  1  0.339315  -0.001558  0.919235  -0.002  0.327479  -0.000342  0.978668  0.0  0.335088  -0.000448  0.973397  -0.001  0.284995  0.321904  -0.000212  0.982494  0.0
H  H22  1  0.97737192  0.78659975  0.13108503  1  0.339311  -0.00156  0.919158  -0.002  0.327462  -0.000342  0.978631  0.0  0.335072  -0.000449  0.973356  -0.001  0.284945  0.321889  -0.000212  0.982459  0.0
H  H23  1  0.47737016  0.71340189  0.86891379  1  0.339356  -0.001561  0.919154  -0.002  0.32749  -0.000342  0.978632  0.0  0.335101  -0.000449  0.973357  -0.001  0.284958  0.321913  -0.000212  0.982458  0.0
H  H24  1  0.01608235  0.34006771  0.26052326  1  0.33494  -0.001228  0.905349  -0.001  0.325548  3.8e-05  0.963787  0.0  0.332887  -0.000112  0.958669  0.0  0.286024  0.320097  0.000196  0.967615  0.0
H  H25  1  0.51607981  0.15993428  0.73947617  1  0.334954  -0.001226  0.905385  -0.001  0.32556  3.8e-05  0.963819  0.0  0.332899  -0.000112  0.9587  0.0  0.286019  0.320107  0.000196  0.967646  0.0
H  H26  1  0.98391657  0.84007162  0.23947614  1  0.334921  -0.001228  0.905366  -0.001  0.325518  3.8e-05  0.963826  0.0  0.332858  -0.000112  0.958707  0.0  0.286001  0.320065  0.000196  0.967653  0.0
H  H27  1  0.48391925  0.65992997  0.76052406  1  0.334926  -0.001228  0.905381  -0.001  0.325537  3.8e-05  0.96381  0.0  0.332877  -0.000112  0.958692  0.0  0.286016  0.320087  0.000196  0.967635  0.0
H  H28  1  0.93759743  0.16528710  0.29142534  1  0.334487  -0.001826  0.876471  -0.002  0.330737  -0.00021  0.926992  0.0  0.336738  -0.000348  0.923849  0.0  0.296984  0.326271  -4.1e-05  0.929314  0.0
H  H29  1  0.43758937  0.33471176  0.70857476  1  0.334602  -0.001824  0.876413  -0.002  0.33081  -0.00021  0.92698  0.0  0.336809  -0.000348  0.923838  0.0  0.297005  0.32634  -4.1e-05  0.929304  0.0
H  H30  1  0.06240299  0.66529048  0.20857584  1  0.334513  -0.001825  0.87642  -0.002  0.330765  -0.00021  0.926942  0.0  0.336764  -0.000348  0.9238  0.0  0.297003  0.326297  -4.1e-05  0.929261  0.0
H  H31  1  0.56240026  0.83471063  0.79142437  1  0.334498  -0.001825  0.87648  -0.002  0.330745  -0.00021  0.927001  0.0  0.336746  -0.000348  0.923858  0.0  0.296985  0.326278  -4.1e-05  0.929322  0.0
H  H32  1  0.65983191  0.16185389  0.45159511  1  0.40639  -0.001089  0.908749  -0.001  0.372983  -0.000467  0.977559  0.0  0.385035  -0.000565  0.960251  0.0  0.284008  0.364518  -0.000327  0.98963  0.0
H  H33  1  0.15982649  0.33814583  0.54840568  1  0.406406  -0.001089  0.908732  -0.001  0.37301  -0.000467  0.977528  0.0  0.385063  -0.000565  0.960218  0.0  0.28401  0.364546  -0.000327  0.9896  0.0
H  H34  1  0.34016986  0.66185202  0.04840469  1  0.406368  -0.001089  0.908786  -0.001  0.372959  -0.000467  0.977604  0.0  0.385011  -0.000565  0.960294  0.0  0.283986  0.364493  -0.000327  0.989677  0.0
H  H35  1  0.84016973  0.83814823  0.95159551  1  0.406404  -0.001089  0.90873  -0.001  0.373002  -0.000467  0.977534  0.0  0.385054  -0.000565  0.960224  0.0  0.284012  0.364541  -0.000327  0.989602  0.0
H  H36  1  0.68446605  0.03289592  0.37110311  1  0.421422  6.2e-05  0.880305  0.0  0.396747  0.000555  0.934731  0.001  0.40792  0.000349  0.918755  0.0  0.291742  0.388709  0.000761  0.946146  0.001
H  H37  1  0.18445819  0.46710361  0.62889838  1  0.421413  6.1e-05  0.880324  0.0  0.396738  0.000555  0.934751  0.001  0.407909  0.000349  0.918779  0.0  0.291748  0.388699  0.000761  0.946167  0.001
H  H38  1  0.31553683  0.53289343  0.12889787  1  0.421382  6.2e-05  0.880359  0.0  0.396705  0.000555  0.934792  0.001  0.407875  0.000349  0.918821  0.0  0.291718  0.388661  0.000761  0.946212  0.001
H  H39  1  0.81553428  0.96710701  0.87110233  1  0.421391  6.1e-05  0.880346  0.0  0.396708  0.000555  0.934784  0.001  0.407879  0.000349  0.91881  0.0  0.291708  0.38867  0.000761  0.946197  0.001
C  C40  1  0.73489670  0.40312589  0.53520247  1  0.729084  -0.005151  3.842458  -0.003  0.667374  -0.001526  4.139258  -0.001  0.703016  -0.001887  4.136051  -0.001  0.336864  0.64311  -0.001093  4.140763  -0.001
C  C41  1  0.23489601  0.09687447  0.46479833  1  0.729122  -0.00515  3.842406  -0.003  0.667402  -0.001525  4.1392  -0.001  0.703048  -0.001885  4.135992  -0.001  0.336876  0.643121  -0.001093  4.140726  -0.001
C  C42  1  0.26510689  0.90311818  0.96479677  1  0.729151  -0.005132  3.842312  -0.003  0.667327  -0.001525  4.139239  -0.001  0.70299  -0.001885  4.136029  -0.001  0.336856  0.643068  -0.001093  4.140745  -0.001
C  C43  1  0.76510633  0.59687902  0.03520275  1  0.729157  -0.00514  3.842358  -0.003  0.667408  -0.001525  4.139173  -0.001  0.703078  -0.001887  4.135961  -0.001  0.336912  0.643146  -0.001093  4.140669  -0.001
C  C44  1  0.80107049  0.65745723  0.61227490  1  0.607242  -0.006988  3.822514  -0.005  0.569166  -0.001479  4.1055  0.0  0.602869  -0.00133  4.103586  0.0  0.229589  0.545775  -0.001852  4.106336  -0.001
C  C45  1  0.30107299  0.84254452  0.38772598  1  0.607538  -0.006973  3.822305  -0.005  0.569398  -0.001479  4.105384  0.0  0.603105  -0.001331  4.10347  0.0  0.229693  0.546007  -0.001852  4.106222  -0.001
C  C46  1  0.19892727  0.15745378  0.88772327  1  0.607822  -0.00699  3.822073  -0.005  0.569575  -0.001479  4.105299  0.0  0.603298  -0.001329  4.103381  0.0  0.229793  0.546185  -0.001852  4.106147  -0.001
C  C47  1  0.69892459  0.34254806  0.11227684  1  0.607886  -0.007  3.821919  -0.005  0.569645  -0.001479  4.105124  0.0  0.603377  -0.001331  4.1032  0.0  0.229814  0.54626  -0.001852  4.105977  -0.001
C  C48  1  0.79631988  0.73181706  0.52368775  1  -0.315638  0.004781  3.645219  0.006  -0.349471  0.002927  3.911739  0.004  -0.365178  0.002025  3.927011  0.003  -0.108387  -0.339441  0.003853  3.902398  0.005
C  C49  1  0.29632300  0.76818351  0.47630971  1  -0.31577  0.004771  3.64525  0.006  -0.349576  0.002927  3.911813  0.004  -0.365285  0.002025  3.927081  0.003  -0.108464  -0.339553  0.003854  3.902477  0.005
C  C50  1  0.20368386  0.23181521  0.97631122  1  -0.315914  0.004764  3.645227  0.006  -0.349696  0.002927  3.911812  0.004  -0.365405  0.002023  3.927075  0.003  -0.108438  -0.339665  0.003854  3.902475  0.005
C  C51  1  0.70367918  0.26818659  0.02368821  1  -0.315943  0.004801  3.645213  0.006  -0.349717  0.002927  3.911799  0.004  -0.365424  0.002024  3.92706  0.003  -0.108484  -0.339695  0.003855  3.902466  0.005
C  C52  1  0.76019184  0.63725383  0.44872375  1  0.170893  -0.004239  3.776918  -0.002  0.166011  -0.000804  4.03772  0.0  0.177607  -0.001006  4.055284  -0.001  0.109414  0.157814  -0.000918  4.025935  0.0
C  C53  1  0.26018885  0.86274461  0.55127508  1  0.170919  -0.004218  3.776713  -0.002  0.165981  -0.000805  4.037533  0.0  0.177578  -0.001009  4.055097  -0.001  0.109404  0.157787  -0.000919  4.025746  0.0
C  C54  1  0.23981412  0.13725085  0.05127533  1  0.171004  -0.004198  3.77681  -0.002  0.166085  -0.000804  4.03766  0.0  0.177682  -0.001006  4.055222  -0.001  0.109445  0.157888  -0.000918  4.025881  0.0
C  C55  1  0.73981245  0.36274827  0.94872409  1  0.171021  -0.004255  3.776845  -0.002  0.166112  -0.000804  4.037684  0.0  0.177709  -0.001005  4.055245  -0.001  0.109457  0.15792  -0.000918  4.025894  0.0
C  C56  1  0.75851467  0.70429396  0.35241617  1  0.640262  -0.005057  3.848262  -0.003  0.593683  -0.000302  4.143777  0.0  0.628162  -0.000288  4.133895  0.0  0.228191  0.56936  -0.000658  4.150063  0.0
C  C57  1  0.25850827  0.79570208  0.64758471  1  0.640332  -0.005064  3.848096  -0.003  0.593825  -0.000302  4.143514  0.0  0.628302  -0.000288  4.133638  0.0  0.228302  0.569496  -0.000658  4.149804  0.0
C  C58  1  0.24148939  0.20429385  0.14758370  1  0.640337  -0.005074  3.84825  -0.003  0.593756  -0.000302  4.143782  0.0  0.628237  -0.000287  4.133901  0.0  0.228198  0.569428  -0.000658  4.150076  0.0
C  C59  1  0.74148831  0.29570767  0.85241572  1  0.640404  -0.00506  3.848243  -0.003  0.593823  -0.000302  4.143735  0.0  0.628305  -0.000288  4.133848  0.0  0.228286  0.569497  -0.000658  4.150025  0.0
N  N60  1  0.94535980  0.28325084  0.31100833  1  -0.857979  0.062577  2.959495  0.098  -0.86892  0.037569  3.20155  0.058  -0.90126  0.027983  3.187289  0.047  -0.782167  -0.844589  0.045176  3.211831  0.066
N  N61  1  0.44535937  0.21675037  0.68899177  1  -0.858097  0.062572  2.959571  0.098  -0.869024  0.037569  3.201639  0.058  -0.901372  0.027982  3.187364  0.047  -0.782218  -0.844697  0.045177  3.211917  0.066
N  N62  1  0.05464093  0.78325298  0.18899166  1  -0.857966  0.062574  2.95943  0.098  -0.868932  0.037568  3.201495  0.058  -0.901267  0.027984  3.187226  0.047  -0.782158  -0.844593  0.045176  3.211772  0.066
N  N63  1  0.55463789  0.71674939  0.81100855  1  -0.858018  0.062575  2.959513  0.098  -0.868968  0.037568  3.201604  0.058  -0.901306  0.027983  3.187341  0.047  -0.782186  -0.844641  0.045176  3.211889  0.066
N  N64  1  0.72989483  0.47513256  0.45275417  1  -0.519515  0.051311  3.196318  0.084  -0.48965  0.034006  3.492923  0.056  -0.52831  0.025637  3.506987  0.046  -0.355991  -0.461902  0.040879  3.48286  0.064
N  N65  1  0.22988945  0.02486663  0.54724525  1  -0.519542  0.051307  3.196208  0.084  -0.489627  0.034005  3.492806  0.056  -0.528292  0.025638  3.506858  0.046  -0.355975  -0.461877  0.040878  3.482743  0.064
N  N66  1  0.27011219  0.97512880  0.04724749  1  -0.519595  0.051302  3.196108  0.084  -0.489666  0.034006  3.492752  0.056  -0.528321  0.025638  3.5068  0.046  -0.35603  -0.461914  0.040877  3.482693  0.064
N  N67  1  0.77011210  0.52487076  0.95275271  1  -0.519617  0.051305  3.196132  0.084  -0.48971  0.034007  3.49274  0.056  -0.528367  0.025637  3.506796  0.046  -0.356032  -0.461961  0.040878  3.482675  0.064
N  N68  1  0.76090524  0.49502407  0.61184860  1  -0.515899  0.003216  3.285515  0.006  -0.452432  0.002131  3.519648  0.003  -0.476632  0.001447  3.519431  0.003  -0.388443  -0.436402  0.002846  3.520263  0.004
N  N69  1  0.26090799  0.00497850  0.38815083  1  -0.516024  0.003214  3.285462  0.006  -0.452488  0.002131  3.519608  0.003  -0.476712  0.001446  3.519389  0.003  -0.388477  -0.436457  0.002845  3.52023  0.004
N  N70  1  0.23909756  0.99501979  0.88815146  1  -0.516271  0.003211  3.285292  0.006  -0.452625  0.002131  3.519462  0.003  -0.476894  0.001447  3.519288  0.003  -0.388507  -0.436592  0.002846  3.520078  0.004
N  N71  1  0.73909380  0.50498121  0.11184737  1  -0.516224  0.003211  3.285322  0.006  -0.45258  0.002131  3.519443  0.003  -0.476871  0.001448  3.519284  0.003  -0.388537  -0.436554  0.002846  3.520061  0.004
O  O72  1  0.62250146  0.13399144  0.38751952  1  -0.804939  0.038822  1.904015  0.066  -0.776162  0.027687  2.101377  0.047  -0.807011  0.020352  2.068684  0.037  -0.57993  -0.75211  0.034463  2.124148  0.056
O  O73  1  0.12249579  0.36600735  0.61248196  1  -0.804942  0.038822  1.904023  0.066  -0.776153  0.027687  2.101355  0.047  -0.807006  0.020352  2.068651  0.037  -0.579938  -0.752105  0.034461  2.124125  0.056
O  O74  1  0.37750056  0.63399081  0.11248161  1  -0.804862  0.03882  1.904048  0.066  -0.776087  0.027686  2.10141  0.047  -0.806931  0.020352  2.068711  0.037  -0.579884  -0.75202  0.03446  2.124184  0.056
O  O75  1  0.87749887  0.86601036  0.88751859  1  -0.804901  0.038822  1.90398  0.066  -0.77613  0.027687  2.101361  0.047  -0.806976  0.020352  2.06867  0.037  -0.579904  -0.752077  0.034461  2.124132  0.056
O  O76  1  0.41738707  0.41341723  0.33079999  1  -0.785696  0.02875  1.942381  0.049  -0.757158  0.021815  2.148294  0.037  -0.784211  0.016692  2.112966  0.03  -0.575978  -0.736272  0.026413  2.173426  0.042
O  O77  1  0.91738649  0.08658178  0.66920080  1  -0.785775  0.028749  1.942188  0.049  -0.75712  0.021815  2.148313  0.037  -0.784181  0.016692  2.112979  0.03  -0.575942  -0.736235  0.026413  2.173422  0.042
O  O78  1  0.58261519  0.91341896  0.16920295  1  -0.78565  0.028751  1.942357  0.049  -0.757106  0.021815  2.148288  0.037  -0.784155  0.016693  2.112958  0.03  -0.575942  -0.73621  0.026413  2.173416  0.042
O  O79  1  0.08261321  0.58658320  0.83079795  1  -0.785682  0.028752  1.942301  0.049  -0.757074  0.021815  2.148318  0.037  -0.784129  0.016692  2.113004  0.03  -0.575942  -0.736183  0.026413  2.173439  0.042
O  O80  1  0.74397460  0.59994101  0.28863535  1  -0.594415  0.044282  2.11499  0.077  -0.558741  0.030032  2.377806  0.053  -0.594809  0.022087  2.367939  0.041  -0.294486  -0.531333  0.037636  2.384032  0.063
O  O81  1  0.24397259  0.90006236  0.71136485  1  -0.594511  0.044281  2.11482  0.077  -0.55888  0.030032  2.377649  0.053  -0.594959  0.022088  2.36778  0.041  -0.294583  -0.531477  0.037637  2.383875  0.063
O  O82  1  0.25602506  0.09993508  0.21136504  1  -0.594528  0.04429  2.114894  0.077  -0.558846  0.030033  2.377725  0.053  -0.594921  0.022088  2.36786  0.041  -0.294551  -0.531421  0.037638  2.383939  0.063
O  O83  1  0.75602574  0.40006272  0.78863507  1  -0.594467  0.044284  2.114995  0.077  -0.558799  0.030033  2.377811  0.053  -0.594869  0.022087  2.367949  0.041  -0.294523  -0.531385  0.037637  2.38403  0.063
O  O84  1  0.71556951  0.25107125  0.54551472  1  -0.650404  -0.001306  1.995114  0.0  -0.579157  -0.000339  2.197396  0.0  -0.60434  -0.000638  2.185065  0.0  -0.303864  -0.561649  6.3e-05  2.205782  0.001
O  O85  1  0.21556619  0.24893046  0.45448744  1  -0.650426  -0.001301  1.995105  0.0  -0.579218  -0.000339  2.19742  0.0  -0.604403  -0.000639  2.185086  0.0  -0.303882  -0.561699  6.3e-05  2.205806  0.001
O  O86  1  0.28443539  0.75106575  0.95448496  1  -0.650435  -0.001304  1.995229  0.0  -0.579155  -0.000339  2.197568  0.0  -0.604337  -0.000637  2.185227  0.0  -0.303841  -0.561641  6.2e-05  2.205946  0.001
O  O87  1  0.78443219  0.74893130  0.04551455  1  -0.650428  -0.001308  1.995177  0.0  -0.579205  -0.000339  2.197508  0.0  -0.604387  -0.000638  2.185164  0.0  -0.303873  -0.561694  6.3e-05  2.205888  0.001
O  O88  1  0.83885040  0.72763360  0.68624151  1  -0.55105  0.03167  1.984227  0.055  -0.517643  0.022009  2.229518  0.038  -0.549296  0.016007  2.21992  0.03  -0.292122  -0.49355  0.028072  2.235518  0.047
O  O89  1  0.33885616  0.77236666  0.31375801  1  -0.551187  0.031669  1.984041  0.055  -0.517781  0.02201  2.229377  0.038  -0.549433  0.016007  2.219767  0.03  -0.292197  -0.493689  0.028074  2.235387  0.047
O  O90  1  0.16114412  0.22762525  0.81375814  1  -0.551186  0.031671  1.98399  0.055  -0.517841  0.022008  2.22949  0.038  -0.549498  0.016005  2.219865  0.03  -0.292243  -0.493748  0.028069  2.235484  0.047
O  O91  1  0.66114334  0.27237686  0.18624197  1  -0.551225  0.031676  1.983946  0.055  -0.517884  0.022008  2.229445  0.038  -0.549534  0.016006  2.219822  0.03  -0.292232  -0.493789  0.028069  2.235446  0.047
O  O92  1  0.77730231  0.85368591  0.33771834  1  -0.631648  0.004639  1.985042  0.008  -0.575586  0.002851  2.194682  0.005  -0.599174  0.001399  2.182671  0.003  -0.3087  -0.558951  0.004585  2.202973  0.008
O  O93  1  0.27729322  0.64631360  0.66228255  1  -0.631631  0.004644  1.985163  0.008  -0.575574  0.00285  2.194756  0.005  -0.599162  0.001399  2.18275  0.003  -0.308699  -0.558939  0.004584  2.203047  0.008
O  O94  1  0.22270179  0.35368240  0.16227972  1  -0.631629  0.004641  1.98518  0.008  -0.575551  0.002851  2.194802  0.005  -0.599135  0.0014  2.182789  0.003  -0.308628  -0.558916  0.004584  2.2031  0.008
O  O95  1  0.72269538  0.14631806  0.83771834  1  -0.631807  0.004639  1.985108  0.008  -0.575668  0.002851  2.194696  0.005  -0.599254  0.0014  2.182682  0.003  -0.308762  -0.559042  0.004585  2.203001  0.008
