# generated using pymatgen
data_Gd2H10C16N2O15
_symmetry_space_group_name_H-M   'P 1'
_cell_length_a   9.36388260
_cell_length_b   11.90242163
_cell_length_c   22.16644624
_cell_angle_alpha   101.33617430
_cell_angle_beta   90.03126882
_cell_angle_gamma   113.14847824
_symmetry_Int_Tables_number   1
_chemical_formula_structural   Gd2H10C16N2O15
_chemical_formula_sum   'Gd8 H40 C64 N8 O60'
_cell_volume   2218.98101597
_cell_formula_units_Z   4
loop_
 _symmetry_equiv_pos_site_id
 _symmetry_equiv_pos_as_xyz
  1  'x, y, z'
loop_
 _atom_site_type_symbol
 _atom_site_label
 _atom_site_symmetry_multiplicity
 _atom_site_fract_x
 _atom_site_fract_y
 _atom_site_fract_z
 _atom_site_occupancy
 _atom_site_pbe_bader_charge
 _atom_site_pbe_bader_spin_density
 _atom_site_pbe_cm5_charge
 _atom_site_pbe_ddec_charge
 _atom_site_pbe_ddec_spin_density
 _atom_site_pbe_ddec_sum_bond_order
 _atom_site_pbe_magmom
Gd  Gd0  1  0.68880634  0.90916228  0.56292076  1  2.191576  0  1.460293  2.03499  0  2.12576  0
Gd  Gd1  1  0.77974360  0.09121588  0.93720570  1  2.191839  0  1.460657  2.034606  0  2.12678  0
Gd  Gd2  1  0.31118975  0.09084212  0.43708245  1  2.191665  0  1.460289  2.03505  0  2.125667  0
Gd  Gd3  1  0.22027436  0.90878958  0.06279041  1  2.191819  0  1.460662  2.034713  0  2.126581  0
Gd  Gd4  1  0.49482295  0.69492646  0.81917572  1  2.211758  0  1.535901  2.080245  0  2.284508  0
Gd  Gd5  1  0.80028191  0.30543703  0.68085967  1  2.211036  0  1.535979  2.081318  0  2.28286  0
Gd  Gd6  1  0.50518849  0.30508732  0.18082761  1  2.211618  0  1.535985  2.080399  0  2.284379  0
Gd  Gd7  1  0.19972169  0.69456746  0.31913858  1  2.211005  0  1.535992  2.081316  0  2.282802  0
H  H8  1  0.68389439  0.07090503  0.47287613  1  0.655847  0  0.303788  0.407122  0  0.926494  0
H  H9  1  0.61296399  0.92919485  0.02707425  1  0.657452  0  0.303617  0.407279  0  0.926675  0
H  H10  1  0.31610327  0.92910041  0.52712132  1  0.655867  0  0.30375  0.407039  0  0.926627  0
H  H11  1  0.38703034  0.07080392  0.97292970  1  0.657653  0  0.303708  0.407361  0  0.926563  0
H  H12  1  0.84285036  0.15709812  0.51438925  1  0.653679  0  0.299923  0.391793  0  0.94426  0
H  H13  1  0.68596499  0.84319012  0.98561116  1  0.65489  0  0.299688  0.391775  0  0.944354  0
H  H14  1  0.15714869  0.84291010  0.48560986  1  0.653806  0  0.299928  0.391833  0  0.944232  0
H  H15  1  0.31402562  0.15680120  0.01438972  1  0.655064  0  0.29971  0.391796  0  0.944322  0
H  H16  1  0.80377838  0.74409903  0.61674113  1  0.637241  0  0.339793  0.428373  0  0.851843  0
H  H17  1  0.05947991  0.25598231  0.88332242  1  0.640358  0  0.339773  0.42819  0  0.852343  0
H  H18  1  0.19622073  0.25590075  0.38325842  1  0.637292  0  0.339836  0.428462  0  0.85172  0
H  H19  1  0.94051519  0.74401372  0.11667762  1  0.640344  0  0.339784  0.428206  0  0.852336  0
H  H20  1  0.86454249  0.72429684  0.54935966  1  0.636426  0  0.300081  0.395387  0  0.936956  0
H  H21  1  0.14041050  0.27583423  0.95066203  1  0.633896  0  0.30009  0.395237  0  0.937159  0
H  H22  1  0.13545201  0.27570013  0.45063957  1  0.63639  0  0.300119  0.395539  0  0.936766  0
H  H23  1  0.85958705  0.72416458  0.04933967  1  0.633893  0  0.300087  0.395261  0  0.937115  0
H  H24  1  0.91155850  0.93428316  0.45539980  1  0.644231  0  0.311312  0.402738  0  0.924945  0
H  H25  1  0.97771540  0.06588266  0.04463008  1  0.648481  0  0.311051  0.402383  0  0.925919  0
H  H26  1  0.08844618  0.06572137  0.54459575  1  0.644296  0  0.311256  0.402574  0  0.925171  0
H  H27  1  0.02227897  0.93411619  0.95536891  1  0.648447  0  0.310974  0.402247  0  0.926111  0
H  H28  1  0.91200742  0.82361106  0.48340678  1  0.640643  0  0.30398  0.387357  0  0.953856  0
H  H29  1  0.08861750  0.17643428  0.01656442  1  0.644307  0  0.30382  0.386771  0  0.955067  0
H  H30  1  0.08798991  0.17639158  0.51658947  1  0.640655  0  0.304059  0.387455  0  0.953811  0
H  H31  1  0.91138513  0.82356830  0.98343633  1  0.644261  0  0.303863  0.386844  0  0.954954  0
H  H32  1  0.26062657  0.53034346  0.66036546  1  0.134241  0  0.125976  0.139856  0  1.007829  0
H  H33  1  0.73003942  0.46995815  0.83965428  1  0.137533  0  0.125736  0.139683  0  1.007064  0
H  H34  1  0.73937220  0.46965351  0.33963423  1  0.134167  0  0.125996  0.13988  0  1.007804  0
H  H35  1  0.26996515  0.53003973  0.16034641  1  0.137406  0  0.12573  0.139674  0  1.007097  0
H  H36  1  0.15850626  0.48825264  0.46447754  1  0.12704  0  0.118132  0.125762  0  0.999832  0
H  H37  1  0.66988683  0.51189770  0.03547266  1  0.137265  0  0.118472  0.126289  0  0.999149  0
H  H38  1  0.84149318  0.51174994  0.53552276  1  0.127054  0  0.118129  0.12575  0  0.999774  0
H  H39  1  0.33010720  0.48809832  0.96452737  1  0.137246  0  0.118433  0.126238  0  0.999199  0
H  H40  1  0.23848865  0.34784286  0.72296554  1  0.18412  0  0.123081  0.143694  0  1.020311  0
H  H41  1  0.89037923  0.65262639  0.77733160  1  0.183752  0  0.122995  0.14404  0  1.019235  0
H  H42  1  0.76151840  0.65215788  0.27703275  1  0.184061  0  0.123075  0.143718  0  1.020321  0
H  H43  1  0.10961480  0.34736965  0.22266754  1  0.183811  0  0.122958  0.143979  0  1.019323  0
H  H44  1  0.17990296  0.98030188  0.62107614  1  0.129048  0  0.119766  0.128719  0  0.990205  0
H  H45  1  0.19937014  0.02003966  0.87929575  1  0.116379  0  0.119995  0.129209  0  0.990173  0
H  H46  1  0.82009590  0.01970167  0.37892201  1  0.129027  0  0.119762  0.128679  0  0.99027  0
H  H47  1  0.80062835  0.97996103  0.12070570  1  0.116532  0  0.119963  0.129118  0  0.990228  0
C  C48  1  0.41787898  0.66945578  0.61478801  1  0.513946  0  0.126929  0.121735  0  3.955079  0
C  C49  1  0.74829760  0.33082884  0.88524331  1  0.507643  0  0.126999  0.121329  0  3.953981  0
C  C50  1  0.58212406  0.33054119  0.38521122  1  0.513892  0  0.126968  0.121793  0  3.955102  0
C  C51  1  0.25171004  0.66917093  0.11475713  1  0.507889  0  0.127003  0.121312  0  3.953884  0
C  C52  1  0.28823550  0.56018042  0.61686412  1  -0.040382  0  -0.051529  -0.115235  0  3.829372  0
C  C53  1  0.72781156  0.44007749  0.88315061  1  0.008796  0  -0.051315  -0.114776  0  3.827461  0
C  C54  1  0.71176921  0.43981562  0.38313502  1  -0.03985  0  -0.051622  -0.115295  0  3.829504  0
C  C55  1  0.27219455  0.55992134  0.11684974  1  0.008537  0  -0.051273  -0.114689  0  3.827341  0
C  C56  1  0.19566957  0.49023164  0.56178506  1  0.016619  0  0.007118  0.004778  0  3.929366  0
C  C57  1  0.70522109  0.51000470  0.93822081  1  -0.031339  0  0.007078  0.004441  0  3.929729  0
C  C58  1  0.80433195  0.50976442  0.43821273  1  0.016092  0  0.007134  0.00471  0  3.929515  0
C  C59  1  0.29477721  0.48999134  0.06177832  1  -0.031446  0  0.007096  0.00441  0  3.929622  0
C  C60  1  0.23093238  0.53583499  0.50773379  1  -0.017042  0  -0.062052  -0.129756  0  3.891912  0
C  C61  1  0.69474722  0.46429897  0.99224661  1  -0.033406  0  -0.062304  -0.130314  0  3.891776  0
C  C62  1  0.76906733  0.46416386  0.49226521  1  -0.017033  0  -0.062024  -0.129675  0  3.891775  0
C  C63  1  0.30525215  0.53569706  0.00775298  1  -0.03305  0  -0.062226  -0.130193  0  3.891818  0
C  C64  1  0.36091098  0.64710173  0.51019507  1  0.512362  0  0.124896  0.126903  0  3.963297  0
C  C65  1  0.71352965  0.35305801  0.98980753  1  0.533807  0  0.125565  0.127821  0  3.963771  0
C  C66  1  0.63909086  0.35289712  0.48980437  1  0.511845  0  0.124848  0.126933  0  3.963263  0
C  C67  1  0.28647753  0.64694083  0.01019236  1  0.53365  0  0.125477  0.127683  0  3.96385  0
C  C68  1  0.52328201  0.75839812  0.67093643  1  1.642729  0  0.241836  0.622835  0  4.165599  0
C  C69  1  0.76504761  0.24199898  0.82913389  1  1.630302  0  0.242227  0.623035  0  4.164891  0
C  C70  1  0.47672598  0.24160448  0.32906252  1  1.642209  0  0.241852  0.622842  0  4.165426  0
C  C71  1  0.23496276  0.75799985  0.17086645  1  1.630156  0  0.242166  0.623084  0  4.164958  0
C  C72  1  0.05822444  0.36934238  0.56131654  1  1.597875  0  0.237118  0.619093  0  4.162463  0
C  C73  1  0.68883386  0.63097550  0.93871481  1  1.598235  0  0.236926  0.619061  0  4.161804  0
C  C74  1  0.94177481  0.63065554  0.43868190  1  1.597999  0  0.237143  0.619088  0  4.162777  0
C  C75  1  0.31115495  0.36901863  0.06128637  1  1.598269  0  0.236833  0.619073  0  4.161505  0
C  C76  1  0.40100214  0.71415056  0.45738094  1  1.620495  0  0.234778  0.609576  0  4.173417  0
C  C77  1  0.68662774  0.28601528  0.04261887  1  1.624658  0  0.234868  0.609437  0  4.175085  0
C  C78  1  0.59900124  0.28584923  0.54261771  1  1.620489  0  0.234813  0.609659  0  4.173498  0
C  C79  1  0.31338457  0.71399382  0.95738395  1  1.625303  0  0.234941  0.609455  0  4.175205  0
C  C80  1  0.44575834  0.31156590  0.70676587  1  0.502111  0  0.127858  0.124325  0  3.945639  0
C  C81  1  0.13404093  0.68881926  0.79347689  1  0.514323  0  0.128415  0.125898  0  3.942488  0
C  C82  1  0.55424560  0.68843287  0.29323853  1  0.502102  0  0.127915  0.124327  0  3.945656  0
C  C83  1  0.86596196  0.31117953  0.20652616  1  0.514257  0  0.128455  0.125887  0  3.942564  0
C  C84  1  0.28489460  0.27881731  0.70336281  1  0.031022  0  -0.05236  -0.116373  0  3.820376  0
C  C85  1  0.00588406  0.72154539  0.79691638  1  0.023899  0  -0.052098  -0.11689  0  3.818601  0
C  C86  1  0.71510689  0.72117869  0.29663858  1  0.031105  0  -0.052381  -0.116432  0  3.820421  0
C  C87  1  0.99411306  0.27845255  0.20308116  1  0.023911  0  -0.052138  -0.116935  0  3.818715  0
C  C88  1  0.18673069  0.15806328  0.67186757  1  -0.066234  0  0.009417  0.009886  0  3.896105  0
C  C89  1  0.02847890  0.84228449  0.82841617  1  -0.085241  0  0.009802  0.010412  0  3.895863  0
C  C90  1  0.81327070  0.84193467  0.32812952  1  -0.065425  0  0.009399  0.009969  0  3.896095  0
C  C91  1  0.97151361  0.15771065  0.17158061  1  -0.085403  0  0.009834  0.010421  0  3.896033  0
C  C92  1  0.25252435  0.07371988  0.64712193  1  0.046653  0  -0.056879  -0.120929  0  3.866598  0
C  C93  1  0.17862680  0.92668157  0.85316323  1  0.018092  0  -0.057454  -0.121818  0  3.865882  0
C  C94  1  0.74748174  0.92627892  0.35288021  1  0.045709  0  -0.0569  -0.120977  0  3.866665  0
C  C95  1  0.82136697  0.07331820  0.14683676  1  0.017859  0  -0.057384  -0.121657  0  3.866066  0
C  C96  1  0.41420261  0.11411676  0.65375426  1  0.457794  0  0.128461  0.132902  0  3.971639  0
C  C97  1  0.29990431  0.88628145  0.84648509  1  0.504106  0  0.128405  0.133286  0  3.971014  0
C  C98  1  0.58580122  0.88588393  0.34624719  1  0.458261  0  0.12851  0.132978  0  3.971796  0
C  C99  1  0.70008964  0.11372297  0.15351767  1  0.504371  0  0.128402  0.133246  0  3.971201  0
C  C100  1  0.56549636  0.44313698  0.73143566  1  1.625709  0  0.237321  0.613273  0  4.196489  0
C  C101  1  0.12230967  0.55731086  0.76867480  1  1.630491  0  0.237371  0.61291  0  4.197318  0
C  C102  1  0.43450407  0.55685903  0.26856528  1  1.62577  0  0.237299  0.613153  0  4.196751  0
C  C103  1  0.87768324  0.44268505  0.23133244  1  1.629953  0  0.237381  0.612755  0  4.197233  0
C  C104  1  0.01494983  0.12652421  0.65894589  1  1.645785  0  0.24309  0.647505  0  4.142245  0
C  C105  1  0.88825531  0.87385553  0.84128435  1  1.633636  0  0.241362  0.646121  0  4.142954  0
C  C106  1  0.98504880  0.87347463  0.34105400  1  1.645453  0  0.242992  0.647313  0  4.142279  0
C  C107  1  0.11174602  0.12615084  0.15871321  1  1.633341  0  0.24131  0.646043  0  4.143151  0
C  C108  1  0.50176895  0.04043546  0.62297291  1  1.579779  0  0.229075  0.587908  0  4.176023  0
C  C109  1  0.46122290  0.95987509  0.87718537  1  1.583883  0  0.229343  0.586369  0  4.177492  0
C  C110  1  0.49823498  0.95957185  0.37702475  1  1.579277  0  0.229042  0.587748  0  4.176374  0
C  C111  1  0.53877264  0.04012183  0.12281747  1  1.583865  0  0.229288  0.586434  0  4.177482  0
N  N112  1  0.45459115  0.70855208  0.56199368  1  -1.226787  0  -0.377308  -0.362449  0  3.584561  0
N  N113  1  0.74593616  0.29171248  0.93804167  1  -1.236897  0  -0.377802  -0.362469  0  3.583694  0
N  N114  1  0.54540916  0.29144583  0.43800521  1  -1.226325  0  -0.37729  -0.362522  0  3.584571  0
N  N115  1  0.25406521  0.70828543  0.06195767  1  -1.236981  0  -0.377728  -0.362409  0  3.583556  0
N  N116  1  0.50741502  0.23008448  0.68308188  1  -1.224946  0  -0.369697  -0.34905  0  3.553813  0
N  N117  1  0.27719573  0.77034361  0.81711743  1  -1.209465  0  -0.369663  -0.350077  0  3.553627  0
N  N118  1  0.49259020  0.76991898  0.31692213  1  -1.224854  0  -0.369705  -0.349015  0  3.553991  0
N  N119  1  0.72280369  0.22965894  0.18288513  1  -1.209454  0  -0.369704  -0.35008  0  3.553653  0
O  O120  1  0.75145379  0.07563116  0.50878827  1  -1.304368  0  -0.646814  -0.849677  0  2.073811  0
O  O121  1  0.67608298  0.92469745  0.99125947  1  -1.306448  0  -0.646771  -0.850465  0  2.074416  0
O  O122  1  0.24853957  0.92437422  0.49121234  1  -1.304491  0  -0.646801  -0.849659  0  2.073917  0
O  O123  1  0.32390997  0.07529855  0.00874191  1  -1.306845  0  -0.646886  -0.850555  0  2.074538  0
O  O124  1  0.78638289  0.74601790  0.57379631  1  -1.254412  0  -0.615815  -0.831124  0  2.059912  0
O  O125  1  0.04043628  0.25431731  0.92629980  1  -1.255539  0  -0.61591  -0.830852  0  2.061198  0
O  O126  1  0.21360526  0.25397065  0.42620245  1  -1.254452  0  -0.615894  -0.831366  0  2.059801  0
O  O127  1  0.95956047  0.74567777  0.07370103  1  -1.255564  0  -0.615904  -0.830894  0  2.061019  0
O  O128  1  0.85752954  0.87973064  0.48343998  1  -1.274267  0  -0.641307  -0.841349  0  2.132429  0
O  O129  1  0.97801221  0.12056937  0.01667552  1  -1.283239  0  -0.641142  -0.84071  0  2.131373  0
O  O130  1  0.14246273  0.12026831  0.51655315  1  -1.27442  0  -0.641332  -0.841279  0  2.132429  0
O  O131  1  0.02198857  0.87942949  0.98332257  1  -1.283182  0  -0.64111  -0.840639  0  2.131363  0
O  O132  1  0.64074988  0.85053162  0.66074711  1  -1.169448  0  -0.367049  -0.607347  0  2.207999  0
O  O133  1  0.79034684  0.14984070  0.83936672  1  -1.160074  0  -0.366938  -0.607614  0  2.208208  0
O  O134  1  0.35925965  0.14947192  0.33925149  1  -1.169274  0  -0.367041  -0.607374  0  2.207771  0
O  O135  1  0.20965894  0.85015535  0.16063197  1  -1.159718  0  -0.366953  -0.607732  0  2.208017  0
O  O136  1  0.48338014  0.73607495  0.72307044  1  -1.188296  0  -0.396998  -0.642968  0  2.348071  0
O  O137  1  0.74768110  0.26436823  0.77698298  1  -1.189252  0  -0.397341  -0.643049  0  2.34683  0
O  O138  1  0.51663085  0.26393792  0.27693053  1  -1.18795  0  -0.397006  -0.642956  0  2.348043  0
O  O139  1  0.25233716  0.73563995  0.22301839  1  -1.189264  0  -0.3973  -0.643037  0  2.347017  0
O  O140  1  0.99581413  0.35477312  0.61082167  1  -1.183866  0  -0.366846  -0.627806  0  2.343539  0
O  O141  1  0.64147609  0.64588385  0.88918505  1  -1.186285  0  -0.367667  -0.62771  0  2.343359  0
O  O142  1  0.00418178  0.64522668  0.38917607  1  -1.183937  0  -0.366858  -0.627802  0  2.343579  0
O  O143  1  0.35851693  0.35411870  0.11081660  1  -1.186481  0  -0.367632  -0.627761  0  2.343258  0
O  O144  1  0.01464477  0.28707383  0.51016206  1  -1.20187  0  -0.305066  -0.571281  0  2.195457  0
O  O145  1  0.72730765  0.71305793  0.98992732  1  -1.20091  0  -0.304575  -0.571021  0  2.19566  0
O  O146  1  0.98535606  0.71291658  0.48983737  1  -1.20186  0  -0.30505  -0.571201  0  2.19562  0
O  O147  1  0.27268330  0.28693621  0.01007342  1  -1.200816  0  -0.30449  -0.570952  0  2.195441  0
O  O148  1  0.30672038  0.66737460  0.40950892  1  -1.186554  0  -0.377183  -0.640012  0  2.320398  0
O  O149  1  0.63900421  0.33270915  0.09044617  1  -1.191011  0  -0.377007  -0.639776  0  2.320788  0
O  O150  1  0.69327303  0.33262232  0.59049347  1  -1.186536  0  -0.377198  -0.640087  0  2.320532  0
O  O151  1  0.36100712  0.66730653  0.90955466  1  -1.191523  0  -0.377033  -0.639744  0  2.320869  0
O  O152  1  0.52350403  0.81498774  0.46711135  1  -1.172632  0  -0.362169  -0.619827  0  2.262357  0
O  O153  1  0.70844482  0.18522629  0.03293290  1  -1.169216  0  -0.362551  -0.619876  0  2.262202  0
O  O154  1  0.47649421  0.18501672  0.53288870  1  -1.172622  0  -0.362218  -0.619933  0  2.262492  0
O  O155  1  0.29156181  0.81477998  0.96707051  1  -1.169295  0  -0.362642  -0.619915  0  2.26243  0
O  O156  1  0.70491975  0.46446971  0.71944479  1  -1.171857  0  -0.365716  -0.62733  0  2.284564  0
O  O157  1  0.24064951  0.53604993  0.78042079  1  -1.17345  0  -0.366181  -0.627664  0  2.285131  0
O  O158  1  0.29508585  0.53552810  0.28056086  1  -1.171807  0  -0.365688  -0.627246  0  2.284693  0
O  O159  1  0.75934001  0.46394134  0.21958369  1  -1.173206  0  -0.366262  -0.627639  0  2.285125  0
O  O160  1  0.51890781  0.52209940  0.76110483  1  -1.205645  0  -0.404412  -0.651965  0  2.365162  0
O  O161  1  0.99658626  0.47826992  0.73915464  1  -1.207055  0  -0.404355  -0.651671  0  2.367739  0
O  O162  1  0.48108188  0.47789008  0.23889448  1  -1.205731  0  -0.404525  -0.651994  0  2.365298  0
O  O163  1  0.00340696  0.52173732  0.26084753  1  -1.20669  0  -0.404317  -0.651529  0  2.367725  0
O  O164  1  0.95812404  0.19373751  0.69242299  1  -1.180899  0  -0.361216  -0.616077  0  2.286023  0
O  O165  1  0.76428006  0.80685014  0.80771409  1  -1.179001  0  -0.360072  -0.615163  0  2.286899  0
O  O166  1  0.04187188  0.80626231  0.30757430  1  -1.180893  0  -0.361196  -0.616065  0  2.285948  0
O  O167  1  0.23571467  0.19316653  0.19228414  1  -1.178588  0  -0.360008  -0.615075  0  2.286895  0
O  O168  1  0.94494130  0.03718121  0.61226489  1  -1.208267  0  -0.384492  -0.678844  0  2.274211  0
O  O169  1  0.90753199  0.96311412  0.88799733  1  -1.2084  0  -0.384322  -0.678166  0  2.276063  0
O  O170  1  0.05504821  0.96281006  0.38773958  1  -1.207969  0  -0.384405  -0.67869  0  2.274185  0
O  O171  1  0.09247231  0.03689605  0.11199703  1  -1.208399  0  -0.384314  -0.678186  0  2.275996  0
O  O172  1  0.43296638  0.93583403  0.58580181  1  -1.200066  0  -0.327872  -0.590276  0  2.271536  0
O  O173  1  0.49714053  0.06449560  0.91434890  1  -1.185308  0  -0.328077  -0.589447  0  2.272825  0
O  O174  1  0.56704290  0.06417329  0.41419540  1  -1.200032  0  -0.32783  -0.590216  0  2.271723  0
O  O175  1  0.50285017  0.93550232  0.08564999  1  -1.185356  0  -0.328047  -0.5895  0  2.272851  0
O  O176  1  0.65026266  0.08796544  0.63376596  1  -1.158872  0  -0.397051  -0.697932  0  2.419307  0
O  O177  1  0.56213384  0.91233366  0.86628942  1  -1.179435  0  -0.396796  -0.696565  0  2.417797  0
O  O178  1  0.34974031  0.91203994  0.36623510  1  -1.158886  0  -0.397033  -0.697859  0  2.419438  0
O  O179  1  0.43786384  0.08766327  0.13371297  1  -1.179446  0  -0.396781  -0.696634  0  2.417816  0
