# generated using pymatgen
data_Zn2H13C36I3N2(ClO2)4
_symmetry_space_group_name_H-M   'P 1'
_cell_length_a   9.84348403
_cell_length_b   10.63516192
_cell_length_c   14.03057732
_cell_angle_alpha   92.75732804
_cell_angle_beta   116.41598194
_cell_angle_gamma   80.69712578
_symmetry_Int_Tables_number   1
_chemical_formula_structural   Zn2H13C36I3N2(ClO2)4
_chemical_formula_sum   'Zn2 H13 C36 I3 N2 Cl4 O8'
_cell_volume   1297.68423229
_cell_formula_units_Z   1
loop_
 _symmetry_equiv_pos_site_id
 _symmetry_equiv_pos_as_xyz
  1  'x, y, z'
loop_
 _atom_site_type_symbol
 _atom_site_label
 _atom_site_symmetry_multiplicity
 _atom_site_fract_x
 _atom_site_fract_y
 _atom_site_fract_z
 _atom_site_occupancy
 _atom_site_pbe_bader_charge
 _atom_site_pbe_bader_spin_density
 _atom_site_pbe_cm5_charge
 _atom_site_pbe_ddec_charge
 _atom_site_pbe_ddec_spin_density
 _atom_site_pbe_ddec_sum_bond_order
 _atom_site_pbe_magmom
Zn  Zn0  1  0.37945858  0.50085537  0.48911111  1  1.312213  0  0.690447  0.883665  0  2.287498  0
Zn  Zn1  1  0.69162100  0.45133333  0.49554545  1  1.267081  0  0.668949  0.835968  0  2.399248  0
H  H2  1  0.26956523  0.24670230  0.47181190  1  0.069768  0  0.095222  0.107774  0  1.064653  0
H  H3  1  0.41720329  0.13953478  0.89997614  1  0.095481  0  0.102044  0.121845  0  1.00076  0
H  H4  1  0.50551423  0.57944682  0.86840550  1  0.074909  0  0.104781  0.114051  0  1.004472  0
H  H5  1  0.40868266  0.79054121  0.24577539  1  0.096101  0  0.110223  0.131764  0  0.980928  0
H  H6  1  0.45606183  0.71227948  0.95833165  1  0.090261  0  0.107226  0.125372  0  1.004403  0
H  H7  1  0.03214434  0.16256609  0.42947215  1  0.067226  0  0.072938  0.061678  0  1.106236  0
H  H8  1  0.02879734  0.92876147  0.41864263  1  0.064569  0  0.091655  0.087704  0  1.017119  0
H  H9  1  0.27096841  0.78075468  0.46613833  1  0.100885  0  0.097655  0.108398  0  1.058596  0
H  H10  1  0.79767575  0.82812439  0.58612502  1  0.101286  0  0.098329  0.113418  0  1.022708  0
H  H11  1  0.72712700  0.34477296  0.12235335  1  0.147069  0  0.113024  0.139974  0  0.987368  0
H  H12  1  0.09717410  0.56425883  0.27224557  1  0.180666  0  0.114406  0.154224  0  1.032058  0
H  H13  1  0.31959071  0.20664966  0.02963068  1  0.081256  0  0.100136  0.125648  0  1.003076  0
H  H14  1  0.23431615  0.52748237  0.63241227  1  0.176475  0  0.129227  0.117416  0  1.00826  0
C  C15  1  0.54900329  0.25123592  0.50249191  1  1.530758  0  0.208885  0.589706  0  4.147571  0
C  C16  1  0.38277044  0.60010894  0.18864311  1  0.031871  0  -0.009383  -0.029618  0  3.915702  0
C  C17  1  0.27089220  0.14480378  0.46914777  1  0.020044  0  -0.102719  -0.128802  0  3.9674  0
C  C18  1  0.41821535  0.55284975  0.29828569  1  1.587461  0  0.218021  0.602574  0  4.178652  0
C  C19  1  0.13759332  0.09746820  0.44505714  1  -0.12787  0  -0.105562  -0.08052  0  4.057246  0
C  C20  1  0.13580226  0.96532885  0.44029386  1  -0.070641  0  -0.099091  -0.079844  0  4.05396  0
C  C21  1  0.27071424  0.88262990  0.46628860  1  0.056174  0  -0.098051  -0.126937  0  3.965438  0
C  C22  1  0.41239813  0.92777285  0.49658535  1  -0.065398  0  -0.001687  0.058739  0  3.928643  0
C  C23  1  0.41207557  0.06307753  0.49248895  1  0.042118  0  0.000382  0.071484  0  3.902571  0
C  C24  1  0.55295687  0.11216338  0.51771222  1  0.030246  0  -0.016449  -0.106657  0  3.875549  0
C  C25  1  0.69022334  0.02569246  0.55476424  1  -0.224007  0  -0.041438  0.049345  0  3.865833  0
C  C26  1  0.40983207  0.55200913  0.02423646  1  0.013978  0  5.1e-05  0.06662  0  3.945667  0
C  C27  1  0.68994174  0.89367364  0.55925294  1  -0.035358  0  -0.097138  -0.137498  0  4.002902  0
C  C28  1  0.55618648  0.84421380  0.53070860  1  -0.008744  0  -0.005691  -0.047623  0  3.907797  0
C  C29  1  0.81088596  0.36073458  0.29190081  1  -0.191719  0  -0.036037  0.0093  0  3.848212  0
C  C30  1  0.57039726  0.70212856  0.53822317  1  1.584867  0  0.226547  0.615956  0  4.112135  0
C  C31  1  0.80366231  0.38793398  0.19421643  1  -0.009575  0  -0.081968  -0.153388  0  3.925629  0
C  C32  1  0.89864116  0.46980290  0.18647466  1  0.05695  0  0.027969  0.180623  0  4.053131  0
C  C33  1  0.01372030  0.51166572  0.27651844  1  0.013175  0  -0.093267  -0.237266  0  3.916085  0
C  C34  1  0.02295215  0.48382677  0.37650135  1  0.466872  0  0.120868  0.19421  0  3.943974  0
C  C35  1  0.90943185  0.42077448  0.38456160  1  0.513988  0  0.11834  0.151436  0  3.918991  0
C  C36  1  0.01232820  0.46126497  0.56520117  1  0.392495  0  0.089319  0.129833  0  3.921239  0
C  C37  1  0.37462722  0.51353430  0.10622353  1  0.028121  0  -0.010803  -0.012144  0  3.948126  0
C  C38  1  0.13759012  0.50506066  0.56027150  1  0.585537  0  0.069966  0.065252  0  3.895203  0
C  C39  1  0.55222205  0.42958379  0.72598436  1  1.615624  0  0.19803  0.601627  0  4.212716  0
C  C40  1  0.43407440  0.23677946  0.89255842  1  0.013681  0  -0.102342  -0.213611  0  3.987923  0
C  C41  1  0.50950526  0.39165019  0.81077182  1  -0.041992  0  -0.0186  -0.075533  0  3.958586  0
C  C42  1  0.40098001  0.72541459  0.18176790  1  -0.01088  0  -0.092782  -0.171891  0  3.946445  0
C  C43  1  0.42114463  0.76492438  0.09536833  1  0.033211  0  0.012039  0.164302  0  4.078149  0
C  C44  1  0.43101799  0.67973657  0.02027315  1  -0.002237  0  -0.096732  -0.206358  0  3.959763  0
C  C45  1  0.43037949  0.45860805  0.95076144  1  -0.005391  0  -0.01711  0.003237  0  3.992785  0
C  C46  1  0.40386699  0.33202206  0.95724184  1  -0.031616  0  -0.016794  0.092096  0  4.068769  0
C  C47  1  0.34895450  0.30128686  0.03008406  1  0.073845  0  -0.105766  -0.218744  0  4.022218  0
C  C48  1  0.33581516  0.38783683  0.10178669  1  0.022243  0  0.004175  0.087467  0  4.091884  0
C  C49  1  0.48218106  0.48462845  0.87582529  1  -0.004199  0  -0.091896  -0.156956  0  3.994888  0
C  C50  1  0.48752385  0.26586972  0.82181716  1  0.055698  0  0.012531  0.127591  0  4.063651  0
I  I51  1  0.00135848  0.45952147  0.71022241  1  0.28184  0  0.219958  0.142133  0  1.57986  0
I  I52  1  0.69850757  0.21377927  0.30127687  1  0.210743  0  0.15874  0.073265  0  1.730231  0
I  I53  1  0.91598937  0.06729577  0.61055313  1  0.14762  0  0.084444  -0.012118  0  1.606215  0
N  N54  1  0.90162089  0.41963208  0.47971544  1  -1.230873  0  -0.307834  -0.265549  0  3.504114  0
N  N55  1  0.14216440  0.51657142  0.46831266  1  -1.188176  0  -0.285539  -0.208499  0  3.381216  0
Cl  Cl56  1  0.53235035  0.14482629  0.74907160  1  -0.203377  0  -0.001803  -0.061283  0  1.556407  0
Cl  Cl57  1  0.87387885  0.50913433  0.06185414  1  -0.153129  0  0.030992  -0.03008  0  1.496672  0
Cl  Cl58  1  0.44557032  0.92176452  0.08840580  1  -0.235499  0  -0.024476  -0.106822  0  1.446685  0
Cl  Cl59  1  0.26850430  0.34172085  0.18716323  1  -0.196257  0  0.013752  -0.041547  0  1.702085  0
O  O60  1  0.42503210  0.31988622  0.43920543  1  -1.159619  0  -0.31208  -0.545761  0  2.40576  0
O  O61  1  0.67546203  0.29579067  0.55341236  1  -1.148274  0  -0.315493  -0.54284  0  2.521768  0
O  O62  1  0.32977339  0.58647205  0.34173431  1  -1.168588  0  -0.303063  -0.541078  0  2.332352  0
O  O63  1  0.55181444  0.48689751  0.34195785  1  -1.176749  0  -0.318156  -0.55551  0  2.481728  0
O  O64  1  0.47392504  0.65576735  0.55699135  1  -1.167394  0  -0.305328  -0.5291  0  2.39259  0
O  O65  1  0.68122646  0.63630321  0.52404479  1  -1.152688  0  -0.321296  -0.551336  0  2.362056  0
O  O66  1  0.44225058  0.41747444  0.63152713  1  -1.167725  0  -0.340117  -0.598044  0  2.377322  0
O  O67  1  0.67418436  0.46950057  0.74977285  1  -1.15643  0  -0.334779  -0.532739  0  2.088414  0
