# generated using pymatgen
data_CsMnH3(CO2)3
_symmetry_space_group_name_H-M   'P 1'
_cell_length_a   7.60836166
_cell_length_b   7.60840648
_cell_length_c   8.48671091
_cell_angle_alpha   90.00000447
_cell_angle_beta   90.00014471
_cell_angle_gamma   119.99979727
_symmetry_Int_Tables_number   1
_chemical_formula_structural   CsMnH3(CO2)3
_chemical_formula_sum   'Cs2 Mn2 H6 C6 O12'
_cell_volume   425.45710692
_cell_formula_units_Z   2
loop_
 _symmetry_equiv_pos_site_id
 _symmetry_equiv_pos_as_xyz
  1  'x, y, z'
loop_
 _atom_site_type_symbol
 _atom_site_label
 _atom_site_symmetry_multiplicity
 _atom_site_fract_x
 _atom_site_fract_y
 _atom_site_fract_z
 _atom_site_occupancy
 _atom_site_hle17_ddec_charge
 _atom_site_hle17_ddec_spin_density
 _atom_site_hle17_ddec_sum_bond_order
 _atom_site_hle17_magmom
 _atom_site_hse06_10hf_ddec_charge
 _atom_site_hse06_10hf_ddec_spin_density
 _atom_site_hse06_10hf_ddec_sum_bond_order
 _atom_site_hse06_10hf_magmom
 _atom_site_hse06_ddec_charge
 _atom_site_hse06_ddec_spin_density
 _atom_site_hse06_ddec_sum_bond_order
 _atom_site_hse06_magmom
 _atom_site_pbe_cm5_charge
 _atom_site_pbe_ddec_charge
 _atom_site_pbe_ddec_spin_density
 _atom_site_pbe_ddec_sum_bond_order
 _atom_site_pbe_magmom
Cs  Cs0  1  0.00000347  0.99999564  0.25000148  1  0.928882  -0.002952  0.559597  0.0  0.859752  -0.002839  0.792393  0.001  0.879699  -0.003345  0.766025  0.0  0.840751  0.844697  -0.002206  0.811359  0.001
Cs  Cs1  1  0.00000066  0.00000150  0.75000080  1  0.928892  -0.002951  0.559583  0.0  0.859744  -0.00284  0.792369  0.001  0.879698  -0.003346  0.766002  0.0  0.840715  0.844675  -0.002206  0.811335  0.001
Mn  Mn2  1  0.66666627  0.33332756  0.24999868  1  1.211997  4.805318  1.727116  4.696  1.06517  4.736738  2.212406  4.569  1.124414  4.772077  2.144473  4.622  0.581332  1.018755  4.702358  2.261997  4.519
Mn  Mn3  1  0.33333607  0.66666842  0.74999767  1  1.212019  4.80531  1.727227  4.696  1.065171  4.736728  2.212585  4.569  1.124438  4.772068  2.144605  4.622  0.58133  1.018715  4.702347  2.262237  4.519
H  H4  1  0.58706258  0.58707302  0.99999469  1  0.009736  -0.000623  0.947084  0.0  0.017405  -0.000387  1.01927  0.0  0.01895  -0.000592  1.013381  0.0  0.119397  0.016103  -0.000173  1.023603  0.0
H  H5  1  0.00000034  0.58707452  0.50000527  1  0.009783  -0.000625  0.947045  0.0  0.017449  -0.000387  1.019226  0.0  0.018995  -0.000592  1.013331  0.0  0.119396  0.016106  -0.000173  1.023599  0.0
H  H6  1  0.41292182  0.00000304  0.99999801  1  0.009765  -0.00062  0.947023  0.0  0.017463  -0.000387  1.019166  0.0  0.019007  -0.000592  1.013274  0.0  0.119389  0.016097  -0.000173  1.023562  0.0
H  H7  1  0.41292877  0.41293276  0.49999866  1  0.00973  -0.000623  0.947068  0.0  0.017404  -0.000387  1.019255  0.0  0.018951  -0.000592  1.013359  0.0  0.11938  0.01608  -0.000172  1.023615  0.0
H  H8  1  0.00001114  0.41292436  0.00000237  1  0.009729  -0.000621  0.947031  0.0  0.017434  -0.000387  1.019175  0.0  0.018979  -0.000592  1.013282  0.0  0.119379  0.016077  -0.000173  1.023562  0.0
H  H9  1  0.58707828  0.99998874  0.50000124  1  0.009752  -0.000617  0.946976  0.0  0.01745  -0.000387  1.019127  0.0  0.018995  -0.000592  1.013233  0.0  0.119383  0.016077  -0.000173  1.023528  0.0
C  C10  1  0.44142732  0.44144076  0.00002055  1  0.592053  0.003433  3.902545  0.004  0.526123  0.008595  4.199243  0.008  0.560304  0.005905  4.191451  0.006  0.155014  0.502551  0.01139  4.203476  0.01
C  C11  1  0.00002326  0.44145299  0.49997581  1  0.591945  0.003434  3.902754  0.004  0.526016  0.008595  4.199412  0.008  0.560199  0.005907  4.191624  0.006  0.155013  0.502473  0.011391  4.203642  0.01
C  C12  1  0.55854296  0.99997246  0.00002424  1  0.591943  0.003433  3.902776  0.004  0.526003  0.008597  4.199426  0.008  0.560189  0.005906  4.191635  0.006  0.154991  0.502473  0.011392  4.203653  0.01
C  C13  1  0.55855778  0.55856576  0.49997880  1  0.592153  0.003434  3.902655  0.004  0.526221  0.008597  4.199333  0.008  0.560404  0.005906  4.191537  0.006  0.15509  0.50266  0.011391  4.203565  0.01
C  C14  1  0.00002472  0.55856721  0.00002712  1  0.591997  0.003428  3.902782  0.004  0.526044  0.008595  4.199454  0.008  0.560226  0.005903  4.191664  0.006  0.155005  0.50251  0.011388  4.203681  0.01
C  C15  1  0.44143090  0.99997272  0.49997279  1  0.592007  0.003426  3.90273  0.004  0.526063  0.008596  4.199389  0.008  0.560246  0.005904  4.191601  0.006  0.155038  0.50254  0.01139  4.203614  0.01
O  O16  1  0.41847067  0.30844718  0.10115982  1  -0.657768  0.031533  2.102611  0.021  -0.592644  0.040249  2.373542  0.026  -0.623704  0.035891  2.361213  0.022  -0.374231  -0.569956  0.044368  2.381134  0.029
O  O17  1  0.10999582  0.41847738  0.60117650  1  -0.657655  0.031539  2.10251  0.021  -0.592523  0.040249  2.373436  0.026  -0.623593  0.035891  2.361114  0.022  -0.374188  -0.569827  0.044369  2.381013  0.029
O  O18  1  0.69154337  0.11002363  0.10115305  1  -0.657661  0.031532  2.102772  0.021  -0.592559  0.040243  2.373746  0.026  -0.623619  0.035885  2.361412  0.022  -0.374202  -0.569865  0.044363  2.381308  0.029
O  O19  1  0.58152463  0.69152080  0.60116880  1  -0.657732  0.031535  2.102611  0.021  -0.59259  0.040244  2.373513  0.026  -0.623656  0.035886  2.361187  0.022  -0.374253  -0.569891  0.044364  2.381089  0.029
O  O20  1  0.88998309  0.58152277  0.10116154  1  -0.657672  0.031533  2.102606  0.021  -0.592544  0.040246  2.373535  0.026  -0.623609  0.035888  2.361214  0.022  -0.374173  -0.569857  0.044365  2.381113  0.029
O  O21  1  0.30847619  0.88999895  0.60116968  1  -0.657708  0.03154  2.10261  0.021  -0.592584  0.04025  2.373547  0.026  -0.623653  0.035892  2.361227  0.022  -0.374245  -0.569885  0.04437  2.381105  0.029
O  O22  1  0.11000139  0.69152163  0.89883364  1  -0.657695  0.031539  2.102651  0.021  -0.592567  0.040247  2.373582  0.026  -0.623636  0.03589  2.361261  0.022  -0.374238  -0.569868  0.044367  2.381143  0.029
O  O23  1  0.58152645  0.89000437  0.89882122  1  -0.657641  0.031532  2.102499  0.021  -0.592519  0.040247  2.373436  0.026  -0.623589  0.035889  2.36111  0.022  -0.374187  -0.569824  0.044367  2.381007  0.029
O  O24  1  0.30847783  0.41847783  0.89882561  1  -0.657683  0.031538  2.102449  0.021  -0.59256  0.040247  2.37339  0.026  -0.623626  0.035889  2.361064  0.022  -0.37421  -0.569866  0.044366  2.380981  0.029
O  O25  1  0.69154490  0.58151702  0.39883494  1  -0.657777  0.031532  2.10259  0.021  -0.592673  0.040248  2.373565  0.026  -0.623734  0.03589  2.361235  0.022  -0.374231  -0.569986  0.044368  2.381154  0.029
O  O26  1  0.88997426  0.30845195  0.39884694  1  -0.657696  0.031532  2.102717  0.021  -0.592585  0.040245  2.373675  0.026  -0.623644  0.035886  2.361341  0.022  -0.374241  -0.569893  0.044364  2.381247  0.029
O  O27  1  0.41847462  0.11001740  0.39884168  1  -0.657693  0.031529  2.102689  0.021  -0.592564  0.040243  2.373617  0.026  -0.62363  0.035885  2.3613  0.022  -0.374206  -0.569873  0.044363  2.381181  0.029
