# generated using pymatgen
data_CuH20C14(N2O3)2
_symmetry_space_group_name_H-M   'P 1'
_cell_length_a   9.05679896
_cell_length_b   9.05678841
_cell_length_c   11.40279956
_cell_angle_alpha   70.48235042
_cell_angle_beta   70.48226517
_cell_angle_gamma   77.57890381
_symmetry_Int_Tables_number   1
_chemical_formula_structural   CuH20C14(N2O3)2
_chemical_formula_sum   'Cu2 H40 C28 N8 O12'
_cell_volume   825.26317088
_cell_formula_units_Z   2
loop_
 _symmetry_equiv_pos_site_id
 _symmetry_equiv_pos_as_xyz
  1  'x, y, z'
loop_
 _atom_site_type_symbol
 _atom_site_label
 _atom_site_symmetry_multiplicity
 _atom_site_fract_x
 _atom_site_fract_y
 _atom_site_fract_z
 _atom_site_occupancy
 _atom_site_hle17_ddec_charge
 _atom_site_hle17_ddec_spin_density
 _atom_site_hle17_ddec_sum_bond_order
 _atom_site_hle17_magmom
 _atom_site_hse06_10hf_ddec_charge
 _atom_site_hse06_10hf_ddec_spin_density
 _atom_site_hse06_10hf_ddec_sum_bond_order
 _atom_site_hse06_10hf_magmom
 _atom_site_hse06_ddec_charge
 _atom_site_hse06_ddec_spin_density
 _atom_site_hse06_ddec_sum_bond_order
 _atom_site_hse06_magmom
 _atom_site_pbe_cm5_charge
 _atom_site_pbe_ddec_charge
 _atom_site_pbe_ddec_spin_density
 _atom_site_pbe_ddec_sum_bond_order
 _atom_site_pbe_magmom
Cu  Cu0  1  0.05105158  0.94894936  0.74999996  1  0.919927  -0.748586  1.766016  -0.539  0.903111  -0.826431  2.141309  -0.652  0.984946  -0.894588  2.083484  -0.732  0.741667  0.849153  -0.775255  2.185116  -0.598
Cu  Cu1  1  0.94894720  0.05105357  0.25000022  1  0.919942  0.748581  1.765885  0.539  0.90309  0.826426  2.141184  0.652  0.984965  0.894594  2.083358  0.732  0.741654  0.849126  0.775254  2.185008  0.598
H  H2  1  0.41325993  0.91607596  0.74748317  1  0.115147  -0.000256  0.961199  -0.001  0.122182  -0.000363  1.027637  -0.001  0.124353  -0.00025  1.02561  0.0  0.119079  0.120434  -0.000436  1.029008  -0.001
H  H3  1  0.08392639  0.58674126  0.75251252  1  0.115164  -0.000256  0.96119  -0.001  0.122216  -0.000363  1.02761  -0.001  0.124387  -0.00025  1.025583  0.0  0.119093  0.120468  -0.000435  1.028986  -0.001
H  H4  1  0.58673783  0.08392578  0.25251409  1  0.115162  0.000258  0.961194  0.001  0.122186  0.000363  1.027641  0.001  0.124357  0.00025  1.025614  0.0  0.119082  0.120438  0.000435  1.029017  0.001
H  H5  1  0.91607605  0.41326050  0.24748612  1  0.115149  0.000258  0.961193  0.001  0.122199  0.000363  1.027617  0.001  0.124371  0.00025  1.025589  0.0  0.119091  0.120451  0.000436  1.028992  0.001
H  H6  1  0.64652667  0.77405384  0.57546046  1  0.122677  -0.000554  0.940448  -0.001  0.136378  -0.000474  0.993114  -0.001  0.138486  -0.000354  0.99246  0.0  0.126486  0.13382  -0.000544  0.995055  -0.001
H  H7  1  0.22594492  0.35347165  0.92453755  1  0.122688  -0.000557  0.940411  -0.001  0.136385  -0.000474  0.99308  -0.001  0.138494  -0.000355  0.992425  0.0  0.126497  0.133823  -0.000544  0.99502  -0.001
H  H8  1  0.35346903  0.22594553  0.42453885  1  0.122755  0.000558  0.940325  0.001  0.136455  0.000474  0.992996  0.001  0.138565  0.000355  0.99234  0.0  0.126509  0.133893  0.000544  0.994936  0.001
H  H9  1  0.77405371  0.64653245  0.07546236  1  0.122749  0.000556  0.940364  0.001  0.136456  0.000474  0.993028  0.001  0.138566  0.000355  0.992375  0.0  0.126518  0.133894  0.000544  0.994968  0.001
H  H10  1  0.21580404  0.85567949  0.48154919  1  0.107339  -2.8e-05  0.945514  0.0  0.115046  -0.000122  1.010735  0.0  0.117043  -9.7e-05  1.008119  0.0  0.139098  0.113112  -0.00014  1.013371  0.0
H  H11  1  0.14432244  0.78419535  0.01844802  1  0.107336  -2.9e-05  0.945537  0.0  0.11504  -0.000122  1.010765  0.0  0.117039  -9.8e-05  1.008148  0.0  0.139087  0.113105  -0.00014  1.013408  0.0
H  H12  1  0.78419517  0.14431990  0.51844831  1  0.107345  2.7e-05  0.945538  0.0  0.115045  0.000122  1.010767  0.0  0.117043  9.7e-05  1.008149  0.0  0.139088  0.113107  0.00014  1.013414  0.0
H  H13  1  0.85568000  0.21580641  0.98155238  1  0.107386  2.8e-05  0.9455  0.0  0.115082  0.000121  1.010735  0.0  0.11708  9.8e-05  1.008118  0.0  0.139102  0.113146  0.00014  1.013379  0.0
H  H14  1  0.44290003  0.74144930  0.33899781  1  0.082998  1.9e-05  0.914331  0.0  0.100993  -1.1e-05  0.970307  0.0  0.101725  -3e-06  0.97025  0.0  0.113905  0.100148  -1.5e-05  0.970476  0.0
H  H15  1  0.25854725  0.55709877  0.16100161  1  0.082938  2e-05  0.914353  0.0  0.100982  -1e-05  0.970288  0.0  0.101714  -4e-06  0.970231  0.0  0.113919  0.100132  -1.5e-05  0.970461  0.0
H  H16  1  0.55710210  0.25854538  0.66100104  1  0.082935  -2e-05  0.914356  0.0  0.10096  1.1e-05  0.970311  0.0  0.101691  3e-06  0.970254  0.0  0.113904  0.100114  1.5e-05  0.970484  0.0
H  H17  1  0.74145445  0.44289945  0.83899904  1  0.082944  -1.9e-05  0.914344  0.0  0.100984  1.1e-05  0.970282  0.0  0.101716  3e-06  0.970225  0.0  0.113918  0.100137  1.5e-05  0.970459  0.0
H  H18  1  0.63196829  0.77569561  0.32942781  1  0.093937  5.9e-05  0.927896  0.0  0.109559  2.2e-05  0.988438  0.0  0.110148  2.9e-05  0.988192  0.0  0.112708  0.10846  1.7e-05  0.98902  0.0
H  H19  1  0.22430160  0.36803023  0.17056965  1  0.093893  6e-05  0.927922  0.0  0.109526  2.2e-05  0.988463  0.0  0.110115  2.9e-05  0.98822  0.0  0.112694  0.108439  1.7e-05  0.98903  0.0
H  H20  1  0.36803121  0.22430142  0.67057198  1  0.093907  -5.9e-05  0.92789  0.0  0.10954  -2.2e-05  0.988426  0.0  0.110128  -2.9e-05  0.988182  0.0  0.112694  0.108443  -1.7e-05  0.989005  0.0
H  H21  1  0.77569864  0.63197034  0.82942989  1  0.093882  -6.1e-05  0.927941  0.0  0.109514  -2.2e-05  0.98848  0.0  0.1101  -2.9e-05  0.988239  0.0  0.11269  0.10843  -1.7e-05  0.989046  0.0
H  H22  1  0.61907201  0.49064300  0.36849785  1  0.072659  -0.000168  0.955866  0.0  0.088928  -0.000121  1.020203  0.0  0.089015  -7.8e-05  1.022372  0.0  0.093062  0.088407  -0.000155  1.019567  0.0
H  H23  1  0.50935339  0.38092774  0.13150194  1  0.072648  -0.00017  0.95591  0.0  0.08885  -0.000121  1.020303  0.0  0.088936  -7.8e-05  1.022474  0.0  0.093018  0.088326  -0.000155  1.01967  0.0
H  H24  1  0.38092983  0.50935404  0.63150308  1  0.072653  0.00017  0.95588  0.0  0.088863  0.00012  1.020274  0.0  0.088949  7.8e-05  1.022445  0.0  0.093031  0.088339  0.000155  1.019644  0.0
H  H25  1  0.49064714  0.61907048  0.86849727  1  0.072676  0.00017  0.955869  0.0  0.088865  0.00012  1.020257  0.0  0.088951  7.8e-05  1.02243  0.0  0.093027  0.088341  0.000155  1.019628  0.0
H  H26  1  0.66599689  0.52248088  0.49532150  1  0.064779  -2.7e-05  0.942422  0.0  0.082549  -2.5e-05  1.006553  0.0  0.082123  -2e-05  1.008771  0.0  0.088234  0.083839  -2.9e-05  1.002845  0.0
H  H27  1  0.47751838  0.33400163  0.00467609  1  0.064807  -2.7e-05  0.942431  0.0  0.082573  -2.5e-05  1.006539  0.0  0.082147  -2e-05  1.008757  0.0  0.088257  0.083863  -2.9e-05  1.002837  0.0
H  H28  1  0.33400012  0.47751731  0.50467865  1  0.064795  2.6e-05  0.942421  0.0  0.08257  2.5e-05  1.006531  0.0  0.082144  2e-05  1.008749  0.0  0.088246  0.083859  2.9e-05  1.002828  0.0
H  H29  1  0.52248186  0.66599895  0.99532257  1  0.064791  2.7e-05  0.942443  0.0  0.082537  2.5e-05  1.006558  0.0  0.082123  2.1e-05  1.008765  0.0  0.088241  0.083827  2.9e-05  1.002854  0.0
H  H30  1  0.60797519  0.02158008  0.07121933  1  0.126936  0.000375  0.969489  0.001  0.133831  7.7e-05  1.033402  0.0  0.138065  6.5e-05  1.030272  0.0  0.107679  0.130413  8.4e-05  1.036374  0.0
H  H31  1  0.97841888  0.39202942  0.42878080  1  0.126995  0.000372  0.969449  0.001  0.133867  7.7e-05  1.033377  0.0  0.138101  6.5e-05  1.030247  0.0  0.107701  0.130448  8.4e-05  1.036348  0.0
H  H32  1  0.39202828  0.97842287  0.92878486  1  0.127009  -0.000375  0.969454  -0.001  0.133905  -7.8e-05  1.033351  0.0  0.138138  -6.5e-05  1.03022  0.0  0.107723  0.130486  -8.4e-05  1.036321  0.0
H  H33  1  0.02158004  0.60797233  0.57121527  1  0.127031  -0.000372  0.969424  -0.001  0.133899  -7.7e-05  1.033351  0.0  0.138132  -6.5e-05  1.030221  0.0  0.107737  0.130478  -8.4e-05  1.036321  0.0
H  H34  1  0.10583650  0.17577007  0.81991311  1  0.400237  6.9e-05  0.920809  0.0  0.367777  7.1e-05  0.990589  0.0  0.379523  7.1e-05  0.973216  0.0  0.272877  0.35958  5.7e-05  1.002784  0.0
H  H35  1  0.82423182  0.89416054  0.68008876  1  0.400281  6.9e-05  0.920748  0.0  0.367822  7.1e-05  0.990525  0.0  0.379567  7.1e-05  0.973152  0.0  0.272903  0.359626  5.7e-05  1.002721  0.0
H  H36  1  0.89416214  0.82423404  0.18008768  1  0.400302  -6.9e-05  0.92072  0.0  0.367833  -7.2e-05  0.990514  0.0  0.37958  -7.1e-05  0.973138  0.0  0.27293  0.359638  -5.7e-05  1.002707  0.0
H  H37  1  0.17576637  0.10583767  0.31991371  1  0.400214  -6.8e-05  0.920835  0.0  0.367729  -7.2e-05  0.990662  0.0  0.379479  -7.1e-05  0.97328  0.0  0.272877  0.359533  -5.7e-05  1.002853  0.0
H  H38  1  0.14211769  0.06310176  0.95259695  1  0.404773  0.000143  0.905322  0.0  0.380149  0.000168  0.962409  0.0  0.391158  7.3e-05  0.946225  0.0  0.279386  0.37239  0.000247  0.97397  0.0
H  H39  1  0.93689913  0.85788300  0.54740499  1  0.404815  0.000143  0.905272  0.0  0.380194  0.000168  0.96235  0.0  0.391203  7.3e-05  0.946167  0.0  0.2794  0.372434  0.000247  0.973913  0.0
H  H40  1  0.85788212  0.93690236  0.04740352  1  0.404815  -0.000143  0.905264  0.0  0.380209  -0.000168  0.962318  0.0  0.391216  -7.3e-05  0.946139  0.0  0.27944  0.372451  -0.000247  0.973877  0.0
H  H41  1  0.06309511  0.14211872  0.45259496  1  0.40481  -0.000143  0.905265  0.0  0.380202  -0.000168  0.962324  0.0  0.391209  -7.3e-05  0.946145  0.0  0.279436  0.37244  -0.000247  0.973891  0.0
C  C42  1  0.40579125  0.87981661  0.66852784  1  0.004991  0.001283  3.733383  0.001  -0.030089  -0.001138  4.015646  -0.001  -0.025261  -0.000402  4.034738  0.0  -0.002155  -0.033147  -0.001677  4.001781  -0.001
C  C43  1  0.12018173  0.59420782  0.83147033  1  0.004912  0.001277  3.733295  0.001  -0.030197  -0.001138  4.015562  -0.001  -0.02537  -0.000403  4.034656  0.0  -0.002189  -0.033261  -0.001677  4.001709  -0.001
C  C44  1  0.59420474  0.12018040  0.33147290  1  0.005021  -0.0013  3.733225  -0.001  -0.030048  0.001138  4.015477  0.001  -0.025218  0.000404  4.034573  0.0  -0.002123  -0.033112  0.001677  4.001618  0.001
C  C45  1  0.87981822  0.40579511  0.16852866  1  0.005034  -0.001301  3.733235  -0.001  -0.030077  0.001138  4.015492  0.001  -0.025245  0.000401  4.034587  0.0  -0.002147  -0.033146  0.001677  4.001629  0.001
C  C46  1  0.52213846  0.80957044  0.58394347  1  -0.059792  -0.005593  3.653451  -0.006  -0.098695  -0.002325  3.909935  -0.002  -0.096981  -0.001859  3.927904  -0.002  0.002047  -0.098625  -0.002697  3.897786  -0.003
C  C47  1  0.19042898  0.47786149  0.91605404  1  -0.059729  -0.00558  3.653385  -0.006  -0.09862  -0.002324  3.909867  -0.002  -0.096904  -0.001856  3.927835  -0.002  0.002046  -0.098551  -0.002697  3.897715  -0.003
C  C48  1  0.47785841  0.19042893  0.41605640  1  -0.059883  0.005602  3.653287  0.006  -0.098797  0.002324  3.909786  0.002  -0.097082  0.001858  3.927752  0.002  0.002004  -0.098721  0.002697  3.897624  0.003
C  C49  1  0.80956966  0.52214262  0.08394586  1  -0.059878  0.005605  3.653282  0.006  -0.098797  0.002324  3.909797  0.002  -0.097087  0.00186  3.927766  0.002  0.002008  -0.098719  0.002697  3.897638  0.003
C  C50  1  0.29862559  0.85339374  0.53236742  1  0.159719  0.002286  3.637519  0.002  0.102818  -0.000824  3.911164  -0.001  0.117872  0.000247  3.925318  0.001  0.143058  0.092167  -0.001609  3.902676  -0.001
C  C51  1  0.14660590  0.70137436  0.96763111  1  0.159668  0.002256  3.637578  0.002  0.102757  -0.00082  3.911221  -0.001  0.117812  0.000245  3.925376  0.001  0.143001  0.092107  -0.001609  3.902731  -0.001
C  C52  1  0.70137171  0.14660210  0.46763328  1  0.159665  -0.002286  3.637594  -0.002  0.10277  0.000824  3.911208  0.001  0.11783  -0.00025  3.925364  -0.001  0.143021  0.092122  0.001609  3.902721  0.001
C  C53  1  0.85339624  0.29862977  0.03236786  1  0.159583  -0.002284  3.637689  -0.002  0.10267  0.000824  3.911304  0.001  0.117729  -0.00025  3.925461  -0.001  0.142976  0.092012  0.00161  3.902817  0.001
C  C54  1  0.52738396  0.71811554  0.39507446  1  0.000426  -0.001045  3.611641  -0.001  -0.059877  -0.000734  3.868185  -0.001  -0.055515  -0.000547  3.879117  -0.001  -0.050396  -0.062222  -0.000869  3.860548  -0.001
C  C55  1  0.28188226  0.47261433  0.10492557  1  0.000577  -0.001042  3.611495  -0.001  -0.059801  -0.000736  3.868067  -0.001  -0.055434  -0.000546  3.878988  -0.001  -0.050416  -0.062152  -0.000869  3.860423  -0.001
C  C56  1  0.47261423  0.28188266  0.60492625  1  0.000513  0.001043  3.611491  0.001  -0.059836  0.000735  3.868054  0.001  -0.05547  0.000548  3.87898  0.001  -0.050412  -0.062184  0.000869  3.860412  0.001
C  C57  1  0.71811783  0.52738743  0.89507457  1  0.000559  0.001047  3.611576  0.001  -0.059817  0.000733  3.868114  0.001  -0.05545  0.000549  3.879039  0.001  -0.050421  -0.062169  0.000869  3.860477  0.001
C  C58  1  0.57010418  0.54146167  0.45072948  1  -0.131172  -0.000382  3.69871  0.0  -0.173599  -0.000269  3.962885  0.0  -0.174907  -0.000175  3.9774  0.0  -0.167988  -0.173277  -0.00036  3.953009  0.0
C  C59  1  0.45853733  0.42989494  0.04926986  1  -0.131167  -0.000384  3.698809  0.0  -0.173532  -0.000268  3.962906  0.0  -0.17484  -0.000177  3.977426  0.0  -0.167954  -0.173211  -0.000361  3.953038  0.0
C  C60  1  0.42989401  0.45853653  0.54927124  1  -0.13115  0.000385  3.698694  0.0  -0.173528  0.000269  3.962859  0.0  -0.174835  0.000175  3.977375  0.0  -0.167958  -0.173198  0.00036  3.952981  0.0
C  C61  1  0.54146305  0.57010445  0.95072908  1  -0.131232  0.000383  3.69883  0.0  -0.173527  0.00027  3.962876  0.0  -0.174844  0.000174  3.977391  0.0  -0.167963  -0.173211  0.00036  3.953012  0.0
C  C62  1  0.70481753  0.98861461  0.87420052  1  0.669969  0.002563  3.889441  0.005  0.631404  -0.000475  4.180334  0.001  0.668101  -5.9e-05  4.171868  0.001  0.204756  0.606706  -0.000774  4.184412  0.001
C  C63  1  0.01138672  0.29518495  0.62580020  1  0.670009  0.002555  3.889381  0.005  0.631436  -0.000477  4.180294  0.001  0.668136  -5.8e-05  4.17183  0.001  0.204724  0.606744  -0.000775  4.184365  0.001
C  C64  1  0.29518739  0.01138599  0.12580303  1  0.669814  -0.002565  3.889416  -0.005  0.631212  0.000473  4.180383  -0.001  0.66791  6.1e-05  4.17192  -0.001  0.204589  0.606521  0.000775  4.184441  -0.001
C  C65  1  0.98861264  0.70481325  0.37419933  1  0.669845  -0.002553  3.88954  -0.005  0.631228  0.000474  4.180526  -0.001  0.667926  6.1e-05  4.172064  -0.001  0.204632  0.606527  0.000775  4.184601  -0.001
C  C66  1  0.57530325  0.00534479  0.99302524  1  -0.177577  -0.013359  3.672372  -0.013  -0.198356  -0.005246  3.927245  -0.005  -0.203649  -0.004337  3.940379  -0.005  -0.089934  -0.194318  -0.006356  3.915757  -0.007
C  C67  1  0.99465524  0.42469605  0.50697694  1  -0.177707  -0.013285  3.672504  -0.013  -0.19844  -0.005245  3.927366  -0.005  -0.203734  -0.004354  3.940499  -0.005  -0.089959  -0.194404  -0.006356  3.915879  -0.007
C  C68  1  0.42470079  0.99465345  0.00698005  1  -0.177673  0.01336  3.672438  0.013  -0.198445  0.005247  3.927343  0.005  -0.203734  0.004336  3.940475  0.005  -0.089939  -0.194404  0.006355  3.915846  0.007
C  C69  1  0.00534207  0.57529979  0.49302288  1  -0.177691  0.013286  3.67247  0.013  -0.198443  0.005246  3.927374  0.005  -0.203734  0.004352  3.940505  0.005  -0.089996  -0.194397  0.006356  3.915872  0.007
N  N70  1  0.26730558  0.90661261  0.63497079  1  -0.358712  -0.081649  3.34573  -0.102  -0.321426  -0.055328  3.662533  -0.073  -0.35389  -0.045444  3.686691  -0.063  -0.375486  -0.301145  -0.060784  3.647396  -0.078
N  N71  1  0.09338596  0.73269467  0.86502800  1  -0.358613  -0.08163  3.345635  -0.102  -0.32132  -0.05533  3.662423  -0.073  -0.353791  -0.045439  3.686585  -0.063  -0.37542  -0.301041  -0.060784  3.64729  -0.078
N  N72  1  0.73269055  0.09338321  0.36502934  1  -0.358665  0.081652  3.345675  0.102  -0.321366  0.055327  3.662458  0.073  -0.353853  0.045439  3.686637  0.063  -0.375447  -0.301091  0.060781  3.647334  0.078
N  N73  1  0.90661605  0.26731064  0.13497070  1  -0.358659  0.08165  3.345708  0.102  -0.321325  0.055328  3.662461  0.073  -0.353812  0.04544  3.686642  0.063  -0.375432  -0.301038  0.060783  3.647325  0.078
N  N74  1  0.45249633  0.79474898  0.49815430  1  -0.063558  -0.002604  3.595808  -0.003  0.031906  -0.002121  3.810062  -0.003  0.017016  -0.001506  3.837486  -0.002  -0.244704  0.04185  -0.002611  3.790645  -0.003
N  N75  1  0.20525068  0.54750290  0.00184247  1  -0.063648  -0.002593  3.595753  -0.003  0.031825  -0.002122  3.810025  -0.003  0.016932  -0.001506  3.837451  -0.002  -0.244694  0.041774  -0.002612  3.790596  -0.003
N  N76  1  0.54750068  0.20524922  0.50184497  1  -0.063594  0.0026  3.595659  0.003  0.031877  0.002121  3.809925  0.003  0.016986  0.001507  3.837348  0.002  -0.244712  0.041822  0.002612  3.790495  0.003
N  N77  1  0.79474927  0.45250004  0.99815652  1  -0.063564  0.002601  3.595698  0.003  0.031905  0.002121  3.809952  0.003  0.017016  0.001507  3.837374  0.002  -0.244689  0.041853  0.002612  3.790526  0.003
O  O78  1  0.84512359  0.98744437  0.88179485  1  -0.629196  -0.07167  2.094794  -0.096  -0.590959  -0.046402  2.364485  -0.067  -0.631953  -0.035691  2.355146  -0.054  -0.323868  -0.562898  -0.054028  2.37085  -0.076
O  O79  1  0.01255752  0.15487597  0.61820727  1  -0.629245  -0.071666  2.094714  -0.096  -0.590948  -0.046403  2.364428  -0.067  -0.631947  -0.035691  2.355094  -0.054  -0.323859  -0.562889  -0.054031  2.370789  -0.076
O  O80  1  0.15487885  0.01255740  0.11820642  1  -0.629148  0.071677  2.094723  0.096  -0.590871  0.046409  2.364434  0.067  -0.631878  0.03568  2.355101  0.054  -0.323809  -0.562813  0.054032  2.37079  0.076
O  O81  1  0.98744344  0.84511870  0.38179539  1  -0.629188  0.071663  2.094733  0.096  -0.590883  0.046408  2.364451  0.067  -0.631888  0.035683  2.355115  0.054  -0.32381  -0.562824  0.054029  2.370813  0.076
O  O82  1  0.67309770  0.97537232  0.77921878  1  -0.599723  -1.2e-05  1.953632  0.0  -0.550537  0.000244  2.173788  0.0  -0.575712  0.000637  2.165399  0.001  -0.306848  -0.532902  -0.000216  2.17898  -0.001
O  O83  1  0.02462610  0.32690610  0.72078238  1  -0.599689  -6e-06  1.953572  0.0  -0.550529  0.000244  2.173727  0.0  -0.575705  0.000636  2.16534  0.001  -0.306809  -0.532898  -0.000216  2.178918  -0.001
O  O84  1  0.32690254  0.02462826  0.22078778  1  -0.599633  1.1e-05  1.953574  0.0  -0.550394  -0.000245  2.173699  0.0  -0.575575  -0.000628  2.165314  -0.001  -0.306744  -0.532764  0.000216  2.17888  0.001
O  O85  1  0.97537619  0.67309685  0.27921423  1  -0.599625  7e-06  1.953653  0.0  -0.550413  -0.000245  2.173803  0.0  -0.57559  -0.00063  2.165417  -0.001  -0.306774  -0.532776  0.000216  2.178989  0.001
O  O86  1  0.16772457  0.07680313  0.85866769  1  -0.866803  0.001856  1.845834  0.001  -0.831541  0.001528  2.030667  0.001  -0.849233  0.001408  1.994837  0.001  -0.611822  -0.817363  0.001579  2.056882  0.001
O  O87  1  0.92319994  0.83227394  0.64133335  1  -0.866892  0.001856  1.845788  0.001  -0.83163  0.001527  2.030615  0.001  -0.84932  0.001409  1.994786  0.001  -0.611864  -0.817451  0.001579  2.056826  0.001
O  O88  1  0.83227495  0.92320335  0.14133135  1  -0.866911  -0.001858  1.845743  -0.001  -0.831661  -0.001526  2.030594  -0.001  -0.849356  -0.00141  1.994767  -0.001  -0.611928  -0.817487  -0.001579  2.056811  -0.001
O  O89  1  0.07679562  0.16772660  0.35866919  1  -0.866812  -0.001857  1.84578  -0.001  -0.831562  -0.001527  2.030647  -0.001  -0.849261  -0.001408  1.994819  -0.001  -0.611878  -0.817385  -0.001579  2.056862  -0.001
