# generated using pymatgen
data_AgH11C8S(NO)2
_symmetry_space_group_name_H-M   'P 1'
_cell_length_a   7.75206368
_cell_length_b   8.66848407
_cell_length_c   15.29809311
_cell_angle_alpha   89.99990770
_cell_angle_beta   89.99992211
_cell_angle_gamma   111.57787811
_symmetry_Int_Tables_number   1
_chemical_formula_structural   AgH11C8S(NO)2
_chemical_formula_sum   'Ag4 H44 C32 S4 N8 O8'
_cell_volume   955.96655306
_cell_formula_units_Z   4
loop_
 _symmetry_equiv_pos_site_id
 _symmetry_equiv_pos_as_xyz
  1  'x, y, z'
loop_
 _atom_site_type_symbol
 _atom_site_label
 _atom_site_symmetry_multiplicity
 _atom_site_fract_x
 _atom_site_fract_y
 _atom_site_fract_z
 _atom_site_occupancy
 _atom_site_pbe_bader_spin_density
 _atom_site_pbe_cm5_charge
 _atom_site_pbe_ddec_charge
 _atom_site_pbe_ddec_spin_density
 _atom_site_pbe_ddec_sum_bond_order
 _atom_site_pbe_magmom
Ag  Ag0  1  0.24807775  0.32550999  0.69336592  1  0  0.421614  0.476982  0  2.061267  0
Ag  Ag1  1  0.75192817  0.17449597  0.19336494  1  0  0.421591  0.476955  0  2.061255  0
Ag  Ag2  1  0.75192719  0.67449374  0.30663504  1  0  0.421593  0.476953  0  2.061261  0
Ag  Ag3  1  0.24807290  0.82550776  0.80663406  1  0  0.421608  0.476937  0  2.06126  0
H  H4  1  0.62467906  0.58617179  0.48982658  1  0  0.106468  0.161051  0  1.052874  0
H  H5  1  0.37531327  0.91382148  0.98982086  1  0  0.106429  0.160996  0  1.05292  0
H  H6  1  0.37532253  0.41383319  0.51017699  1  0  0.106468  0.161094  0  1.052852  0
H  H7  1  0.62468086  0.08617482  0.01017422  1  0  0.106454  0.161012  0  1.052909  0
H  H8  1  0.35292133  0.75477049  0.55996802  1  0  0.100015  0.086662  0  1.021431  0
H  H9  1  0.64707394  0.74522712  0.05996966  1  0  0.100018  0.086661  0  1.021399  0
H  H10  1  0.64707873  0.24522455  0.44003163  1  0  0.100017  0.086679  0  1.021436  0
H  H11  1  0.35292198  0.25477042  0.94003392  1  0  0.100023  0.08669  0  1.021446  0
H  H12  1  0.25276178  0.80575512  0.46433454  1  0  0.111878  0.093188  0  1.006118  0
H  H13  1  0.74722885  0.69424323  0.96433465  1  0  0.111877  0.093148  0  1.006205  0
H  H14  1  0.74723775  0.19424489  0.53566642  1  0  0.111897  0.093239  0  1.006106  0
H  H15  1  0.25276243  0.30575556  0.03566696  1  0  0.111866  0.093179  0  1.006102  0
H  H16  1  0.94827811  0.33804222  0.73667696  1  0  0.082865  0.043885  0  1.099009  0
H  H17  1  0.05171861  0.16195736  0.23667450  1  0  0.082879  0.043895  0  1.098979  0
H  H18  1  0.05172142  0.66195779  0.26332270  1  0  0.082848  0.043876  0  1.098993  0
H  H19  1  0.94828221  0.83804265  0.76332384  1  0  0.082891  0.04391  0  1.098931  0
H  H20  1  0.71214935  0.25700740  0.70284737  1  0  0.111891  0.093079  0  0.990775  0
H  H21  1  0.28785060  0.24299356  0.20284533  1  0  0.111869  0.093071  0  0.990784  0
H  H22  1  0.28785043  0.74299634  0.29715098  1  0  0.111892  0.093083  0  0.990798  0
H  H23  1  0.71215279  0.75700644  0.79715432  1  0  0.111896  0.09306  0  0.990774  0
H  H24  1  0.64127296  0.45761563  0.80059674  1  0  0.08372  0.116205  0  1.026258  0
H  H25  1  0.35872605  0.04238367  0.30059614  1  0  0.083729  0.116191  0  1.026306  0
H  H26  1  0.35872529  0.54238438  0.19940030  1  0  0.083735  0.116251  0  1.026239  0
H  H27  1  0.64127194  0.95761262  0.69940351  1  0  0.083725  0.116196  0  1.026326  0
H  H28  1  0.87683004  0.53722006  0.83792480  1  0  0.085579  0.128836  0  1.05912  0
H  H29  1  0.12316810  0.96278007  0.33792595  1  0  0.085587  0.128865  0  1.059082  0
H  H30  1  0.12316794  0.46278244  0.16207289  1  0  0.085575  0.128859  0  1.059089  0
H  H31  1  0.87682962  0.03721870  0.66207435  1  0  0.085581  0.128841  0  1.059111  0
H  H32  1  0.73242743  0.32897337  0.85979042  1  0  0.085809  0.128968  0  1.014705  0
H  H33  1  0.26757285  0.17102939  0.35978846  1  0  0.085775  0.128963  0  1.014725  0
H  H34  1  0.26757157  0.67103161  0.14020858  1  0  0.085831  0.12902  0  1.014638  0
H  H35  1  0.73242746  0.82896938  0.64021119  1  0  0.085818  0.128993  0  1.014665  0
H  H36  1  0.18534392  0.02735490  0.54598954  1  0  0.090742  0.139938  0  1.013461  0
H  H37  1  0.81465983  0.47264798  0.04598759  1  0  0.090732  0.139912  0  1.013467  0
H  H38  1  0.81466875  0.97264881  0.45401338  1  0  0.090732  0.139887  0  1.013501  0
H  H39  1  0.18534640  0.52735574  0.95400945  1  0  0.090724  0.139915  0  1.013541  0
H  H40  1  0.42580782  0.06392375  0.55150451  1  0  0.091885  0.135581  0  1.017108  0
H  H41  1  0.57419333  0.43607290  0.05150537  1  0  0.091873  0.135566  0  1.017098  0
H  H42  1  0.57420176  0.93607251  0.44849645  1  0  0.09185  0.135533  0  1.017126  0
H  H43  1  0.42580981  0.56392337  0.94849428  1  0  0.091882  0.135539  0  1.017168  0
H  H44  1  0.28168496  0.97802679  0.64250437  1  0  0.066476  0.085378  0  1.106977  0
H  H45  1  0.71831947  0.52197169  0.14250420  1  0  0.066499  0.085391  0  1.106931  0
H  H46  1  0.71832694  0.02197195  0.35749724  1  0  0.066518  0.085422  0  1.106961  0
H  H47  1  0.28168676  0.47802582  0.85749545  1  0  0.06648  0.085394  0  1.106942  0
C  C48  1  0.03855663  0.59330272  0.63436898  1  0  0.254027  0.308342  0  3.973986  0
C  C49  1  0.96143960  0.90669457  0.13436633  1  0  0.253996  0.308473  0  3.974001  0
C  C50  1  0.96144677  0.40669728  0.36563394  1  0  0.25405  0.308411  0  3.974075  0
C  C51  1  0.03855606  0.09330545  0.86563267  1  0  0.254035  0.308383  0  3.974064  0
C  C52  1  0.70361212  0.48050169  0.60358653  1  0  0.204852  0.474101  0  4.167066  0
C  C53  1  0.29638390  0.01949226  0.10357816  1  0  0.204804  0.474027  0  4.167281  0
C  C54  1  0.29638483  0.51949832  0.39641835  1  0  0.204773  0.473961  0  4.167122  0
C  C55  1  0.70361048  0.98050155  0.89641496  1  0  0.204796  0.473939  0  4.167222  0
C  C56  1  0.73839490  0.58540219  0.53102253  1  0  -0.151699  -0.492049  0  4.015677  0
C  C57  1  0.26159869  0.91459431  0.03102232  1  0  -0.151674  -0.492025  0  4.015908  0
C  C58  1  0.26160592  0.41459782  0.46897647  1  0  -0.151699  -0.492142  0  4.015799  0
C  C59  1  0.73839877  0.08540695  0.96897734  1  0  -0.151672  -0.491987  0  4.015844  0
C  C60  1  0.91702665  0.68403554  0.50429491  1  0  0.199963  0.464747  0  4.176737  0
C  C61  1  0.08295960  0.81595241  0.00428510  1  0  0.199947  0.464794  0  4.177058  0
C  C62  1  0.08296619  0.31595456  0.49571455  1  0  0.199918  0.464743  0  4.177176  0
C  C63  1  0.91702242  0.18403647  0.99570671  1  0  0.199963  0.464797  0  4.176888  0
C  C64  1  0.25168287  0.80535543  0.53585522  1  0  -0.071252  -0.014937  0  3.902975  0
C  C65  1  0.74831122  0.69464229  0.03585488  1  0  -0.071339  -0.01498  0  3.903059  0
C  C66  1  0.74831872  0.19464333  0.46414574  1  0  -0.071281  -0.015044  0  3.903128  0
C  C67  1  0.25168471  0.30535525  0.96414543  1  0  -0.071289  -0.014998  0  3.902992  0
C  C68  1  0.82409098  0.36805098  0.72676987  1  0  -0.068768  0.004791  0  3.900507  0
C  C69  1  0.17591171  0.13194739  0.22676670  1  0  -0.068718  0.004891  0  3.900565  0
C  C70  1  0.17591164  0.63195027  0.27323175  1  0  -0.068722  0.004846  0  3.900538  0
C  C71  1  0.82408988  0.86805137  0.77323229  1  0  -0.068754  0.004859  0  3.900477  0
C  C72  1  0.76615012  0.42860976  0.81090714  1  0  -0.252999  -0.379948  0  3.895165  0
C  C73  1  0.23384831  0.07139447  0.31090530  1  0  -0.253042  -0.380018  0  3.895235  0
C  C74  1  0.23384786  0.57139274  0.18909251  1  0  -0.253075  -0.380133  0  3.895147  0
C  C75  1  0.76615302  0.92860678  0.68909435  1  0  -0.253043  -0.380015  0  3.895215  0
C  C76  1  0.28769938  0.97842344  0.57082616  1  0  -0.254554  -0.379323  0  3.911262  0
C  C77  1  0.71230021  0.52157535  0.07082534  1  0  -0.25454  -0.379249  0  3.911151  0
C  C78  1  0.71230839  0.02157779  0.42917611  1  0  -0.254564  -0.379244  0  3.911307  0
C  C79  1  0.28770189  0.47842465  0.92917431  1  0  -0.25452  -0.379259  0  3.911279  0
S  S80  1  0.22771778  0.60737284  0.69881615  1  0  -0.191707  -0.403668  0  2.958547  0
S  S81  1  0.77228356  0.89262788  0.19881561  1  0  -0.191695  -0.403664  0  2.958516  0
S  S82  1  0.77228613  0.39262840  0.30118546  1  0  -0.191696  -0.403679  0  2.958561  0
S  S83  1  0.22771571  0.10737461  0.80118404  1  0  -0.191713  -0.403669  0  2.958512  0
N  N84  1  0.06583879  0.68837599  0.56115326  1  0  -0.233871  -0.121669  0  3.573899  0
N  N85  1  0.93415827  0.81162285  0.06115072  1  0  -0.233845  -0.121796  0  3.573985  0
N  N86  1  0.93416280  0.31162277  0.43884966  1  0  -0.2339  -0.121749  0  3.573978  0
N  N87  1  0.06584048  0.18837840  0.93884762  1  0  -0.233859  -0.121704  0  3.573965  0
N  N88  1  0.86388560  0.48808934  0.65408819  1  0  -0.233862  -0.125777  0  3.558964  0
N  N89  1  0.13611380  0.01191308  0.15408647  1  0  -0.233854  -0.125914  0  3.559012  0
N  N90  1  0.13611856  0.51191562  0.34591277  1  0  -0.233888  -0.125773  0  3.559019  0
N  N91  1  0.86388444  0.98808694  0.84591187  1  0  -0.233877  -0.125799  0  3.558968  0
O  O92  1  0.54854124  0.37784482  0.62735495  1  0  -0.325621  -0.519125  0  2.31957  0
O  O93  1  0.45146060  0.12215399  0.12734507  1  0  -0.32565  -0.519113  0  2.319415  0
O  O94  1  0.45146111  0.62216512  0.37265385  1  0  -0.325598  -0.519007  0  2.319267  0
O  O95  1  0.54854099  0.87784478  0.87264804  1  0  -0.325584  -0.518996  0  2.31956  0
O  O96  1  0.95846235  0.76845719  0.43490712  1  0  -0.313414  -0.505229  0  2.295181  0
O  O97  1  0.04152995  0.73154502  0.93490768  1  0  -0.313289  -0.505059  0  2.295615  0
O  O98  1  0.04153718  0.23154903  0.56509122  1  0  -0.313309  -0.505097  0  2.295733  0
O  O99  1  0.95846210  0.26845874  0.06509197  1  0  -0.313398  -0.505195  0  2.295165  0
