# generated using pymatgen
data_Zn2H15C28S3N2O17F3
_symmetry_space_group_name_H-M   'P 1'
_cell_length_a   9.71366151
_cell_length_b   10.99841964
_cell_length_c   10.98776142
_cell_angle_alpha   90.87532596
_cell_angle_beta   94.34460268
_cell_angle_gamma   89.37792557
_symmetry_Int_Tables_number   1
_chemical_formula_structural   Zn2H15C28S3N2O17F3
_chemical_formula_sum   'Zn2 H15 C28 S3 N2 O17 F3'
_cell_volume   1170.31151251
_cell_formula_units_Z   1
loop_
 _symmetry_equiv_pos_site_id
 _symmetry_equiv_pos_as_xyz
  1  'x, y, z'
loop_
 _atom_site_type_symbol
 _atom_site_label
 _atom_site_symmetry_multiplicity
 _atom_site_fract_x
 _atom_site_fract_y
 _atom_site_fract_z
 _atom_site_occupancy
 _atom_site_pbe_bader_charge
 _atom_site_pbe_bader_spin_density
 _atom_site_pbe_cm5_charge
 _atom_site_pbe_ddec_charge
 _atom_site_pbe_ddec_spin_density
 _atom_site_pbe_ddec_sum_bond_order
 _atom_site_pbe_magmom
Zn  Zn0  1  0.64063046  0.49367105  0.50852599  1  1.292929  0  0.679752  0.827605  0  2.394087  0
Zn  Zn1  1  0.34936889  0.49622136  0.50111666  1  1.277506  0  0.678957  0.825711  0  2.419566  0
H  H2  1  0.83127629  0.11646672  0.55517407  1  0.10227  0  0.098285  0.117038  0  1.018545  0
H  H3  1  0.79083941  0.89365601  0.38516744  1  0.065218  0  0.112924  0.117055  0  0.975391  0
H  H4  1  0.13926328  0.36866578  0.64838232  1  0.171301  0  0.13606  0.124883  0  0.968019  0
H  H5  1  0.88127785  0.35602053  0.63951601  1  0.124699  0  0.125863  0.10223  0  1.012681  0
H  H6  1  0.85341645  0.58169369  0.22467855  1  0.06378  0  0.108473  0.131443  0  0.965643  0
H  H7  1  0.82993549  0.70582370  0.32854011  1  0.103401  0  0.104575  0.125156  0  1.010213  0
H  H8  1  0.11223945  0.61660985  0.24418810  1  0.103034  0  0.10393  0.132121  0  0.992892  0
H  H9  1  0.08925299  0.73245547  0.35795971  1  0.135403  0  0.111958  0.139656  0  0.970263  0
H  H10  1  0.79413577  0.15131374  0.11071055  1  0.100094  0  0.118926  0.147451  0  0.988059  0
H  H11  1  0.73503188  0.38964749  0.79968787  1  0.14909  0  0.116573  0.131599  0  1.03574  0
H  H12  1  0.28254193  0.87879764  0.54879931  1  0.162619  0  0.114887  0.154075  0  0.997067  0
H  H13  1  0.77395340  0.12004260  0.39739821  1  0.07625  0  0.097801  0.117565  0  0.980637  0
H  H14  1  0.87775831  0.99155434  0.73142819  1  0.6544  0  0.317155  0.387712  0  0.938177  0
H  H15  1  0.07284186  0.15614488  0.03029743  1  0.652683  0  0.368506  0.417696  0  0.813981  0
H  H16  1  0.31543079  0.80545755  0.04301809  1  0.660526  0  0.33487  0.39125  0  0.874328  0
C  C17  1  0.49446968  0.72820837  0.49125540  1  1.592524  0  0.218544  0.594641  0  4.170698  0
C  C18  1  0.56958427  0.39326295  0.06606540  1  0.044077  0  0.003196  -0.01872  0  3.960155  0
C  C19  1  0.47739526  0.46861632  0.12946908  1  0.110941  0  -0.015212  -0.155003  0  3.931369  0
C  C20  1  0.41333600  0.56342944  0.06627069  1  0.420846  0  0.111889  0.264802  0  4.01716  0
C  C21  1  0.43292667  0.58939752  0.94345190  1  -0.126334  0  -0.016477  -0.218002  0  3.955396  0
C  C22  1  0.52170376  0.51673930  0.88053903  1  0.073665  0  0.019947  -0.006874  0  3.850304  0
C  C23  1  0.61658324  0.93255060  0.50327441  1  0.049029  0  -0.014117  0.015731  0  3.889819  0
C  C24  1  0.49790554  0.86294073  0.50995095  1  -0.002704  0  -0.001619  -0.017175  0  3.943024  0
C  C25  1  0.37797226  0.92717607  0.53756549  1  0.037523  0  -0.088141  -0.217528  0  3.930414  0
C  C26  1  0.37857699  0.05322864  0.55244199  1  0.465563  0  0.112363  0.287764  0  4.009247  0
C  C27  1  0.49485138  0.12591171  0.53720375  1  0.000633  0  -0.021556  -0.186735  0  3.957168  0
C  C28  1  0.47114113  0.46585919  0.26651548  1  1.644146  0  0.211029  0.604555  0  4.221155  0
C  C29  1  0.61307613  0.05899190  0.51437252  1  -0.049541  0  -0.003852  0.091234  0  3.912333  0
C  C30  1  0.76106333  0.07468216  0.48409895  1  -0.059734  0  -0.150959  -0.218788  0  3.868985  0
C  C31  1  0.76720441  0.93125897  0.47453447  1  -0.072737  0  -0.06853  -0.194649  0  3.829621  0
C  C32  1  0.05732295  0.54972933  0.42370272  1  0.605289  0  0.149278  0.207622  0  3.856967  0
C  C33  1  0.07494883  0.41996492  0.58141504  1  0.48547  0  0.072938  0.066166  0  3.828276  0
C  C34  1  0.93150138  0.41288243  0.57632423  1  0.475437  0  0.065731  0.057489  0  3.851541  0
C  C35  1  0.91419729  0.53963786  0.41653396  1  0.537595  0  0.148247  0.209929  0  3.868866  0
C  C36  1  0.89297234  0.62537105  0.31061538  1  -0.032825  0  -0.14078  -0.227228  0  3.823595  0
C  C37  1  0.05605622  0.64229150  0.32364702  1  -0.057103  0  -0.140209  -0.232375  0  3.808564  0
C  C38  1  0.49303907  0.26127770  0.53443046  1  1.585727  0  0.215406  0.619318  0  4.174959  0
C  C39  1  0.52204531  0.52174064  0.74276864  1  1.62708  0  0.218646  0.58694  0  4.210178  0
C  C40  1  0.63723760  0.28858802  0.11766143  1  0.493444  0  0.110053  0.26241  0  4.02436  0
C  C41  1  0.74374294  0.22903088  0.06562105  1  0.080212  0  -0.097019  -0.233027  0  4.01461  0
C  C42  1  0.78220429  0.27065161  0.95236262  1  -0.228147  0  -0.017137  -0.070345  0  4.037037  0
C  C43  1  0.70835651  0.36033973  0.88897303  1  0.040449  0  -0.07382  -0.126009  0  3.908096  0
C  C44  1  0.59952978  0.42225257  0.94374688  1  0.034994  0  0.009544  0.07804  0  3.92215  0
S  S45  1  0.89970094  0.86604916  0.57989024  1  3.029365  0  0.534637  1.170117  0  5.970706  0
S  S46  1  0.93033530  0.21294874  0.88524228  1  3.052321  0  0.563293  1.171453  0  5.95443  0
S  S47  1  0.34372333  0.71729169  0.87225522  1  3.063524  0  0.543336  1.169943  0  5.986959  0
N  N48  1  0.14065775  0.49142083  0.50471016  1  -1.225567  0  -0.29134  -0.182594  0  3.469803  0
N  N49  1  0.84763730  0.47473661  0.49364549  1  -1.210237  0  -0.294512  -0.188351  0  3.475611  0
O  O50  1  0.60962777  0.67531641  0.47852340  1  -1.156325  0  -0.307136  -0.527009  0  2.342534  0
O  O51  1  0.37720658  0.67684949  0.48911352  1  -1.149513  0  -0.311379  -0.531842  0  2.334467  0
O  O52  1  0.58942176  0.46594097  0.32409629  1  -1.152671  0  -0.31167  -0.551389  0  2.363999  0
O  O53  1  0.35453029  0.47047198  0.31005334  1  -1.146206  0  -0.312029  -0.537025  0  2.296285  0
O  O54  1  0.61008432  0.31374740  0.54851695  1  -1.164556  0  -0.316819  -0.551123  0  2.304306  0
O  O55  1  0.37688863  0.31375833  0.51366887  1  -1.147922  0  -0.313757  -0.542036  0  2.367533  0
O  O56  1  0.63548145  0.53379419  0.69501218  1  -1.148769  0  -0.299101  -0.508868  0  2.296744  0
O  O57  1  0.40368045  0.50384934  0.68947285  1  -1.14295  0  -0.299792  -0.530119  0  2.329183  0
O  O58  1  0.89407281  0.73561038  0.57708112  1  -1.25521  0  -0.303643  -0.520971  0  2.211706  0
O  O59  1  0.02644117  0.92567315  0.55544090  1  -1.301974  0  -0.325194  -0.563356  0  2.155781  0
O  O60  1  0.85324418  0.90574976  0.71025135  1  -1.223469  0  -0.359682  -0.522653  0  2.18336  0
O  O61  1  0.88648127  0.14193563  0.77793109  1  -1.306101  0  -0.285005  -0.521649  0  2.236326  0
O  O62  1  0.02760439  0.30917361  0.87447108  1  -1.279551  0  -0.298872  -0.525279  0  2.105433  0
O  O63  1  0.99406917  0.11754956  0.98451116  1  -1.201968  0  -0.347109  -0.520536  0  2.124512  0
O  O64  1  0.41828455  0.75678326  0.77314825  1  -1.273864  0  -0.276046  -0.46932  0  2.184081  0
O  O65  1  0.19873775  0.69151943  0.86063778  1  -1.243446  0  -0.305889  -0.512246  0  2.09428  0
O  O66  1  0.37244341  0.82222927  0.97534623  1  -1.198354  0  -0.369601  -0.539756  0  2.135252  0
F  F67  1  0.32956340  0.64019876  0.12708119  1  -0.639046  0  -0.075678  -0.1322  0  1.39909  0
F  F68  1  0.59410469  0.24238178  0.22189140  1  -0.624741  0  -0.083434  -0.115907  0  1.369575  0
F  F69  1  0.25973046  0.10693994  0.58391592  1  -0.623495  0  -0.100456  -0.131713  0  1.361944  0
