# generated using pymatgen
data_CuH18PtC18(N3O)2
_symmetry_space_group_name_H-M   'P 1'
_cell_length_a   8.16291457
_cell_length_b   8.31845059
_cell_length_c   8.92898316
_cell_angle_alpha   116.29879912
_cell_angle_beta   107.64262045
_cell_angle_gamma   95.87909137
_symmetry_Int_Tables_number   1
_chemical_formula_structural   CuH18PtC18(N3O)2
_chemical_formula_sum   'Cu1 H18 Pt1 C18 N6 O2'
_cell_volume   497.70329584
_cell_formula_units_Z   1
loop_
 _symmetry_equiv_pos_site_id
 _symmetry_equiv_pos_as_xyz
  1  'x, y, z'
loop_
 _atom_site_type_symbol
 _atom_site_label
 _atom_site_symmetry_multiplicity
 _atom_site_fract_x
 _atom_site_fract_y
 _atom_site_fract_z
 _atom_site_occupancy
 _atom_site_hle17_ddec_charge
 _atom_site_hle17_ddec_spin_density
 _atom_site_hle17_ddec_sum_bond_order
 _atom_site_hle17_magmom
 _atom_site_hse06_10hf_ddec_charge
 _atom_site_hse06_10hf_ddec_spin_density
 _atom_site_hse06_10hf_ddec_sum_bond_order
 _atom_site_hse06_10hf_magmom
 _atom_site_hse06_ddec_charge
 _atom_site_hse06_ddec_spin_density
 _atom_site_hse06_ddec_sum_bond_order
 _atom_site_hse06_magmom
 _atom_site_pbe_cm5_charge
 _atom_site_pbe_ddec_charge
 _atom_site_pbe_ddec_spin_density
 _atom_site_pbe_ddec_sum_bond_order
 _atom_site_pbe_magmom
Cu  Cu0  1  0.49999873  0.99999956  0.49999873  1  0.88453  0.730059  1.95677  0.545  0.848092  0.790761  2.3536  0.642  0.922373  0.854444  2.298604  0.722  0.818131  0.802627  0.744456  2.392482  0.588
H  H1  1  0.20310988  0.66771298  0.39921631  1  0.371059  2.6e-05  0.936691  0.0  0.343683  -1.2e-05  1.010441  0.0  0.355111  -1.3e-05  0.993785  0.0  0.288794  0.335794  1e-06  1.021909  0.0
H  H2  1  0.79689073  0.33228899  0.60078658  1  0.37102  2.7e-05  0.93669  0.0  0.343644  -1.2e-05  1.010483  0.0  0.355073  -1.3e-05  0.993826  0.0  0.288786  0.335755  1e-06  1.021953  0.0
H  H3  1  0.13528733  0.77006782  0.65847117  1  0.035899  0.000254  0.938721  0.0  0.048752  9.2e-05  1.008144  0.0  0.049017  3.2e-05  1.007998  0.0  0.090044  0.048723  0.00019  1.008128  0.0
H  H4  1  0.86471253  0.22993138  0.34152812  1  0.03591  0.000251  0.93868  0.0  0.048764  9.2e-05  1.008105  0.0  0.049031  3.2e-05  1.007959  0.0  0.09004  0.048734  0.00019  1.008091  0.0
H  H5  1  0.05953774  0.89495454  0.54557149  1  0.034269  0.000124  0.925774  0.0  0.049383  8e-05  0.989859  0.0  0.05003  3.4e-05  0.989603  0.0  0.088352  0.048897  0.000151  0.990159  0.0
H  H6  1  0.94046249  0.10504603  0.45443072  1  0.034274  0.000128  0.925744  0.0  0.049393  8e-05  0.989828  0.0  0.05004  3.4e-05  0.989571  0.0  0.088359  0.048907  0.000151  0.99013  0.0
H  H7  1  0.24850470  0.08281689  0.89302001  1  0.073433  -0.000212  0.995781  0.0  0.073685  -0.000101  1.087852  0.0  0.076921  -8e-05  1.083911  0.0  0.078635  0.071407  -0.000111  1.090598  0.0
H  H8  1  0.75149682  0.91718368  0.10698255  1  0.07344  -0.000211  0.995797  0.0  0.073704  -0.000101  1.087862  0.0  0.07694  -8e-05  1.083921  0.0  0.078643  0.071427  -0.000111  1.090616  0.0
H  H9  1  0.43490458  0.02523278  0.83971450  1  0.105806  -0.000229  0.926844  0.0  0.124655  -1.9e-05  0.98048  0.0  0.12526  -8.9e-05  0.981428  0.0  0.102816  0.124317  5.1e-05  0.979765  0.0
H  H10  1  0.56509437  0.97476780  0.16028736  1  0.105819  -0.000237  0.926828  0.0  0.124674  -1.9e-05  0.980468  0.0  0.12528  -8.9e-05  0.981415  0.0  0.102816  0.124335  5.1e-05  0.979751  0.0
H  H11  1  0.20138073  0.36351935  0.93781091  1  0.115423  0.000895  0.957554  0.001  0.123061  0.000704  1.019288  0.001  0.124734  0.000474  1.020661  0.001  0.105889  0.121866  0.000904  1.018482  0.001
H  H12  1  0.79861747  0.63647846  0.06218622  1  0.115434  0.000892  0.957574  0.001  0.123088  0.000704  1.019292  0.001  0.124762  0.000475  1.020664  0.001  0.105885  0.121894  0.000904  1.018487  0.001
H  H13  1  0.24736227  0.64004510  0.89834943  1  0.096484  0.000473  0.947764  0.001  0.107212  1.7e-05  1.006543  0.0  0.108295  -7.5e-05  1.006325  0.0  0.107039  0.106464  0.000133  1.006724  0.0
H  H14  1  0.75263668  0.35995550  0.10165019  1  0.096489  0.000472  0.947823  0.001  0.107216  1.7e-05  1.006597  0.0  0.108298  -7.5e-05  1.006381  0.0  0.107048  0.106471  0.000133  1.006776  0.0
H  H15  1  0.40426791  0.63869154  0.69228650  1  0.112033  0.000678  0.956612  0.001  0.12151  0.000572  1.015076  0.001  0.123909  0.000392  1.015167  0.0  0.108628  0.119713  0.000729  1.015276  0.001
H  H16  1  0.59573489  0.36130904  0.30771418  1  0.112053  0.000681  0.956603  0.001  0.121527  0.000572  1.01506  0.001  0.123928  0.000392  1.015157  0.0  0.108631  0.119727  0.000729  1.015261  0.001
H  H17  1  0.50374813  0.35743790  0.53847428  1  0.084543  0.001485  0.961512  0.002  0.088976  0.001066  1.030895  0.002  0.089952  0.000682  1.029563  0.001  0.119612  0.088141  0.001388  1.031993  0.002
H  H18  1  0.49625302  0.64256129  0.46152536  1  0.0845  0.001485  0.961487  0.002  0.088931  0.001065  1.030884  0.002  0.089907  0.000682  1.02955  0.001  0.11958  0.088095  0.001388  1.031981  0.002
Pt  Pt19  1  0.00000121  0.00000162  0.99999700  1  0.085247  0.001641  4.122392  0.007  0.130266  0.000475  4.672564  0.004  0.116753  -0.001289  4.645924  0.003  0.560602  0.140857  0.00255  4.690158  0.005
C  C20  1  0.07600135  0.27571866  0.15143677  1  0.055674  -0.000522  3.651587  0.0  0.024087  -0.000263  4.003418  0.0  0.034782  -0.000348  4.011507  0.0  -0.010327  0.016567  -0.00016  3.997883  0.0
C  C21  1  0.92399980  0.72428055  0.84856064  1  0.05572  -0.0005  3.651737  0.0  0.02414  -0.000263  4.003561  0.0  0.034833  -0.000347  4.01165  0.0  -0.010288  0.016623  -0.00016  3.998031  0.0
C  C22  1  0.20093763  0.98409778  0.17790867  1  0.119984  -0.019525  3.573076  -0.005  0.096331  -0.004476  3.911966  0.004  0.115891  -0.007046  3.915098  0.001  0.014814  0.082586  -0.00232  3.910533  0.006
C  C23  1  0.79905875  0.01590283  0.82208913  1  0.11999  -0.019524  3.57313  -0.005  0.096339  -0.004474  3.912013  0.004  0.115899  -0.007044  3.915145  0.001  0.014816  0.082596  -0.00232  3.910585  0.006
C  C24  1  0.18048854  0.86873749  0.61828196  1  0.171555  -0.000865  3.655252  -0.001  0.117861  -0.000364  3.930817  0.0  0.125431  -0.000396  3.935896  0.0  -0.077239  0.112703  -0.000296  3.926968  0.0
C  C25  1  0.81951298  0.13126307  0.38172172  1  0.171532  -0.000868  3.65519  -0.001  0.117831  -0.000364  3.93077  0.0  0.125401  -0.000395  3.935849  0.0  -0.07724  0.112676  -0.000296  3.926923  0.0
C  C26  1  0.30473065  0.05001356  0.78883415  1  -0.236634  0.001946  3.715852  0.003  -0.282405  0.001251  3.973056  0.002  -0.286664  0.000719  3.984722  0.002  -0.168346  -0.279336  0.001747  3.964821  0.002
C  C27  1  0.69526921  0.94998564  0.21116626  1  -0.236656  0.001948  3.715889  0.003  -0.282465  0.00125  3.97308  0.002  -0.286727  0.00072  3.984749  0.002  -0.168356  -0.279395  0.001747  3.964849  0.002
C  C28  1  0.33074304  0.21561361  0.76251027  1  0.270449  -0.011088  3.685275  -0.007  0.275945  -0.001288  3.933197  0.0  0.285805  -0.003284  3.955479  -0.002  0.125617  0.269473  0.000224  3.918  0.001
C  C29  1  0.66925645  0.78438421  0.23748611  1  0.270511  -0.011077  3.685282  -0.007  0.276085  -0.001288  3.933124  0.0  0.285947  -0.003284  3.955403  -0.002  0.125642  0.269609  0.000224  3.917929  0.001
C  C30  1  0.26866579  0.36744508  0.85064296  1  -0.163045  0.014047  3.686413  0.015  -0.178463  0.004997  3.928769  0.006  -0.187953  0.004263  3.952191  0.005  -0.082149  -0.172227  0.005781  3.913  0.007
C  C31  1  0.73133316  0.63255552  0.14935554  1  -0.163144  0.014052  3.686415  0.015  -0.178604  0.004997  3.928767  0.006  -0.188094  0.004261  3.952185  0.005  -0.082153  -0.172366  0.00578  3.913001  0.007
C  C32  1  0.29507177  0.52219638  0.82866106  1  0.019124  -0.017327  3.723396  -0.011  -0.00145  -0.005218  3.973084  -0.003  0.003764  -0.005718  3.992197  -0.003  -0.063441  -0.004781  -0.004907  3.960028  -0.003
C  C33  1  0.70492863  0.47780003  0.17133721  1  0.019237  -0.017324  3.723185  -0.011  -0.001332  -0.005219  3.972856  -0.003  0.003883  -0.005718  3.991969  -0.003  -0.063396  -0.004666  -0.004908  3.959806  -0.003
C  C34  1  0.38153606  0.52218710  0.71598934  1  -0.124405  0.012858  3.723253  0.014  -0.136484  0.004257  3.973599  0.005  -0.145712  0.003721  3.996856  0.005  -0.084639  -0.130448  0.004884  3.957949  0.006
C  C35  1  0.61846492  0.47781627  0.28401312  1  -0.12451  0.012842  3.723258  0.014  -0.136582  0.004257  3.973607  0.005  -0.145815  0.00372  3.996871  0.005  -0.084686  -0.130544  0.004883  3.957955  0.006
C  C36  1  0.43728237  0.36646059  0.62956092  1  0.134514  -0.015015  3.693844  -0.01  0.104755  -0.003303  3.953851  -0.002  0.113724  -0.005178  3.975147  -0.004  0.047258  0.099077  -0.001842  3.939325  -0.001
C  C37  1  0.56271471  0.63353303  0.37043527  1  0.13456  -0.015014  3.693827  -0.01  0.104794  -0.003302  3.953851  -0.002  0.113763  -0.005179  3.975147  -0.004  0.047272  0.099117  -0.001841  3.939322  -0.001
N  N38  1  0.11808748  0.43885992  0.23720178  1  -0.413533  0.00035  2.858127  0.0  -0.363439  0.000129  3.108712  0.0  -0.377908  7.8e-05  3.120081  0.0  -0.341153  -0.353671  0.000199  3.101111  0.0
N  N39  1  0.88191500  0.56114902  0.76280565  1  -0.41356  0.000335  2.858332  0.0  -0.363473  0.000129  3.108928  0.0  -0.377941  7.8e-05  3.120295  0.0  -0.341196  -0.353704  0.000199  3.101331  0.0
N  N40  1  0.32114523  0.97627513  0.28382501  1  -0.423558  0.061516  3.168731  0.078  -0.387922  0.041931  3.488747  0.055  -0.412959  0.036088  3.49447  0.05  -0.394954  -0.373086  0.045006  3.48648  0.057
N  N41  1  0.67885426  0.02372268  0.71617248  1  -0.423559  0.061514  3.168814  0.078  -0.387919  0.041929  3.488825  0.055  -0.412957  0.036086  3.494548  0.05  -0.394956  -0.373082  0.045006  3.486561  0.057
N  N42  1  0.41380264  0.21778099  0.65280546  1  -0.321252  0.105359  3.237564  0.136  -0.283967  0.065966  3.521319  0.092  -0.317234  0.051164  3.546671  0.077  -0.327295  -0.262624  0.0757  3.504629  0.101
N  N43  1  0.58619594  0.78221821  0.34719348  1  -0.321307  0.105362  3.237486  0.136  -0.284048  0.065967  3.521233  0.092  -0.317316  0.051165  3.546583  0.077  -0.327326  -0.262702  0.075701  3.504541  0.101
O  O44  1  0.27636502  0.79342062  0.50632574  1  -0.602714  -0.001081  2.191423  0.001  -0.554961  -0.001636  2.444032  0.0  -0.573771  -0.001997  2.42688  -0.001  -0.41733  -0.541322  -0.000955  2.455628  0.0
O  O45  1  0.72363559  0.20658136  0.49367603  1  -0.602637  -0.00108  2.191457  0.001  -0.554871  -0.001636  2.444037  0.0  -0.573683  -0.001997  2.426887  -0.001  -0.417279  -0.541227  -0.000955  2.455628  0.0
