# generated using pymatgen
data_Zn2H22C28(N2O3)3
_symmetry_space_group_name_H-M   'P 1'
_cell_length_a   11.04093900
_cell_length_b   11.50495743
_cell_length_c   12.20730000
_cell_angle_alpha   93.59623133
_cell_angle_beta   107.08254366
_cell_angle_gamma   106.29606668
_symmetry_Int_Tables_number   1
_chemical_formula_structural   Zn2H22C28(N2O3)3
_chemical_formula_sum   'Zn4 H44 C56 N12 O18'
_cell_volume   1404.76225440
_cell_formula_units_Z   2
loop_
 _symmetry_equiv_pos_site_id
 _symmetry_equiv_pos_as_xyz
  1  'x, y, z'
loop_
 _atom_site_type_symbol
 _atom_site_label
 _atom_site_symmetry_multiplicity
 _atom_site_fract_x
 _atom_site_fract_y
 _atom_site_fract_z
 _atom_site_occupancy
 _atom_site_hle17_bader_spin_density
 _atom_site_hle17_ddec_charge
 _atom_site_hle17_ddec_spin_density
 _atom_site_hle17_ddec_sum_bond_order
 _atom_site_hle17_magmom
 _atom_site_hse06_10hf_bader_spin_density
 _atom_site_hse06_10hf_ddec_charge
 _atom_site_hse06_10hf_ddec_spin_density
 _atom_site_hse06_10hf_ddec_sum_bond_order
 _atom_site_hse06_10hf_magmom
 _atom_site_hse06_bader_spin_density
 _atom_site_hse06_ddec_charge
 _atom_site_hse06_ddec_spin_density
 _atom_site_hse06_ddec_sum_bond_order
 _atom_site_hse06_magmom
 _atom_site_pbe_bader_charge
 _atom_site_pbe_bader_spin_density
 _atom_site_pbe_cm5_charge
 _atom_site_pbe_ddec_charge
 _atom_site_pbe_ddec_spin_density
 _atom_site_pbe_ddec_sum_bond_order
 _atom_site_pbe_magmom
Zn  Zn0  1  0.68544693  0.25007545  0.03995830  1  0  1.060474  0  1.831004  0  0  0.877071  0  2.30432  0  0  0.924652  0  2.247667  0  1.315076  0  0.703023  0.843767  0  2.343386  0
Zn  Zn1  1  0.31455412  0.74992646  0.96004316  1  0  1.060475  0  1.830992  0  0  0.877072  0  2.304309  0  0  0.924646  0  2.247656  0  1.315042  0  0.703046  0.843765  0  2.343374  0
Zn  Zn2  1  0.74722087  0.01389257  0.77902170  1  0  1.042592  0  1.800701  0  0  0.86122  0  2.260302  0  0  0.910152  0  2.204454  0  1.299749  0  0.683832  0.827107  0  2.298351  0
Zn  Zn3  1  0.25277798  0.98610567  0.22097732  1  0  1.042615  0  1.800638  0  0  0.861215  0  2.260227  0  0  0.910151  0  2.204382  0  1.299694  0  0.68383  0.827104  0  2.298274  0
H  H4  1  0.94862082  0.10716484  0.99115733  1  0  0.422086  0  0.886795  0  0  0.387389  0  0.956129  0  0  0.399632  0  0.938455  0  0.666097  0  0.286488  0.378779  0  0.968531  0
H  H5  1  0.05137835  0.89283432  0.00884101  1  0  0.422123  0  0.886743  0  0  0.387408  0  0.956111  0  0  0.399652  0  0.938437  0  0.666098  0  0.286486  0.378796  0  0.968515  0
H  H6  1  0.99219141  0.03943535  0.89578196  1  0  0.431567  0  0.838852  0  0  0.40421  0  0.908488  0  0  0.413688  0  0.897084  0  0.617596  0  0.307885  0.397414  0  0.916339  0
H  H7  1  0.00780775  0.96056381  0.10421802  1  0  0.431563  0  0.838847  0  0  0.404203  0  0.908483  0  0  0.41368  0  0.897092  0  0.617558  0  0.307877  0.397407  0  0.916334  0
H  H8  1  0.07727783  0.53042604  0.94093886  1  0  0.07851  0  0.983569  0  0  0.086175  0  1.051974  0  0  0.088456  0  1.05007  0  0.120878  0  0.113947  0.084501  0  1.05334  0
H  H9  1  0.92272228  0.46957588  0.05906235  1  0  0.078536  0  0.983551  0  0  0.086201  0  1.051952  0  0  0.088483  0  1.050046  0  0.120907  0  0.11397  0.084527  0  1.053317  0
H  H10  1  0.03755717  0.32264277  0.00469081  1  0  0.113931  0  0.976969  0  0  0.120074  0  1.042258  0  0  0.123622  0  1.040733  0  0.101337  0  0.10685  0.117557  0  1.043376  0
H  H11  1  0.96244294  0.67735914  0.99531040  1  0  0.113908  0  0.97702  0  0  0.120065  0  1.042297  0  0  0.12361  0  1.040767  0  0.101325  0  0.106862  0.117548  0  1.043414  0
H  H12  1  0.23599007  0.26396344  0.11705594  1  0  0.119268  0  0.941475  0  0  0.126995  0  1.00206  0  0  0.130731  0  0.998657  0  0.129019  0  0.111415  0.124184  0  1.004682  0
H  H13  1  0.76400972  0.73603756  0.88294349  1  0  0.11927  0  0.941517  0  0  0.126999  0  1.00209  0  0  0.130735  0  0.998688  0  0.129001  0  0.111431  0.12419  0  1.004713  0
H  H14  1  0.46448793  0.41780064  0.16652597  1  0  0.126179  0  0.978938  0  0  0.136184  0  1.03677  0  0  0.139901  0  1.035405  0  0.146143  0  0.108341  0.133534  0  1.037844  0
H  H15  1  0.53551029  0.58219852  0.83347047  1  0  0.126138  0  0.978966  0  0  0.136172  0  1.036767  0  0  0.139888  0  1.035403  0  0.146123  0  0.108337  0.133522  0  1.03784  0
H  H16  1  0.68230295  0.58652642  0.21402071  1  0  0.151588  0  0.966301  0  0  0.160111  0  1.025114  0  0  0.164125  0  1.023132  0  0.167488  0  0.111679  0.157274  0  1.026597  0
H  H17  1  0.31769684  0.41347458  0.78597626  1  0  0.1517  0  0.966244  0  0  0.160141  0  1.025139  0  0  0.164155  0  1.023159  0  0.16762  0  0.111691  0.157305  0  1.02662  0
H  H18  1  0.82893228  0.82735636  0.21085474  1  0  0.133165  0  0.967461  0  0  0.142235  0  1.030526  0  0  0.145799  0  1.027019  0  0.146186  0  0.127871  0.139535  0  1.033154  0
H  H19  1  0.17106815  0.17264372  0.78914316  1  0  0.133146  0  0.967507  0  0  0.142217  0  1.03057  0  0  0.14578  0  1.027064  0  0.146216  0  0.127877  0.139515  0  1.033193  0
H  H20  1  0.76172736  0.00997187  0.15707573  1  0  0.131108  0  0.92463  0  0  0.143131  0  0.985924  0  0  0.144824  0  0.985668  0  0.121592  0  0.13003  0.141879  0  0.986224  0
H  H21  1  0.23827117  0.99002821  0.84292413  1  0  0.13108  0  0.924633  0  0  0.143123  0  0.985929  0  0  0.144806  0  0.98567  0  0.121292  0  0.13002  0.141871  0  0.986229  0
H  H22  1  0.58981064  0.99279883  0.10955519  1  0  0.13669  0  0.935941  0  0  0.144524  0  1.001432  0  0  0.14777  0  0.999296  0  0.141426  0  0.124323  0.142158  0  1.003069  0
H  H23  1  0.41018821  0.00719941  0.89044792  1  0  0.136747  0  0.935865  0  0  0.144562  0  1.001384  0  0  0.147803  0  0.999237  0  0.141498  0  0.124334  0.142197  0  1.003021  0
H  H24  1  0.95200016  0.26415145  0.79903860  1  0  0.088844  0  0.950267  0  0  0.096376  0  1.015532  0  0  0.099067  0  1.012937  0  0.125311  0  0.121047  0.094376  0  1.017469  0
H  H25  1  0.04799869  0.73584680  0.20096288  1  0  0.088839  0  0.950261  0  0  0.096365  0  1.015536  0  0  0.099052  0  1.012952  0  0.125314  0  0.121061  0.094365  0  1.017473  0
H  H26  1  0.94828664  0.47533632  0.75304292  1  0  0.111893  0  0.960562  0  0  0.120461  0  1.0227  0  0  0.123313  0  1.022301  0  0.08523  0  0.110397  0.1184  0  1.023165  0
H  H27  1  0.05171126  0.52466192  0.24695830  1  0  0.111872  0  0.960594  0  0  0.12045  0  1.022714  0  0  0.123301  0  1.022318  0  0.085192  0  0.110407  0.118388  0  1.023179  0
H  H28  1  0.72699892  0.50507310  0.65951892  1  0  0.102103  0  0.919268  0  0  0.117835  0  0.966889  0  0  0.120188  0  0.965836  0  0.100444  0  0.116488  0.11597  0  0.967861  0
H  H29  1  0.27299962  0.49492423  0.34048077  1  0  0.102171  0  0.919249  0  0  0.117907  0  0.966858  0  0  0.120261  0  0.965805  0  0.100461  0  0.116538  0.116032  0  0.967839  0
H  H30  1  0.51903475  0.32448710  0.61153842  1  0  0.116025  0  0.926792  0  0  0.132169  0  0.974404  0  0  0.135454  0  0.973586  0  0.073822  0  0.116209  0.129803  0  0.975158  0
H  H31  1  0.48096379  0.67551023  0.38845719  1  0  0.116049  0  0.926817  0  0  0.132218  0  0.974396  0  0  0.135506  0  0.973576  0  0.073834  0  0.11626  0.129852  0  0.975151  0
H  H32  1  0.32558402  0.12974256  0.55851858  1  0  0.133217  0  0.963771  0  0  0.142516  0  1.023764  0  0  0.145521  0  1.023154  0  0.127921  0  0.111934  0.140368  0  1.02438  0
H  H33  1  0.67441800  0.87025385  0.44147953  1  0  0.133217  0  0.963735  0  0  0.142463  0  1.023787  0  0  0.145465  0  1.023182  0  0.127947  0  0.111949  0.140316  0  1.024404  0
H  H34  1  0.21885532  0.88066319  0.54784301  1  0  0.117812  0  0.961707  0  0  0.127799  0  1.024929  0  0  0.129067  0  1.025684  0  0.166415  0  0.125675  0.12682  0  1.024467  0
H  H35  1  0.78114480  0.11933322  0.45215542  1  0  0.117846  0  0.961712  0  0  0.127856  0  1.0249  0  0  0.129126  0  1.025649  0  0.166426  0  0.125691  0.126875  0  1.024444  0
H  H36  1  0.51157449  0.75880421  0.65583470  1  0  0.131142  0  0.895836  0  0  0.149452  0  0.94738  0  0  0.151889  0  0.945375  0  0.127465  0  0.132666  0.1476  0  0.949005  0
H  H37  1  0.48842500  0.24119312  0.34416525  1  0  0.131122  0  0.895847  0  0  0.149445  0  0.947384  0  0  0.151878  0  0.945377  0  0.127481  0  0.132647  0.147594  0  0.949007  0
H  H38  1  0.34073496  0.70958775  0.56857667  1  0  0.103986  0  0.936902  0  0  0.117864  0  1.000858  0  0  0.11859  0  1.001707  0  0.101029  0  0.117724  0.117377  0  1.000271  0
H  H39  1  0.65926548  0.29040958  0.43142435  1  0  0.103989  0  0.936906  0  0  0.117875  0  1.000865  0  0  0.118598  0  1.001711  0  0.101152  0  0.11773  0.117385  0  1.000282  0
H  H40  1  0.88751399  0.88261849  0.44981224  1  0  0.099288  0  0.958867  0  0  0.108135  0  1.023382  0  0  0.111716  0  1.021622  0  0.090151  0  0.101113  0.105491  0  1.024915  0
H  H41  1  0.11248613  0.11738067  0.55018717  1  0  0.099289  0  0.958881  0  0  0.108114  0  1.023414  0  0  0.111694  0  1.021656  0  0.09015  0  0.1011  0.105471  0  1.024948  0
H  H42  1  0.95070700  0.72345189  0.35707999  1  0  0.089417  0  0.95639  0  0  0.103057  0  1.013536  0  0  0.105739  0  1.011874  0  0.089989  0  0.10163  0.101152  0  1.01472  0
H  H43  1  0.04928996  0.27654636  0.64292098  1  0  0.089399  0  0.956367  0  0  0.103042  0  1.01351  0  0  0.105724  0  1.01185  0  0.089972  0  0.101613  0.101138  0  1.014693  0
H  H44  1  0.05889833  0.58896505  0.47691855  1  0  0.083512  0  0.978619  0  0  0.093983  0  1.041531  0  0  0.096402  0  1.041598  0  0.059287  0  0.093872  0.092226  0  1.041636  0
H  H45  1  0.94109800  0.41103136  0.52308051  1  0  0.083445  0  0.978713  0  0  0.093993  0  1.041545  0  0  0.096396  0  1.041628  0  0.059313  0  0.093911  0.092234  0  1.041652  0
H  H46  1  0.10455170  0.61981429  0.69069869  1  0  0.096664  0  0.970022  0  0  0.106067  0  1.032973  0  0  0.109889  0  1.030119  0  0.091651  0  0.100452  0.103266  0  1.035157  0
H  H47  1  0.89545282  0.38018670  0.30930200  1  0  0.096677  0  0.970054  0  0  0.106096  0  1.032988  0  0  0.109918  0  1.030133  0  0.091651  0  0.100456  0.103295  0  1.035172  0
C  C48  1  0.15871352  0.50010688  0.99119796  1  0  0.126782  0  3.718362  0  0  0.096083  0  3.965896  0  0  0.102912  0  3.985161  0  0.43996  0  0.044282  0.091685  0  3.95287  0
C  C49  1  0.84128658  0.49989503  0.00880161  1  0  0.126826  0  3.718408  0  0  0.096141  0  3.965965  0  0  0.102971  0  3.985225  0  0.439932  0  0.044297  0.091743  0  3.952938  0
C  C50  1  0.13816151  0.38550693  0.02618715  1  0  -0.129414  0  3.729863  0  0  -0.144399  0  3.98646  0  0  -0.152337  0  4.008656  0  -0.036447  0  -0.088704  -0.139271  0  3.971474  0
C  C51  1  0.86183860  0.61449498  0.97381323  1  0  -0.129524  0  3.72984  0  0  -0.144536  0  3.98646  0  0  -0.152465  0  4.008645  0  -0.036427  0  -0.088791  -0.139407  0  3.971475  0
C  C52  1  0.24843237  0.35391573  0.09012513  1  0  0.012991  0  3.681692  0  0  -0.008574  0  3.937099  0  0  -0.003384  0  3.952514  0  -0.0122  0  -0.061595  -0.011701  0  3.926538  0
C  C53  1  0.75156647  0.64608527  0.90987487  1  0  0.013052  0  3.681614  0  0  -0.008492  0  3.936999  0  0  -0.003302  0  3.952411  0  -0.012195  0  -0.061571  -0.011623  0  3.926442  0
C  C54  1  0.37522495  0.43857622  0.11760025  1  0  -0.145243  0  3.671512  0  0  -0.163305  0  3.915727  0  0  -0.170781  0  3.935499  0  -0.012079  0  -0.080519  -0.158423  0  3.902423  0
C  C55  1  0.62477453  0.56142386  0.88239904  1  0  -0.145225  0  3.67154  0  0  -0.163289  0  3.915768  0  0  -0.170765  0  3.935543  0  -0.01209  0  -0.08052  -0.158408  0  3.902464  0
C  C56  1  0.38840031  0.55257546  0.08031915  1  0  0.195981  0  3.782135  0  0  0.193105  0  4.02174  0  0  0.200726  0  4.041589  0  0.470344  0  0.122128  0.188004  0  4.008269  0
C  C57  1  0.61160043  0.44742554  0.91967971  1  0  0.196001  0  3.782103  0  0  0.19306  0  4.021816  0  0  0.200677  0  4.041668  0  0.470608  0  0.122125  0.187961  0  4.008342  0
C  C58  1  0.51597047  0.64907142  0.10758808  1  0  0.121231  0  3.82923  0  0  0.108503  0  4.094992  0  0  0.114134  0  4.115538  0  0.413708  0  0.094166  0.104977  0  4.080872  0
C  C59  1  0.48402931  0.35092958  0.89241053  1  0  0.121317  0  3.829286  0  0  0.108647  0  4.094991  0  0  0.114281  0  4.115535  0  0.413433  0  0.094221  0.10512  0  4.080872  0
C  C60  1  0.64810288  0.65758874  0.17269806  1  0  -0.224552  0  3.710701  0  0  -0.245994  0  3.974143  0  0  -0.255765  0  3.995834  0  0.035767  0  -0.107176  -0.23961  0  3.9594  0
C  C61  1  0.35189754  0.34241409  0.82730247  1  0  -0.224625  0  3.710692  0  0  -0.246014  0  3.974162  0  0  -0.255776  0  3.99583  0  0.03556  0  -0.107141  -0.239632  0  3.959418  0
C  C62  1  0.72347625  0.77615525  0.17105142  1  0  0.000195  0  3.62347  0  0  -0.059955  0  3.881769  0  0  -0.053724  0  3.897503  0  0.318576  0  0.026493  -0.063575  0  3.870988  0
C  C63  1  0.27652480  0.22384667  0.82894758  1  0  0.000131  0  3.623496  0  0  -0.060002  0  3.88176  0  0  -0.053771  0  3.897505  0  0.318579  0  0.026441  -0.063622  0  3.87099  0
C  C64  1  0.66588673  0.95809675  0.09159892  1  0  -0.197792  0  3.623845  0  0  -0.267065  0  3.863561  0  0  -0.269354  0  3.86937  0  0.294834  0  -0.050245  -0.265432  0  3.859807  0
C  C65  1  0.33411180  0.04190333  0.90840176  1  0  -0.197825  0  3.623629  0  0  -0.26715  0  3.86349  0  0  -0.26939  0  3.869241  0  0.295061  0  -0.050264  -0.265518  0  3.859738  0
C  C66  1  0.67777624  0.98561501  0.97380868  1  0  0.704242  0  3.81663  0  0  0.64905  0  4.123649  0  0  0.68363  0  4.115661  0  1.596661  0  0.217216  0.625492  0  4.128431  0
C  C67  1  0.32222197  0.01438690  0.02619202  1  0  0.704379  0  3.816371  0  0  0.64914  0  4.123493  0  0  0.683707  0  4.115504  0  1.596723  0  0.217232  0.625582  0  4.128275  0
C  C68  1  0.85957888  0.28338993  0.75688157  1  0  0.151267  0  3.681016  0  0  0.118634  0  3.932292  0  0  0.126381  0  3.949288  0  0.437191  0  0.057973  0.113531  0  3.921016  0
C  C69  1  0.14042092  0.71660832  0.24311933  1  0  0.151276  0  3.680972  0  0  0.118624  0  3.932261  0  0  0.126373  0  3.949252  0  0.437185  0  0.057925  0.11352  0  3.920985  0
C  C70  1  0.85622976  0.39908218  0.73149077  1  0  -0.133192  0  3.722208  0  0  -0.147442  0  3.979226  0  0  -0.155053  0  4.001428  0  0.0225  0  -0.085504  -0.142538  0  3.964329  0
C  C71  1  0.14376814  0.60091607  0.26850881  1  0  -0.133216  0  3.72212  0  0  -0.147448  0  3.97914  0  0  -0.155058  0  4.001341  0  0.022389  0  -0.085546  -0.142543  0  3.964241  0
C  C72  1  0.73262165  0.41515291  0.67902573  1  0  0.005648  0  3.732315  0  0  -0.014626  0  3.985354  0  0  -0.009884  0  4.002945  0  -0.053765  0  -0.061494  -0.017484  0  3.973313  0
C  C73  1  0.26737689  0.58484441  0.32097234  1  0  0.005586  0  3.732251  0  0  -0.014719  0  3.98533  0  0  -0.009977  0  4.00292  0  -0.053736  0  -0.061515  -0.017569  0  3.973287  0
C  C74  1  0.61711358  0.31523425  0.65222624  1  0  -0.150317  0  3.702519  0  0  -0.170903  0  3.953803  0  0  -0.177584  0  3.972408  0  0.024076  0  -0.079018  -0.166591  0  3.941366  0
C  C75  1  0.38288464  0.68476216  0.34777169  1  0  -0.150323  0  3.702462  0  0  -0.17092  0  3.953751  0  0  -0.177603  0  3.972357  0  0.024135  0  -0.079073  -0.166609  0  3.94131  0
C  C76  1  0.62818636  0.20120475  0.67883760  1  0  0.207439  0  3.770136  0  0  0.201802  0  4.014208  0  0  0.210601  0  4.032026  0  0.468782  0  0.12678  0.195738  0  4.002343  0
C  C77  1  0.37181186  0.79879166  0.32116032  1  0  0.20744  0  3.770054  0  0  0.201789  0  4.014143  0  0  0.210589  0  4.031964  0  0.468692  0  0.126781  0.195725  0  4.002278  0
C  C78  1  0.51467008  0.08961387  0.65006689  1  0  0.1207  0  3.814236  0  0  0.105163  0  4.084407  0  0  0.110794  0  4.103824  0  0.481019  0  0.093243  0.101707  0  4.071052  0
C  C79  1  0.48533036  0.91038346  0.34993167  1  0  0.120747  0  3.814112  0  0  0.105183  0  4.084308  0  0  0.110815  0  4.103723  0  0.481237  0  0.093256  0.101728  0  4.070952  0
C  C80  1  0.37704341  0.06585214  0.59288656  1  0  -0.203673  0  3.708943  0  0  -0.22785  0  3.977622  0  0  -0.235916  0  3.997217  0  -0.052304  0  -0.102362  -0.22277  0  3.964491  0
C  C81  1  0.62295482  0.93414427  0.40711382  1  0  -0.203593  0  3.708833  0  0  -0.227716  0  3.977539  0  0  -0.235778  0  3.997128  0  -0.052387  0  -0.102328  -0.222637  0  3.964409  0
C  C82  1  0.32110019  0.94041096  0.58538564  1  0  0.01778  0  3.611259  0  0  -0.042952  0  3.868494  0  0  -0.035901  0  3.883901  0  0.369826  0  0.029472  -0.047189  0  3.857888  0
C  C83  1  0.67890119  0.05958636  0.41461728  1  0  0.017651  0  3.611122  0  0  -0.043098  0  3.868347  0  0  -0.036051  0  3.883759  0  0.369796  0  0.029381  -0.047337  0  3.857741  0
C  C84  1  0.41354953  0.76903746  0.64791270  1  0  -0.178963  0  3.625953  0  0  -0.255498  0  3.872894  0  0  -0.256591  0  3.879266  0  0.264407  0  -0.04709  -0.254709  0  3.868716  0
C  C85  1  0.58645122  0.23096079  0.35208764  1  0  -0.178957  0  3.625939  0  0  -0.255543  0  3.872952  0  0  -0.256616  0  3.879298  0  0.264321  0  -0.047076  -0.25475  0  3.868771  0
C  C86  1  0.37269948  0.72446897  0.75179478  1  0  0.678871  0  3.902812  0  0  0.630042  0  4.213004  0  0  0.662832  0  4.206132  0  1.620523  0  0.205847  0.607827  0  4.216825  0
C  C87  1  0.62730030  0.27553477  0.24820645  1  0  0.678895  0  3.902729  0  0  0.630088  0  4.212894  0  0  0.662874  0  4.206018  0  1.620503  0  0.205822  0.607874  0  4.216716  0
C  C88  1  0.95153832  0.83699348  0.62217654  1  0  -0.034051  0  3.711272  0  0  -0.018054  0  3.942194  0  0  -0.019407  0  3.960633  0  -0.069052  0  -0.004267  -0.017278  0  3.930044  0
C  C89  1  0.04846463  0.16300843  0.37782378  1  0  -0.033933  0  3.711201  0  0  -0.017955  0  3.942157  0  0  -0.019304  0  3.960592  0  -0.069026  0  -0.004266  -0.017178  0  3.930006  0
C  C90  1  0.92988225  0.82172156  0.50248527  1  0  -0.10459  0  3.743973  0  0  -0.124952  0  3.989789  0  0  -0.12832  0  4.009299  0  -0.028696  0  -0.093636  -0.122796  0  3.977003  0
C  C91  1  0.07011786  0.17827760  0.49751496  1  0  -0.104688  0  3.744019  0  0  -0.125014  0  3.989823  0  0  -0.128382  0  4.009335  0  -0.028734  0  -0.093646  -0.12286  0  3.977037  0
C  C92  1  0.96716630  0.73250113  0.45004012  1  0  -0.044197  0  3.769124  0  0  -0.059755  0  4.017244  0  0  -0.057964  0  4.035067  0  -0.04235  0  -0.087474  -0.060728  0  4.005036  0
C  C93  1  0.03283097  0.26749803  0.54996016  1  0  -0.044099  0  3.769066  0  0  -0.059653  0  4.017174  0  0  -0.057867  0  4.035  0  -0.041967  0  -0.08741  -0.060627  0  4.004964  0
C  C94  1  0.02837984  0.65810874  0.51730158  1  0  -0.106032  0  3.803869  0  0  -0.117879  0  4.055047  0  0  -0.121446  0  4.075747  0  -0.073302  0  -0.105577  -0.115684  0  4.041118  0
C  C95  1  0.97161839  0.34188767  0.48269880  1  0  -0.106001  0  3.803929  0  0  -0.117921  0  4.055113  0  0  -0.121472  0  4.075821  0  -0.073725  0  -0.105626  -0.115724  0  4.041185  0
C  C96  1  0.05286844  0.67448213  0.63684307  1  0  -0.076126  0  3.762756  0  0  -0.099987  0  4.013925  0  0  -0.099206  0  4.033676  0  -0.083257  0  -0.092301  -0.100269  0  4.00061  0
C  C97  1  0.94713355  0.32551978  0.36315864  1  0  -0.076143  0  3.762796  0  0  -0.100014  0  4.014003  0  0  -0.099227  0  4.033743  0  -0.083444  0  -0.092317  -0.100296  0  4.000686  0
C  C98  1  0.01560749  0.76378693  0.69098767  1  0  -0.105092  0  3.733167  0  0  -0.09237  0  3.970463  0  0  -0.100405  0  3.992717  0  0.024903  0  -0.026264  -0.08745  0  3.955757  0
C  C99  1  0.98439640  0.23621498  0.30901372  1  0  -0.105095  0  3.733165  0  0  -0.092433  0  3.970554  0  0  -0.100473  0  3.992807  0  0.02527  0  -0.026238  -0.08751  0  3.955843  0
C  C100  1  0.90625889  0.93397093  0.67174117  1  0  0.659247  0  3.938198  0  0  0.604392  0  4.244739  0  0  0.639585  0  4.233839  0  1.617791  0  0.199568  0.580334  0  4.251376  0
C  C101  1  0.09374152  0.06603190  0.32825772  1  0  0.659252  0  3.938089  0  0  0.604405  0  4.24464  0  0  0.639597  0  4.233736  0  1.617732  0  0.199542  0.580348  0  4.251278  0
C  C102  1  0.05275615  0.78357293  0.82117956  1  0  0.663505  0  3.874595  0  0  0.609949  0  4.172079  0  0  0.644621  0  4.163405  0  1.5343  0  0.211446  0.58647  0  4.177181  0
C  C103  1  0.94724490  0.21642898  0.17882107  1  0  0.663453  0  3.874756  0  0  0.609915  0  4.172232  0  0  0.644589  0  4.163555  0  1.534081  0  0.211406  0.586437  0  4.177333  0
N  N104  1  0.28063371  0.58201601  0.01729947  1  0  -0.369111  0  3.287943  0  0  -0.290459  0  3.557401  0  0  -0.309567  0  3.57096  0  -1.227574  0  -0.32483  -0.27752  0  3.548137  0
N  N105  1  0.71936703  0.41798499  0.98270021  1  0  -0.369153  0  3.288001  0  0  -0.290533  0  3.557535  0  0  -0.309642  0  3.571102  0  -1.227553  0  -0.324837  -0.277596  0  3.548276  0
N  N106  1  0.51217195  0.75554934  0.06899640  1  0  -0.319926  0  3.092697  0  0  -0.291115  0  3.371346  0  0  -0.304232  0  3.384929  0  -0.712992  0  -0.233699  -0.282144  0  3.362269  0
N  N107  1  0.48782910  0.24445258  0.93100260  1  0  -0.320009  0  3.092728  0  0  -0.29122  0  3.371381  0  0  -0.304341  0  3.384972  0  -0.712967  0  -0.233774  -0.28225  0  3.362307  0
N  N108  1  0.63819062  0.83121928  0.10770759  1  0  0.130497  0  3.591833  0  0  0.241537  0  3.77503  0  0  0.235248  0  3.798547  0  -0.797864  0  -0.130227  0.245336  0  3.759278  0
N  N109  1  0.36180917  0.16878172  0.89229102  1  0  0.130512  0  3.591806  0  0  0.241579  0  3.775012  0  0  0.235275  0  3.798525  0  -0.797792  0  -0.130214  0.245377  0  3.759259  0
N  N110  1  0.74853984  0.18726265  0.73173522  1  0  -0.353336  0  3.256643  0  0  -0.277607  0  3.521184  0  0  -0.295975  0  3.534452  0  -1.232039  0  -0.315957  -0.265427  0  3.512399  0
N  N111  1  0.25145995  0.81273559  0.26826487  1  0  -0.353379  0  3.25666  0  0  -0.277613  0  3.521169  0  0  -0.295985  0  3.534439  0  -1.231939  0  -0.315944  -0.265431  0  3.512384  0
N  N112  1  0.54006425  0.98468964  0.67573422  1  0  -0.307386  0  3.081721  0  0  -0.278459  0  3.357464  0  0  -0.291498  0  3.371347  0  -0.696688  0  -0.224277  -0.269456  0  3.347954  0
N  N113  1  0.45993713  0.01530769  0.32426378  1  0  -0.307443  0  3.081617  0  0  -0.278475  0  3.357333  0  0  -0.291515  0  3.37122  0  -0.696863  0  -0.224294  -0.269472  0  3.347823  0
N  N114  1  0.42227076  0.89528762  0.63544420  1  0  0.123351  0  3.582825  0  0  0.236727  0  3.766696  0  0  0.230551  0  3.789063  0  -0.778361  0  -0.129247  0.240516  0  3.75176  0
N  N115  1  0.57772903  0.10471062  0.36455588  1  0  0.12342  0  3.582692  0  0  0.236775  0  3.766608  0  0  0.230595  0  3.788971  0  -0.778297  0  -0.129214  0.240564  0  3.75167  0
O  O116  1  0.67474281  0.09133714  0.94887433  1  0  -0.659471  0  2.092971  0  0  -0.585525  0  2.377842  0  0  -0.615037  0  2.3625  0  -1.192072  0  -0.320479  -0.56494  0  2.387866  0
O  O117  1  0.32525634  0.90866477  0.05112744  1  0  -0.65955  0  2.092919  0  0  -0.585564  0  2.377784  0  0  -0.615074  0  2.362443  0  -1.192046  0  -0.320456  -0.56498  0  2.387814  0
O  O118  1  0.69528169  0.90879500  0.90642506  1  0  -0.599102  0  1.988648  0  0  -0.534701  0  2.237429  0  0  -0.562638  0  2.226775  0  -1.164862  0  -0.301241  -0.515422  0  2.244227  0
O  O119  1  0.30471746  0.09120691  0.09357589  1  0  -0.599149  0  1.988548  0  0  -0.534714  0  2.237346  0  0  -0.562651  0  2.2267  0  -1.164936  0  -0.301253  -0.515434  0  2.244143  0
O  O120  1  0.34963297  0.61280656  0.75694320  1  0  -0.623331  0  1.90865  0  0  -0.581327  0  2.13117  0  0  -0.60391  0  2.121325  0  -1.190359  0  -0.329431  -0.565262  0  2.137171  0
O  O121  1  0.65036682  0.38719443  0.24305869  1  0  -0.623276  0  1.908583  0  0  -0.581281  0  2.131103  0  0  -0.603864  0  2.121261  0  -1.190413  0  -0.329378  -0.565217  0  2.137104  0
O  O122  1  0.36554773  0.80651017  0.82382871  1  0  -0.651299  0  2.0931  0  0  -0.581576  0  2.371043  0  0  -0.611761  0  2.360178  0  -1.174066  0  -0.325718  -0.560445  0  2.37767  0
O  O123  1  0.63445616  0.19349175  0.17617269  1  0  -0.651377  0  2.093117  0  0  -0.581646  0  2.371054  0  0  -0.611832  0  2.360191  0  -1.173997  0  -0.32573  -0.560515  0  2.377682  0
O  O124  1  0.79087129  0.89365423  0.68621881  1  0  -0.665754  0  2.022388  0  0  -0.601472  0  2.295253  0  0  -0.63015  0  2.278818  0  -1.169896  0  -0.347565  -0.581014  0  2.305549  0
O  O125  1  0.20912881  0.10634769  0.31377912  1  0  -0.665765  0  2.022295  0  0  -0.601481  0  2.295156  0  0  -0.630154  0  2.278715  0  -1.169902  0  -0.347563  -0.581026  0  2.30546  0
O  O126  1  0.97608325  0.04383845  0.68901178  1  0  -0.619234  0  1.934101  0  0  -0.573655  0  2.168232  0  0  -0.598752  0  2.159961  0  -1.189286  0  -0.320055  -0.555569  0  2.173108  0
O  O127  1  0.02391621  0.95616438  0.31098849  1  0  -0.619231  0  1.934044  0  0  -0.573654  0  2.168173  0  0  -0.598762  0  2.159925  0  -1.189216  0  -0.320026  -0.55557  0  2.173052  0
O  O128  1  0.03054706  0.87226785  0.87067179  1  0  -0.634627  0  2.008148  0  0  -0.569065  0  2.225718  0  0  -0.594706  0  2.216639  0  -1.18927  0  -0.306502  -0.551535  0  2.231802  0
O  O129  1  0.96945304  0.12773407  0.12932860  1  0  -0.634607  0  2.008099  0  0  -0.569047  0  2.225654  0  0  -0.594683  0  2.21657  0  -1.189172  0  -0.306509  -0.551522  0  2.231742  0
O  O130  1  0.10773352  0.71015453  0.87563420  1  0  -0.677141  0  2.070184  0  0  -0.610173  0  2.344769  0  0  -0.636022  0  2.329386  0  -1.210267  0  -0.337542  -0.591909  0  2.354425  0
O  O131  1  0.89227100  0.28984922  0.12436911  1  0  -0.677171  0  2.070315  0  0  -0.610164  0  2.344846  0  0  -0.636025  0  2.329484  0  -1.210248  0  -0.337527  -0.591902  0  2.354503  0
O  O132  1  0.94131722  0.09404449  0.90637398  1  0  -0.8278  0  1.926378  0  0  -0.763283  0  2.144955  0  0  -0.784884  0  2.112555  0  -1.257429  0  -0.573514  -0.74796  0  2.166948  0
O  O133  1  0.05868131  0.90595559  0.09362506  1  0  -0.827834  0  1.926367  0  0  -0.763282  0  2.144917  0  0  -0.784893  0  2.112551  0  -1.257425  0  -0.573496  -0.747959  0  2.166911  0
