# generated using pymatgen
data_MnH12C14N2O5
_symmetry_space_group_name_H-M   'P 1'
_cell_length_a   11.84125687
_cell_length_b   11.84119959
_cell_length_c   16.22744959
_cell_angle_alpha   72.87488809
_cell_angle_beta   72.87488010
_cell_angle_gamma   78.72421656
_symmetry_Int_Tables_number   1
_chemical_formula_structural   MnH12C14N2O5
_chemical_formula_sum   'Mn4 H48 C56 N8 O20'
_cell_volume   2063.23648833
_cell_formula_units_Z   4
loop_
 _symmetry_equiv_pos_site_id
 _symmetry_equiv_pos_as_xyz
  1  'x, y, z'
loop_
 _atom_site_type_symbol
 _atom_site_label
 _atom_site_symmetry_multiplicity
 _atom_site_fract_x
 _atom_site_fract_y
 _atom_site_fract_z
 _atom_site_occupancy
 _atom_site_pbe_bader_charge
 _atom_site_pbe_bader_spin_density
 _atom_site_pbe_cm5_charge
 _atom_site_pbe_ddec_charge
 _atom_site_pbe_ddec_spin_density
 _atom_site_pbe_ddec_sum_bond_order
 _atom_site_pbe_magmom
Mn  Mn0  1  0.82257595  0.60133785  0.05561695  1  1.489921  4.55878  0.595841  0.940471  4.687224  2.28321  4.472
Mn  Mn1  1  0.39866354  0.17742665  0.44438240  1  1.489916  4.558788  0.595823  0.940433  4.687239  2.283216  4.472
Mn  Mn2  1  0.17742161  0.39866211  0.94438194  1  1.48991  4.558774  0.595825  0.940451  4.687212  2.28323  4.472
Mn  Mn3  1  0.60134026  0.82257169  0.55561428  1  1.489936  4.558777  0.595806  0.940451  4.687224  2.283212  4.472
H  H4  1  0.67357007  0.80395505  0.27929916  1  0.120247  0.000425  0.101166  0.105377  -0.000118  1.073124  0.0
H  H5  1  0.19604396  0.32643082  0.22070187  1  0.120207  0.000425  0.101157  0.105391  -0.000118  1.073182  0.0
H  H6  1  0.32642483  0.19604435  0.72069918  1  0.120209  0.000425  0.101142  0.105373  -0.000118  1.073124  0.0
H  H7  1  0.80395713  0.67356957  0.77930111  1  0.12026  0.000425  0.101144  0.105379  -0.000118  1.073135  0.0
H  H8  1  0.41341749  0.16057429  0.04240082  1  0.497659  0.000371  0.294812  0.260886  -0.000124  1.01684  0.0
H  H9  1  0.83942643  0.58658342  0.45759963  1  0.497622  0.000371  0.294814  0.260916  -0.000125  1.016823  0.0
H  H10  1  0.58658008  0.83942391  0.95759783  1  0.497695  0.000371  0.29482  0.260876  -0.000124  1.016832  0.0
H  H11  1  0.16057557  0.41341953  0.54240015  1  0.497651  0.000371  0.294794  0.260859  -0.000124  1.016854  0.0
H  H12  1  0.56316277  0.97867593  0.03829950  1  0.075045  0.000478  0.100835  0.108086  0.000201  1.037875  0.0
H  H13  1  0.02132426  0.43683705  0.46170043  1  0.075054  0.000478  0.100822  0.108063  0.000201  1.03789  0.0
H  H14  1  0.43683567  0.02132392  0.96169984  1  0.075353  0.000478  0.10083  0.108072  0.000201  1.037892  0.0
H  H15  1  0.97867685  0.56316424  0.53829927  1  0.075348  0.000478  0.100831  0.108076  0.000201  1.037884  0.0
H  H16  1  0.35619695  0.26166463  0.19096741  1  0.084437  0.000547  0.109901  0.100128  -0.000104  1.026357  0.0
H  H17  1  0.73833820  0.64380507  0.30903367  1  0.084454  0.000547  0.109895  0.10014  -0.000104  1.026358  0.0
H  H18  1  0.64380059  0.73833355  0.80903432  1  0.084486  0.000547  0.109879  0.100121  -0.000104  1.026298  0.0
H  H19  1  0.26166379  0.35619700  0.69096630  1  0.08446  0.000547  0.109875  0.100073  -0.000104  1.026387  0.0
H  H20  1  0.33385150  0.32913539  0.08388195  1  0.103531  0.000764  0.120036  0.113385  0.000308  1.001052  0.0
H  H21  1  0.67086794  0.66615322  0.41611727  1  0.103496  0.000764  0.120085  0.113521  0.000308  1.001073  0.0
H  H22  1  0.66614515  0.67086202  0.91611951  1  0.103552  0.000764  0.120073  0.113465  0.000308  1.000989  0.0
H  H23  1  0.32913407  0.33384974  0.58388127  1  0.103471  0.000764  0.120069  0.113474  0.000308  1.001036  0.0
H  H24  1  0.47138576  0.14910819  0.25511349  1  0.092588  0.000565  0.108974  0.120387  0.000569  1.051464  0.0
H  H25  1  0.85089286  0.52861534  0.24488557  1  0.092583  0.000565  0.108959  0.120356  0.000569  1.051466  0.0
H  H26  1  0.52861268  0.85089166  0.74488585  1  0.09257  0.000565  0.108965  0.120361  0.000569  1.051468  0.0
H  H27  1  0.14911181  0.47138730  0.75511371  1  0.092515  0.000565  0.108985  0.120422  0.000569  1.051382  0.0
H  H28  1  0.63288948  0.26138280  0.01738869  1  0.068557  0.000612  0.109507  0.119355  0.000335  1.004865  0.0
H  H29  1  0.73861903  0.36711120  0.48261026  1  0.068552  0.000612  0.109501  0.11934  0.000335  1.004874  0.0
H  H30  1  0.36710984  0.73861252  0.98261388  1  0.068613  0.000612  0.109483  0.119313  0.000335  1.004904  0.0
H  H31  1  0.26138563  0.63288878  0.51738958  1  0.06861  0.000612  0.109505  0.119328  0.000335  1.004894  0.0
H  H32  1  0.38741885  0.47337576  0.18367597  1  0.088326  0.000782  0.110608  0.120681  0.00033  0.994853  0.0
H  H33  1  0.52662330  0.61258640  0.31632594  1  0.088279  0.000782  0.110626  0.120693  0.00033  0.994861  0.0
H  H34  1  0.61257605  0.52662365  0.81632236  1  0.088351  0.000782  0.110621  0.120721  0.00033  0.994879  0.0
H  H35  1  0.47337870  0.38741390  0.68367440  1  0.088262  0.000782  0.11062  0.120691  0.00033  0.99488  0.0
H  H36  1  0.78610633  0.39434350  0.99282398  1  0.126695  0.002083  0.117336  0.085877  0.001082  1.018388  0.001
H  H37  1  0.60565725  0.21389363  0.50717514  1  0.126728  0.002083  0.117316  0.085826  0.001082  1.01843  0.001
H  H38  1  0.21389210  0.60565103  0.00717957  1  0.126646  0.002083  0.117343  0.085902  0.001082  1.018403  0.001
H  H39  1  0.39434742  0.78610636  0.49282409  1  0.126879  0.002083  0.117339  0.085846  0.001082  1.01842  0.001
H  H40  1  0.55124316  0.59627668  0.15484632  1  0.08829  0.001513  0.117104  0.080183  0.000782  1.008628  0.001
H  H41  1  0.40372480  0.44876222  0.34515565  1  0.088837  0.001513  0.117125  0.080242  0.000783  1.008553  0.001
H  H42  1  0.44875438  0.40372239  0.84515461  1  0.088355  0.001514  0.117104  0.080192  0.000783  1.00862  0.001
H  H43  1  0.59627986  0.55123688  0.65484438  1  0.08861  0.001514  0.117114  0.080224  0.000783  1.008549  0.001
H  H44  1  0.03680060  0.64512164  0.96469476  1  0.642456  0.000874  0.292505  0.36665  0.000641  0.985163  0.001
H  H45  1  0.35487660  0.96319911  0.53530489  1  0.642465  0.000874  0.292494  0.366661  0.000641  0.985148  0.001
H  H46  1  0.96319961  0.35487710  0.03530752  1  0.642444  0.000874  0.292461  0.366616  0.000641  0.985208  0.001
H  H47  1  0.64512631  0.03680022  0.46469176  1  0.64232  0.000874  0.292484  0.36665  0.000641  0.985148  0.001
H  H48  1  0.98769332  0.77077736  0.98524701  1  0.619039  0.002425  0.333112  0.406754  0.001506  0.864148  0.001
H  H49  1  0.22922277  0.01230886  0.51475556  1  0.619086  0.002425  0.333077  0.406699  0.001506  0.86421  0.001
H  H50  1  0.01230599  0.22922236  0.01475710  1  0.619069  0.002425  0.333146  0.4068  0.001506  0.86417  0.001
H  H51  1  0.77077926  0.98769058  0.48524002  1  0.619053  0.002426  0.333144  0.406797  0.001506  0.864321  0.001
C  C52  1  0.57034163  0.97563026  0.27623563  1  0.012505  0.000103  -0.024501  -0.027843  -0.000852  4.037413  -0.001
C  C53  1  0.02436930  0.42965812  0.22376383  1  0.012509  0.000103  -0.024468  -0.027849  -0.000852  4.037454  -0.001
C  C54  1  0.42965504  0.02436893  0.72376361  1  0.012493  0.000104  -0.024493  -0.027712  -0.000851  4.037303  -0.001
C  C55  1  0.97563447  0.57034461  0.77623624  1  0.012539  0.000103  -0.024463  -0.027741  -0.000852  4.037141  -0.001
C  C56  1  0.50397256  0.07527487  0.14105882  1  0.403661  -0.000487  0.100278  0.244902  -0.000679  4.089957  -0.001
C  C57  1  0.92472547  0.49602835  0.35894037  1  0.403749  -0.000487  0.100235  0.244803  -0.000679  4.089912  -0.001
C  C58  1  0.49602589  0.92472853  0.85893853  1  0.403761  -0.000487  0.100214  0.244721  -0.000679  4.090114  -0.001
C  C59  1  0.07527207  0.50397160  0.64106099  1  0.403627  -0.000487  0.10025  0.244832  -0.000679  4.090059  -0.001
C  C60  1  0.62301211  0.88021243  0.15496310  1  -0.019294  -0.002228  -0.030429  -0.028718  -0.003365  4.059176  -0.003
C  C61  1  0.11978635  0.37698824  0.34503754  1  -0.019312  -0.002228  -0.03035  -0.028468  -0.003365  4.059217  -0.003
C  C62  1  0.37698280  0.11978521  0.84503499  1  -0.019145  -0.002228  -0.030448  -0.028657  -0.003365  4.059376  -0.003
C  C63  1  0.88021474  0.62301569  0.65496530  1  -0.019203  -0.002228  -0.030471  -0.028738  -0.003365  4.05929  -0.003
C  C64  1  0.62551067  0.87814368  0.24113192  1  -0.072997  0.008567  -0.102813  -0.154572  0.006178  3.976918  0.005
C  C65  1  0.12185726  0.37449181  0.25886658  1  -0.072922  0.008568  -0.102827  -0.154706  0.006179  3.977025  0.005
C  C66  1  0.37448689  0.12185540  0.75886777  1  -0.07301  0.008564  -0.102765  -0.154612  0.006176  3.977001  0.005
C  C67  1  0.87814653  0.62551271  0.74113002  1  -0.072974  0.008565  -0.102798  -0.154618  0.006177  3.977007  0.005
C  C68  1  0.57518360  0.97262507  0.36770405  1  1.514964  0.027307  0.232634  0.607674  0.025844  4.111155  0.023
C  C69  1  0.02737571  0.42481606  0.13229455  1  1.514979  0.027307  0.232611  0.607717  0.025843  4.111206  0.023
C  C70  1  0.42481397  0.02737667  0.63229261  1  1.515032  0.027304  0.232494  0.607573  0.025842  4.111362  0.023
C  C71  1  0.97262539  0.57518523  0.86770701  1  1.515112  0.027302  0.232503  0.607617  0.02584  4.111502  0.023
C  C72  1  0.69065567  0.78143846  0.11385621  1  1.502323  0.011113  0.201728  0.55299  0.012491  4.20664  0.009
C  C73  1  0.21855981  0.30934665  0.38614403  1  1.502306  0.011114  0.201706  0.552877  0.012491  4.206669  0.009
C  C74  1  0.30934011  0.21855818  0.88614375  1  1.50234  0.011113  0.201716  0.55285  0.012491  4.206691  0.009
C  C75  1  0.78144040  0.69065916  0.61385614  1  1.502388  0.011113  0.201712  0.55292  0.012492  4.20662  0.009
C  C76  1  0.49742416  0.35667524  0.10246852  1  0.009039  0.006854  0.019035  0.155329  0.005134  3.910789  0.004
C  C77  1  0.64332633  0.50258044  0.39753288  1  0.008996  0.006855  0.01905  0.155435  0.005134  3.910791  0.004
C  C78  1  0.50257340  0.64332207  0.89753216  1  0.009059  0.006853  0.019078  0.15543  0.005133  3.910756  0.004
C  C79  1  0.35667833  0.49742218  0.60246764  1  0.008876  0.006852  0.01902  0.155458  0.005132  3.910711  0.004
C  C80  1  0.56195419  0.97722460  0.10596427  1  -0.008493  0.007528  -0.099122  -0.209945  0.005821  3.932195  0.004
C  C81  1  0.02277671  0.43804548  0.39403545  1  -0.008512  0.007527  -0.099107  -0.209952  0.005821  3.932295  0.004
C  C82  1  0.43804337  0.02277448  0.89403480  1  -0.008656  0.007526  -0.099076  -0.209854  0.00582  3.93235  0.004
C  C83  1  0.97722706  0.56195548  0.60596560  1  -0.008597  0.007527  -0.099059  -0.209842  0.00582  3.932212  0.004
C  C84  1  0.40147675  0.27914798  0.11935763  1  0.340291  0.00058  -0.057364  -0.086647  0.000369  3.94293  0.0
C  C85  1  0.72085346  0.59852590  0.38064421  1  0.340255  0.00058  -0.057434  -0.086975  0.000369  3.943168  0.0
C  C86  1  0.59851901  0.72085129  0.88064425  1  0.340255  0.00058  -0.057359  -0.086757  0.000369  3.942842  0.0
C  C87  1  0.27914676  0.40147550  0.61935565  1  0.340297  0.00058  -0.057392  -0.086815  0.000369  3.943014  0.0
C  C88  1  0.51249590  0.07438100  0.22625774  1  -0.021961  0.008064  -0.094694  -0.202166  0.006343  3.900026  0.005
C  C89  1  0.92561787  0.48750348  0.27374208  1  -0.021972  0.008063  -0.094664  -0.202051  0.006341  3.89996  0.005
C  C90  1  0.48750167  0.92562162  0.77373935  1  -0.022  0.008063  -0.094625  -0.202066  0.006342  3.899978  0.005
C  C91  1  0.07438234  0.51249526  0.72625897  1  -0.021962  0.008064  -0.094659  -0.202166  0.006342  3.899933  0.005
C  C92  1  0.61150375  0.33536420  0.04859446  1  -0.035475  0.000101  -0.086399  -0.184263  -0.000473  3.960852  0.0
C  C93  1  0.66463518  0.38849804  0.45140606  1  -0.035094  0.000101  -0.086382  -0.184242  -0.000473  3.960875  0.0
C  C94  1  0.38849468  0.66463299  0.95140729  1  -0.035464  0.000101  -0.086397  -0.184266  -0.000472  3.960695  0.0
C  C95  1  0.33536503  0.61149981  0.54859641  1  -0.03545  0.000102  -0.086406  -0.184272  -0.000472  3.960628  0.0
C  C96  1  0.47493857  0.45288764  0.14100036  1  -0.044364  -0.000237  -0.081597  -0.18364  -0.000895  3.948771  0.0
C  C97  1  0.54711262  0.52506683  0.35900060  1  -0.044547  -0.000237  -0.081614  -0.183623  -0.000895  3.948782  0.0
C  C98  1  0.52505989  0.54711311  0.85899756  1  -0.044331  -0.000237  -0.081634  -0.183743  -0.000894  3.948837  0.0
C  C99  1  0.45288938  0.47493171  0.64099950  1  -0.044834  -0.000236  -0.081628  -0.183717  -0.000894  3.948785  0.0
C  C100  1  0.69698979  0.40848163  0.03550134  1  0.460179  0.009103  0.050009  0.102301  0.007174  3.953085  0.006
C  C101  1  0.59152070  0.30301258  0.46449844  1  0.459771  0.009103  0.050047  0.102347  0.007174  3.953035  0.006
C  C102  1  0.30300686  0.59151489  0.96450093  1  0.460207  0.009102  0.050009  0.102285  0.007173  3.952893  0.006
C  C103  1  0.40848574  0.69698807  0.53550274  1  0.460135  0.009102  0.050076  0.102365  0.007173  3.952914  0.006
C  C104  1  0.56545121  0.52138518  0.12530807  1  0.474883  0.008002  0.0477  0.092951  0.006498  3.977426  0.006
C  C105  1  0.47861689  0.43455367  0.37469383  1  0.474757  0.008002  0.047703  0.092846  0.006499  3.977392  0.006
C  C106  1  0.43454278  0.47861431  0.87469352  1  0.474855  0.008002  0.047683  0.092911  0.006498  3.977393  0.006
C  C107  1  0.52138690  0.56544819  0.62530457  1  0.475294  0.008  0.047716  0.09292  0.006497  3.977398  0.006
N  N108  1  0.67556360  0.49994093  0.07373224  1  -1.279243  0.054271  -0.327942  -0.265896  0.035287  3.528646  0.016
N  N109  1  0.50005955  0.32444043  0.42626764  1  -1.279163  0.05427  -0.327941  -0.265825  0.035281  3.528374  0.016
N  N110  1  0.32443483  0.50005627  0.92626951  1  -1.27944  0.054269  -0.327949  -0.265861  0.035286  3.528642  0.016
N  N111  1  0.49994335  0.67555801  0.57373106  1  -1.27933  0.054272  -0.32796  -0.265857  0.035283  3.528693  0.016
N  N112  1  0.44482794  0.17038704  0.09180575  1  -1.260315  -9.9e-05  -0.447329  -0.339254  -0.000418  3.590931  0.0
N  N113  1  0.82961458  0.55517163  0.40819539  1  -1.260398  -9.9e-05  -0.447329  -0.339219  -0.000417  3.590893  0.0
N  N114  1  0.55516606  0.82961069  0.90819498  1  -1.260328  -9.9e-05  -0.447335  -0.339183  -0.000418  3.590843  0.0
N  N115  1  0.17038830  0.44483209  0.59180588  1  -1.260317  -9.9e-05  -0.447329  -0.339209  -0.000418  3.590934  0.0
O  O116  1  0.74289206  0.69057751  0.16107233  1  -1.201457  0.057199  -0.319403  -0.559666  0.038467  2.240108  0.024
O  O117  1  0.30942495  0.25711203  0.33892656  1  -1.201419  0.057199  -0.319398  -0.559656  0.038467  2.240071  0.024
O  O118  1  0.25710106  0.30941945  0.83892751  1  -1.201487  0.0572  -0.319427  -0.559617  0.038466  2.240017  0.024
O  O119  1  0.69057882  0.74289513  0.66107195  1  -1.201459  0.057195  -0.319429  -0.559643  0.038466  2.240047  0.024
O  O120  1  0.69858006  0.78694928  0.03259694  1  -1.196672  0.048108  -0.312821  -0.565178  0.034467  2.186556  0.026
O  O121  1  0.21305099  0.30142100  0.46740376  1  -1.196701  0.048108  -0.312841  -0.565156  0.034467  2.186546  0.026
O  O122  1  0.30141928  0.21305046  0.96740223  1  -1.196664  0.048106  -0.312811  -0.565163  0.034467  2.186642  0.026
O  O123  1  0.78695189  0.69858096  0.53259728  1  -1.196703  0.048112  -0.312798  -0.565171  0.034468  2.186658  0.026
O  O124  1  0.60014780  0.87197641  0.41864106  1  -1.194671  0.071053  -0.303642  -0.55123  0.049242  2.335415  0.034
O  O125  1  0.12802198  0.39985394  0.08135630  1  -1.194676  0.071046  -0.303598  -0.551208  0.049241  2.335391  0.034
O  O126  1  0.39985243  0.12802058  0.58135788  1  -1.194711  0.071044  -0.303578  -0.551172  0.049237  2.335523  0.034
O  O127  1  0.87198093  0.60014627  0.91864079  1  -1.194797  0.071048  -0.303569  -0.551186  0.04924  2.335551  0.034
O  O128  1  0.55703025  0.07125357  0.39150061  1  -1.217277  0.06462  -0.31997  -0.588957  0.044962  2.32008  0.026
O  O129  1  0.92874605  0.44296931  0.10849960  1  -1.217292  0.06462  -0.319995  -0.589001  0.044962  2.320111  0.026
O  O130  1  0.44297087  0.92874332  0.60849755  1  -1.217314  0.064611  -0.319861  -0.58894  0.04496  2.320152  0.026
O  O131  1  0.07125327  0.55703042  0.89150204  1  -1.21736  0.064625  -0.319939  -0.588982  0.044964  2.320292  0.026
O  O132  1  0.99760957  0.68610588  0.01385181  1  -1.262599  0.050271  -0.555098  -0.736389  0.035779  2.053782  0.023
O  O133  1  0.31389155  0.00239070  0.48614944  1  -1.262646  0.050266  -0.555077  -0.736357  0.035778  2.053793  0.023
O  O134  1  0.00238975  0.31389207  0.98615145  1  -1.262609  0.050273  -0.555108  -0.736425  0.035781  2.053827  0.023
O  O135  1  0.68611225  0.99760676  0.51384743  1  -1.262522  0.050278  -0.555126  -0.736452  0.035778  2.05395  0.023
