# generated using pymatgen
data_Ag2H4C3SIN3
_symmetry_space_group_name_H-M   'P 1'
_cell_length_a   7.78985735
_cell_length_b   10.15938887
_cell_length_c   19.76307310
_cell_angle_alpha   90.00025063
_cell_angle_beta   90.00019537
_cell_angle_gamma   89.99997928
_symmetry_Int_Tables_number   1
_chemical_formula_structural   Ag2H4C3SIN3
_chemical_formula_sum   'Ag16 H32 C24 S8 I8 N24'
_cell_volume   1564.05336173
_cell_formula_units_Z   8
loop_
 _symmetry_equiv_pos_site_id
 _symmetry_equiv_pos_as_xyz
  1  'x, y, z'
loop_
 _atom_site_type_symbol
 _atom_site_label
 _atom_site_symmetry_multiplicity
 _atom_site_fract_x
 _atom_site_fract_y
 _atom_site_fract_z
 _atom_site_occupancy
 _atom_site_hle17_bader_spin_density
 _atom_site_hle17_ddec_charge
 _atom_site_hle17_ddec_spin_density
 _atom_site_hle17_ddec_sum_bond_order
 _atom_site_hle17_magmom
 _atom_site_hse06_10hf_bader_spin_density
 _atom_site_hse06_10hf_ddec_charge
 _atom_site_hse06_10hf_ddec_spin_density
 _atom_site_hse06_10hf_ddec_sum_bond_order
 _atom_site_hse06_10hf_magmom
 _atom_site_hse06_bader_spin_density
 _atom_site_hse06_ddec_charge
 _atom_site_hse06_ddec_spin_density
 _atom_site_hse06_ddec_sum_bond_order
 _atom_site_hse06_magmom
 _atom_site_pbe_bader_spin_density
 _atom_site_pbe_cm5_charge
 _atom_site_pbe_ddec_charge
 _atom_site_pbe_ddec_spin_density
 _atom_site_pbe_ddec_sum_bond_order
 _atom_site_pbe_magmom
Ag  Ag0  1  0.92120072  0.56984722  0.70661809  1  0  0.38351  0  1.772877  0  0  0.270685  0  2.276124  0  0  0.293457  0  2.23238  0  0  0.307042  0.253632  0  2.30732  0
Ag  Ag1  1  0.07880698  0.93015624  0.20661724  1  0  0.383548  0  1.772901  0  0  0.270727  0  2.27614  0  0  0.293502  0  2.232401  0  0  0.307076  0.253675  0  2.307332  0
Ag  Ag2  1  0.42119325  0.43015422  0.79338194  1  0  0.383544  0  1.772882  0  0  0.27072  0  2.276122  0  0  0.293495  0  2.232378  0  0  0.307052  0.253669  0  2.307317  0
Ag  Ag3  1  0.57880772  0.06984593  0.29338299  1  0  0.383546  0  1.772902  0  0  0.270714  0  2.27616  0  0  0.29349  0  2.232408  0  0  0.307061  0.253664  0  2.307353  0
Ag  Ag4  1  0.07881003  0.43015705  0.29338254  1  0  0.383536  0  1.772956  0  0  0.27072  0  2.276207  0  0  0.293493  0  2.232462  0  0  0.307077  0.25367  0  2.307401  0
Ag  Ag5  1  0.92119479  0.06984607  0.79338188  1  0  0.383544  0  1.772895  0  0  0.270722  0  2.276143  0  0  0.293498  0  2.232401  0  0  0.307051  0.25367  0  2.307334  0
Ag  Ag6  1  0.57880595  0.56984512  0.20661718  1  0  0.383537  0  1.772915  0  0  0.270723  0  2.276142  0  0  0.293497  0  2.232403  0  0  0.307065  0.253672  0  2.307336  0
Ag  Ag7  1  0.42119148  0.93015538  0.70661714  1  0  0.383512  0  1.77296  0  0  0.270695  0  2.276201  0  0  0.293467  0  2.232457  0  0  0.307075  0.253647  0  2.307389  0
Ag  Ag8  1  0.60597539  0.19506770  0.67470593  1  0  0.352208  0  1.831941  0  0  0.249269  0  2.340099  0  0  0.274555  0  2.292184  0  0  0.268601  0.232184  0  2.373902  0
Ag  Ag9  1  0.39401687  0.30492652  0.17470623  1  0  0.352275  0  1.831843  0  0  0.249362  0  2.34  0  0  0.274641  0  2.292089  0  0  0.268626  0.23228  0  2.373801  0
Ag  Ag10  1  0.10598214  0.80492596  0.82529316  1  0  0.35224  0  1.83185  0  0  0.249317  0  2.34001  0  0  0.274597  0  2.292102  0  0  0.268616  0.232237  0  2.373811  0
Ag  Ag11  1  0.89402144  0.69507064  0.32529493  1  0  0.352235  0  1.831869  0  0  0.249316  0  2.340004  0  0  0.274603  0  2.292093  0  0  0.268621  0.232235  0  2.373807  0
Ag  Ag12  1  0.39402124  0.80492771  0.32529420  1  0  0.352255  0  1.831834  0  0  0.249338  0  2.339977  0  0  0.274624  0  2.29206  0  0  0.268623  0.232256  0  2.373781  0
Ag  Ag13  1  0.60598233  0.69507480  0.82529288  1  0  0.352234  0  1.831862  0  0  0.249302  0  2.340028  0  0  0.274583  0  2.292111  0  0  0.268609  0.232222  0  2.373832  0
Ag  Ag14  1  0.89401963  0.19507437  0.17470645  1  0  0.35224  0  1.831857  0  0  0.249326  0  2.340003  0  0  0.274604  0  2.292092  0  0  0.268615  0.232244  0  2.373803  0
Ag  Ag15  1  0.10598547  0.30492379  0.67470722  1  0  0.352233  0  1.831837  0  0  0.249298  0  2.339999  0  0  0.274579  0  2.292086  0  0  0.268611  0.232215  0  2.373801  0
H  H16  1  0.77233710  0.99042299  0.53550641  1  0  0.098391  0  0.953998  0  0  0.108976  0  1.018036  0  0  0.111946  0  1.014848  0  0  0.122612  0.106702  0  1.020515  0
H  H17  1  0.22765760  0.50957309  0.03550583  1  0  0.098387  0  0.954009  0  0  0.108973  0  1.018049  0  0  0.111942  0  1.014862  0  0  0.122605  0.106699  0  1.020528  0
H  H18  1  0.27234154  0.00957456  0.96449241  1  0  0.09836  0  0.954064  0  0  0.10895  0  1.018103  0  0  0.111919  0  1.014915  0  0  0.122608  0.106685  0  1.020568  0
H  H19  1  0.72766216  0.49042509  0.46449308  1  0  0.098421  0  0.953894  0  0  0.109021  0  1.017925  0  0  0.11199  0  1.014736  0  0  0.122624  0.106745  0  1.020406  0
H  H20  1  0.22766082  0.00957439  0.46449422  1  0  0.098396  0  0.953927  0  0  0.108985  0  1.017966  0  0  0.111954  0  1.014779  0  0  0.1226  0.106709  0  1.020446  0
H  H21  1  0.77233775  0.49042724  0.96449379  1  0  0.098425  0  0.953954  0  0  0.109011  0  1.017999  0  0  0.111981  0  1.014811  0  0  0.12262  0.106736  0  1.020479  0
H  H22  1  0.72765894  0.99042577  0.03550671  1  0  0.098297  0  0.953928  0  0  0.108907  0  1.017965  0  0  0.111874  0  1.014782  0  0  0.122588  0.106635  0  1.020443  0
H  H23  1  0.27234218  0.50957327  0.53550654  1  0  0.098355  0  0.95408  0  0  0.108954  0  1.018115  0  0  0.111922  0  1.01493  0  0  0.122617  0.106679  0  1.020595  0
H  H24  1  0.95118621  0.79692297  0.49627557  1  0  0.100549  0  0.976342  0  0  0.117233  0  1.047911  0  0  0.118704  0  1.04727  0  0  0.091001  0.115949  0  1.048766  0
H  H25  1  0.04880982  0.70307412  0.99627654  1  0  0.100571  0  0.976422  0  0  0.117235  0  1.048  0  0  0.118699  0  1.04737  0  0  0.091015  0.115978  0  1.048831  0
H  H26  1  0.45118923  0.20307713  0.00372314  1  0  0.10055  0  0.976405  0  0  0.117236  0  1.047971  0  0  0.118702  0  1.047339  0  0  0.091005  0.115978  0  1.048803  0
H  H27  1  0.54881314  0.29692743  0.50372348  1  0  0.100562  0  0.9764  0  0  0.117219  0  1.04799  0  0  0.118681  0  1.047356  0  0  0.091013  0.115956  0  1.048827  0
H  H28  1  0.04881299  0.20307638  0.50372455  1  0  0.100572  0  0.976333  0  0  0.117258  0  1.047902  0  0  0.118729  0  1.047261  0  0  0.091013  0.115972  0  1.048758  0
H  H29  1  0.95118681  0.29692621  0.00372409  1  0  0.100557  0  0.976374  0  0  0.117226  0  1.04796  0  0  0.118691  0  1.047323  0  0  0.091013  0.11595  0  1.048807  0
H  H30  1  0.54881125  0.79692419  0.99627699  1  0  0.100552  0  0.97642  0  0  0.117241  0  1.047984  0  0  0.118706  0  1.047349  0  0  0.091013  0.115984  0  1.048815  0
H  H31  1  0.45118735  0.70307389  0.49627614  1  0  0.10058  0  0.976351  0  0  0.11726  0  1.047922  0  0  0.11873  0  1.047278  0  0  0.091017  0.115976  0  1.048776  0
H  H32  1  0.98338351  0.67626441  0.56155327  1  0  0.09409  0  0.9691  0  0  0.105575  0  1.052878  0  0  0.107379  0  1.050835  0  0  0.088472  0.104254  0  1.054277  0
H  H33  1  0.01661141  0.82373190  0.06155461  1  0  0.093997  0  0.969316  0  0  0.105502  0  1.05306  0  0  0.107307  0  1.051015  0  0  0.088429  0.104183  0  1.054455  0
H  H34  1  0.48338630  0.32373407  0.93844483  1  0  0.09403  0  0.96917  0  0  0.105532  0  1.052947  0  0  0.107337  0  1.050902  0  0  0.088463  0.104213  0  1.054343  0
H  H35  1  0.51661461  0.17626832  0.43844552  1  0  0.09402  0  0.969274  0  0  0.105517  0  1.053036  0  0  0.107322  0  1.05099  0  0  0.088462  0.104198  0  1.054432  0
H  H36  1  0.01661569  0.32373395  0.43844686  1  0  0.094085  0  0.96912  0  0  0.105569  0  1.052901  0  0  0.107373  0  1.050859  0  0  0.088479  0.10425  0  1.054297  0
H  H37  1  0.98338522  0.17626844  0.93844602  1  0  0.094002  0  0.969281  0  0  0.105499  0  1.053041  0  0  0.107304  0  1.050996  0  0  0.088457  0.104179  0  1.054435  0
H  H38  1  0.51661418  0.67626626  0.06155429  1  0  0.09403  0  0.969208  0  0  0.105533  0  1.052979  0  0  0.107339  0  1.050933  0  0  0.088467  0.104214  0  1.054375  0
H  H39  1  0.48338459  0.82373300  0.56155410  1  0  0.094013  0  0.969256  0  0  0.105509  0  1.053012  0  0  0.107314  0  1.05097  0  0  0.088464  0.10419  0  1.054405  0
H  H40  1  0.15086622  0.78903992  0.54047006  1  0  0.10329  0  0.944291  0  0  0.123803  0  1.008336  0  0  0.124136  0  1.009126  0  0  0.097265  0.123662  0  1.007968  0
H  H41  1  0.84912980  0.71095621  0.04047028  1  0  0.10326  0  0.944308  0  0  0.123765  0  1.008355  0  0  0.124099  0  1.009143  0  0  0.097239  0.123625  0  1.007989  0
H  H42  1  0.65086830  0.21095964  0.95952909  1  0  0.103265  0  0.944301  0  0  0.123792  0  1.008335  0  0  0.124125  0  1.009123  0  0  0.097253  0.123651  0  1.007969  0
H  H43  1  0.34913407  0.28904392  0.45952930  1  0  0.103299  0  0.944334  0  0  0.123817  0  1.008352  0  0  0.124151  0  1.009141  0  0  0.097255  0.123676  0  1.007986  0
H  H44  1  0.84913426  0.21095844  0.45952955  1  0  0.103295  0  0.94431  0  0  0.123817  0  1.008335  0  0  0.12415  0  1.009128  0  0  0.097263  0.123676  0  1.007969  0
H  H45  1  0.15086683  0.28904314  0.95953035  1  0  0.103282  0  0.94432  0  0  0.123803  0  1.00834  0  0  0.124136  0  1.00913  0  0  0.097252  0.123662  0  1.007972  0
H  H46  1  0.34913218  0.78904168  0.04047053  1  0  0.103278  0  0.944332  0  0  0.123807  0  1.008361  0  0  0.124138  0  1.009151  0  0  0.097252  0.123665  0  1.007995  0
H  H47  1  0.65086770  0.71095740  0.54047032  1  0  0.103288  0  0.944315  0  0  0.123805  0  1.008341  0  0  0.124137  0  1.009135  0  0  0.097252  0.123664  0  1.007975  0
C  C48  1  0.98853033  0.87517248  0.66244468  1  0  0.280702  0  3.813678  0  0  0.246917  0  4.08941  0  0  0.264072  0  4.105249  0  0  0.195224  0.235064  0  4.078548  0
C  C49  1  0.01146930  0.62482568  0.16244558  1  0  0.28051  0  3.813779  0  0  0.246698  0  4.089555  0  0  0.26385  0  4.1054  0  0  0.195154  0.234844  0  4.078691  0
C  C50  1  0.48853236  0.12482600  0.83755443  1  0  0.28059  0  3.813839  0  0  0.246786  0  4.089592  0  0  0.263941  0  4.105432  0  0  0.195174  0.234933  0  4.078722  0
C  C51  1  0.51146899  0.37517355  0.33755455  1  0  0.28057  0  3.813774  0  0  0.246774  0  4.089517  0  0  0.263928  0  4.105363  0  0  0.195202  0.234921  0  4.078655  0
C  C52  1  0.01147273  0.12482884  0.33755494  1  0  0.280695  0  3.81365  0  0  0.246905  0  4.089369  0  0  0.26406  0  4.105213  0  0  0.195204  0.235051  0  4.078509  0
C  C53  1  0.98853118  0.37517465  0.83755556  1  0  0.280701  0  3.813672  0  0  0.246895  0  4.089423  0  0  0.26405  0  4.105267  0  0  0.195232  0.235045  0  4.07855  0
C  C54  1  0.51146941  0.87517335  0.16244570  1  0  0.280553  0  3.813786  0  0  0.246757  0  4.089504  0  0  0.263912  0  4.10535  0  0  0.195185  0.234904  0  4.078641  0
C  C55  1  0.48852893  0.62482678  0.66244507  1  0  0.280684  0  3.813633  0  0  0.246876  0  4.089384  0  0  0.264031  0  4.10523  0  0  0.195217  0.235022  0  4.078527  0
C  C56  1  0.83232300  0.97019166  0.58404240  1  0  0.149639  0  3.669389  0  0  0.089211  0  3.93662  0  0  0.101281  0  3.949815  0  0  0.141711  0.081363  0  3.927916  0
C  C57  1  0.16767468  0.52980484  0.08404280  1  0  0.149563  0  3.669332  0  0  0.089153  0  3.936569  0  0  0.101221  0  3.949766  0  0  0.141688  0.081302  0  3.927874  0
C  C58  1  0.33232446  0.02980588  0.91595801  1  0  0.149605  0  3.669237  0  0  0.089186  0  3.936496  0  0  0.101255  0  3.949693  0  0  0.141665  0.08133  0  3.927786  0
C  C59  1  0.66767241  0.47019435  0.41595552  1  0  0.149519  0  3.669451  0  0  0.089085  0  3.9367  0  0  0.101149  0  3.949905  0  0  0.141675  0.081234  0  3.928011  0
C  C60  1  0.16767363  0.02980572  0.41595621  1  0  0.149658  0  3.669498  0  0  0.08923  0  3.936751  0  0  0.101298  0  3.949948  0  0  0.141715  0.081383  0  3.92805  0
C  C61  1  0.83232324  0.47019549  0.91595581  1  0  0.149551  0  3.66934  0  0  0.089113  0  3.936587  0  0  0.101184  0  3.94978  0  0  0.141666  0.081266  0  3.927889  0
C  C62  1  0.66767346  0.97019445  0.08404515  1  0  0.149624  0  3.66931  0  0  0.089179  0  3.936572  0  0  0.101246  0  3.949772  0  0  0.141679  0.081326  0  3.927873  0
C  C63  1  0.33232165  0.52980500  0.58404106  1  0  0.149548  0  3.669206  0  0  0.089099  0  3.936441  0  0  0.101166  0  3.949641  0  0  0.141574  0.081244  0  3.927762  0
C  C64  1  0.01151453  0.77750876  0.54533560  1  0  -0.163966  0  3.658209  0  0  -0.266841  0  3.906332  0  0  -0.263459  0  3.914612  0  0  -0.143658  -0.269007  0  3.900563  0
C  C65  1  0.98848282  0.72248840  0.04533704  1  0  -0.163948  0  3.658538  0  0  -0.266812  0  3.906705  0  0  -0.26342  0  3.914984  0  0  -0.143598  -0.269003  0  3.900907  0
C  C66  1  0.51151656  0.22249084  0.95466286  1  0  -0.163897  0  3.658352  0  0  -0.2668  0  3.906519  0  0  -0.263415  0  3.914808  0  0  -0.143626  -0.26899  0  3.900719  0
C  C67  1  0.48848449  0.27751169  0.45466323  1  0  -0.164001  0  3.65844  0  0  -0.266857  0  3.906578  0  0  -0.263469  0  3.914869  0  0  -0.143646  -0.269043  0  3.900788  0
C  C68  1  0.98848595  0.22249158  0.45466402  1  0  -0.163974  0  3.658263  0  0  -0.266847  0  3.90638  0  0  -0.263463  0  3.914657  0  0  -0.143674  -0.269013  0  3.900613  0
C  C69  1  0.01151509  0.27751194  0.95466359  1  0  -0.163928  0  3.658398  0  0  -0.266793  0  3.906502  0  0  -0.263406  0  3.914793  0  0  -0.143631  -0.268966  0  3.900718  0
C  C70  1  0.48848392  0.77751048  0.04533727  1  0  -0.163971  0  3.658398  0  0  -0.266895  0  3.906587  0  0  -0.263505  0  3.914872  0  0  -0.143657  -0.269085  0  3.900789  0
C  C71  1  0.51151471  0.72248864  0.54533638  1  0  -0.163974  0  3.658378  0  0  -0.266847  0  3.906493  0  0  -0.263463  0  3.914773  0  0  -0.143648  -0.269012  0  3.900721  0
S  S72  1  0.12655195  0.76543486  0.70033585  1  0  -0.368408  0  2.635707  0  0  -0.309629  0  3.112147  0  0  -0.328276  0  3.093271  0  0  -0.208433  -0.294761  0  3.12464  0
S  S73  1  0.87345184  0.73456461  0.20033767  1  0  -0.368396  0  2.635615  0  0  -0.309604  0  3.112042  0  0  -0.328257  0  3.093185  0  0  -0.208451  -0.294737  0  3.124535  0
S  S74  1  0.62655139  0.23456470  0.79966327  1  0  -0.36844  0  2.635721  0  0  -0.30965  0  3.112155  0  0  -0.328299  0  3.093286  0  0  -0.208463  -0.294784  0  3.124646  0
S  S75  1  0.37344835  0.26543452  0.29966346  1  0  -0.368446  0  2.635662  0  0  -0.309686  0  3.112149  0  0  -0.328318  0  3.093242  0  0  -0.208476  -0.29482  0  3.124645  0
S  S76  1  0.87345238  0.23456744  0.29966428  1  0  -0.36844  0  2.635662  0  0  -0.309683  0  3.112132  0  0  -0.328313  0  3.093218  0  0  -0.208451  -0.294816  0  3.124629  0
S  S77  1  0.12655249  0.26543572  0.79966499  1  0  -0.368457  0  2.63568  0  0  -0.30968  0  3.11215  0  0  -0.328313  0  3.093244  0  0  -0.208448  -0.294813  0  3.124642  0
S  S78  1  0.37344910  0.76543563  0.20033685  1  0  -0.368402  0  2.635664  0  0  -0.309638  0  3.11213  0  0  -0.328274  0  3.093233  0  0  -0.208453  -0.29477  0  3.124623  0
S  S79  1  0.62654828  0.73456679  0.70033616  1  0  -0.368436  0  2.635608  0  0  -0.309673  0  3.112103  0  0  -0.328294  0  3.093166  0  0  -0.208451  -0.294806  0  3.124598  0
I  I80  1  0.81133182  0.39586389  0.60368444  1  0  -0.415915  0  1.561728  0  0  -0.338722  0  2.028996  0  0  -0.361184  0  1.992358  0  0  -0.182447  -0.322572  0  2.05486  0
I  I81  1  0.18865984  0.10413070  0.10367694  1  0  -0.415961  0  1.561729  0  0  -0.338781  0  2.029008  0  0  -0.36125  0  1.992385  0  0  -0.182472  -0.322653  0  2.054903  0
I  I82  1  0.31134054  0.60413464  0.89631999  1  0  -0.415957  0  1.561754  0  0  -0.338763  0  2.029031  0  0  -0.361232  0  1.992403  0  0  -0.18247  -0.322643  0  2.054948  0
I  I83  1  0.68866876  0.89586849  0.39632242  1  0  -0.415956  0  1.561723  0  0  -0.338767  0  2.029  0  0  -0.361242  0  1.992379  0  0  -0.182467  -0.322647  0  2.054904  0
I  I84  1  0.18866866  0.60413054  0.39632327  1  0  -0.41597  0  1.56177  0  0  -0.338785  0  2.029042  0  0  -0.361258  0  1.992425  0  0  -0.182465  -0.322658  0  2.054937  0
I  I85  1  0.81134193  0.89586767  0.89632066  1  0  -0.415949  0  1.561748  0  0  -0.338747  0  2.029002  0  0  -0.361226  0  1.9924  0  0  -0.182466  -0.32263  0  2.054918  0
I  I86  1  0.68865866  0.39586668  0.10367963  1  0  -0.415952  0  1.561777  0  0  -0.338758  0  2.02905  0  0  -0.361229  0  1.992429  0  0  -0.182456  -0.322636  0  2.054962  0
I  I87  1  0.31133172  0.10412889  0.60367669  1  0  -0.415961  0  1.561789  0  0  -0.338763  0  2.029043  0  0  -0.361246  0  1.992449  0  0  -0.182471  -0.322646  0  2.054953  0
N  N88  1  0.80573376  0.03444960  0.64090446  1  0  -0.231428  0  3.243286  0  0  -0.178584  0  3.547115  0  0  -0.191089  0  3.561621  0  0  -0.261928  -0.171435  0  3.538867  0
N  N89  1  0.19426335  0.46554827  0.14090435  1  0  -0.23147  0  3.243351  0  0  -0.178671  0  3.547217  0  0  -0.191172  0  3.56172  0  0  -0.26191  -0.171521  0  3.538968  0
N  N90  1  0.30573686  0.96554795  0.85909389  1  0  -0.231413  0  3.243245  0  0  -0.178614  0  3.547104  0  0  -0.191116  0  3.561605  0  0  -0.261873  -0.171465  0  3.538855  0
N  N91  1  0.69426314  0.53445190  0.35909553  1  0  -0.231478  0  3.24334  0  0  -0.178669  0  3.547212  0  0  -0.191173  0  3.561716  0  0  -0.261939  -0.171519  0  3.538964  0
N  N92  1  0.19426416  0.96554877  0.35909617  1  0  -0.231476  0  3.243402  0  0  -0.178676  0  3.547263  0  0  -0.191179  0  3.561768  0  0  -0.261951  -0.171525  0  3.539014  0
N  N93  1  0.80573585  0.53445207  0.85909527  1  0  -0.231509  0  3.243393  0  0  -0.178673  0  3.547235  0  0  -0.191175  0  3.561741  0  0  -0.261932  -0.171524  0  3.538988  0
N  N94  1  0.69426362  0.03445140  0.14090522  1  0  -0.231446  0  3.243304  0  0  -0.178644  0  3.547165  0  0  -0.191147  0  3.561667  0  0  -0.261917  -0.171495  0  3.538917  0
N  N95  1  0.30573734  0.46554646  0.64090510  1  0  -0.231369  0  3.243079  0  0  -0.17852  0  3.546913  0  0  -0.191023  0  3.561417  0  0  -0.261798  -0.171371  0  3.538666  0
N  N96  1  0.90363541  0.97571409  0.69021825  1  0  -0.28347  0  3.212965  0  0  -0.221133  0  3.515027  0  0  -0.237319  0  3.529159  0  0  -0.268896  -0.21003  0  3.505977  0
N  N97  1  0.09636317  0.52428332  0.19021854  1  0  -0.283358  0  3.212998  0  0  -0.220977  0  3.515033  0  0  -0.237162  0  3.529168  0  0  -0.26886  -0.209874  0  3.505984  0
N  N98  1  0.40363854  0.02428441  0.80978074  1  0  -0.28337  0  3.21311  0  0  -0.220989  0  3.51514  0  0  -0.237173  0  3.52927  0  0  -0.268874  -0.209886  0  3.506087  0
N  N99  1  0.59636257  0.47571589  0.30978120  1  0  -0.283452  0  3.213044  0  0  -0.22108  0  3.515084  0  0  -0.237265  0  3.529216  0  0  -0.268906  -0.209976  0  3.506036  0
N  N100  1  0.09636507  0.02428526  0.30978137  1  0  -0.283465  0  3.212976  0  0  -0.221079  0  3.514999  0  0  -0.237266  0  3.529135  0  0  -0.268895  -0.209975  0  3.505952  0
N  N101  1  0.90363860  0.47571602  0.80978159  1  0  -0.283382  0  3.213003  0  0  -0.221023  0  3.515046  0  0  -0.237209  0  3.529176  0  0  -0.268862  -0.209921  0  3.506003  0
N  N102  1  0.59636323  0.97571690  0.19021938  1  0  -0.283442  0  3.213082  0  0  -0.221044  0  3.515094  0  0  -0.237229  0  3.529225  0  0  -0.268874  -0.209942  0  3.506048  0
N  N103  1  0.40363792  0.52428445  0.69021842  1  0  -0.283459  0  3.213013  0  0  -0.221097  0  3.515056  0  0  -0.237282  0  3.529186  0  0  -0.268918  -0.209994  0  3.506011  0
N  N104  1  0.94604531  0.87042978  0.59475477  1  0  -0.099191  0  3.564017  0  0  0.003226  0  3.779512  0  0  -0.014213  0  3.804669  0  0  -0.246575  0.015001  0  3.761877  0
N  N105  1  0.05394989  0.62956878  0.09475473  1  0  -0.098936  0  3.563782  0  0  0.003474  0  3.779301  0  0  -0.013964  0  3.804455  0  0  -0.246534  0.015248  0  3.76167  0
N  N106  1  0.44605048  0.12956969  0.90524479  1  0  -0.09908  0  3.563881  0  0  0.003328  0  3.779435  0  0  -0.01411  0  3.804586  0  0  -0.24655  0.015102  0  3.761802  0
N  N107  1  0.55395400  0.37043241  0.40524445  1  0  -0.098846  0  3.563893  0  0  0.00357  0  3.779392  0  0  -0.01387  0  3.804549  0  0  -0.246483  0.015343  0  3.761761  0
N  N108  1  0.05395646  0.12956957  0.40524536  1  0  -0.099197  0  3.564024  0  0  0.003215  0  3.779542  0  0  -0.014225  0  3.804698  0  0  -0.246533  0.01499  0  3.761906  0
N  N109  1  0.94604674  0.37043254  0.90524540  1  0  -0.099072  0  3.563877  0  0  0.00335  0  3.779373  0  0  -0.01409  0  3.804526  0  0  -0.246563  0.015126  0  3.761737  0
N  N110  1  0.55395386  0.87043162  0.09475584  1  0  -0.09889  0  3.563832  0  0  0.003534  0  3.779342  0  0  -0.013906  0  3.804496  0  0  -0.246484  0.015308  0  3.761709  0
N  N111  1  0.44604776  0.62956989  0.59475466  1  0  -0.099054  0  3.563844  0  0  0.003366  0  3.779352  0  0  -0.014074  0  3.80451  0  0  -0.246538  0.015141  0  3.761717  0
