# generated using pymatgen
data_CoH6C6(NO)4
_symmetry_space_group_name_H-M   'P 1'
_cell_length_a   6.50030291
_cell_length_b   7.52782073
_cell_length_c   9.03253215
_cell_angle_alpha   99.31301661
_cell_angle_beta   92.77865596
_cell_angle_gamma   109.25587637
_symmetry_Int_Tables_number   1
_chemical_formula_structural   CoH6C6(NO)4
_chemical_formula_sum   'Co2 H12 C12 N8 O8'
_cell_volume   409.29495461
_cell_formula_units_Z   2
loop_
 _symmetry_equiv_pos_site_id
 _symmetry_equiv_pos_as_xyz
  1  'x, y, z'
loop_
 _atom_site_type_symbol
 _atom_site_label
 _atom_site_symmetry_multiplicity
 _atom_site_fract_x
 _atom_site_fract_y
 _atom_site_fract_z
 _atom_site_occupancy
 _atom_site_pbe_cm5_charge
 _atom_site_pbe_ddec_charge
 _atom_site_pbe_ddec_spin_density
 _atom_site_pbe_ddec_sum_bond_order
 _atom_site_pbe_magmom
Co  Co0  1  0.00000132  0.50000243  0.50000159  1  0.665198  0.958559  -2.751208  2.454215  -2.499
Co  Co1  1  0.99999927  0.00000129  0.49999810  1  0.673624  1.053687  -2.814749  2.369338  -2.558
H  H2  1  0.30175645  0.70132077  0.93338219  1  0.111121  0.121153  -0.000452  1.037192  0.0
H  H3  1  0.69824330  0.29868871  0.06662718  1  0.111148  0.121169  -0.000452  1.037222  0.0
H  H4  1  0.36202616  0.78565969  0.21674024  1  0.129216  0.118995  -0.00074  1.038633  0.0
H  H5  1  0.63796904  0.21432973  0.78326829  1  0.129204  0.119047  -0.00074  1.038542  0.0
H  H6  1  0.20709289  0.21720911  0.25573734  1  0.13233  0.120542  0.00023  1.045061  0.0
H  H7  1  0.79290602  0.78278068  0.74425371  1  0.13233  0.120558  0.00023  1.044985  0.0
H  H8  1  0.14195376  0.10888476  0.97065981  1  0.115234  0.126384  -2.2e-05  1.007216  0.0
H  H9  1  0.85804537  0.89111363  0.02933025  1  0.11521  0.126389  -2.2e-05  1.007273  0.0
H  H10  1  0.44455975  0.26283278  0.52497889  1  0.303103  0.402329  -0.001048  0.919869  -0.002
H  H11  1  0.55544828  0.73716552  0.47502266  1  0.30312  0.402349  -0.001048  0.919849  -0.002
H  H12  1  0.39729031  0.09344231  0.38532655  1  0.302086  0.371151  -0.001012  0.968554  -0.002
H  H13  1  0.60270748  0.90655307  0.61467076  1  0.302097  0.371188  -0.001012  0.968509  -0.002
C  C14  1  0.20466916  0.39582858  0.92986425  1  -0.008594  -0.021061  -0.011535  3.968452  -0.015
C  C15  1  0.79532880  0.60417961  0.07013599  1  -0.008539  -0.021028  -0.011534  3.968517  -0.015
C  C16  1  0.27606143  0.58887545  0.99990470  1  -0.074015  -0.116863  0.006213  3.977376  0.004
C  C17  1  0.72393809  0.41112543  0.00010566  1  -0.073961  -0.116653  0.006211  3.976933  0.004
C  C18  1  0.31008786  0.63885177  0.15548085  1  0.04225  -0.030696  -0.008364  3.842993  -0.011
C  C19  1  0.68991070  0.36114631  0.84452574  1  0.042186  -0.030984  -0.008363  3.842835  -0.011
C  C20  1  0.22210337  0.31375447  0.17679183  1  0.045715  -0.017914  -0.007064  3.819766  -0.009
C  C21  1  0.77789265  0.68623229  0.82320641  1  0.045708  -0.017903  -0.007063  3.819816  -0.009
C  C22  1  0.18551873  0.25927861  0.02173381  1  -0.07136  -0.113074  0.006722  3.957942  0.004
C  C23  1  0.81448237  0.74072541  0.97826267  1  -0.071399  -0.113183  0.00672  3.958126  0.004
C  C24  1  0.13869259  0.33617481  0.76286989  1  0.209175  0.576516  0.008311  4.189812  0.004
C  C25  1  0.86131106  0.66383629  0.23713215  1  0.209136  0.576457  0.008307  4.190011  0.004
N  N26  1  0.27651467  0.50188455  0.24185655  1  -0.113163  0.324267  0.008687  3.908903  0.007
N  N27  1  0.72348130  0.49810643  0.75814559  1  -0.113108  0.324338  0.008683  3.908857  0.007
N  N28  1  0.90194776  0.20672261  0.40932671  1  -0.295077  -0.568231  -0.030641  3.251715  -0.043
N  N29  1  0.09805427  0.79328419  0.59067463  1  -0.295073  -0.568243  -0.030638  3.25168  -0.043
N  N30  1  0.74307593  0.14059326  0.31761966  1  0.092214  0.439267  -0.005139  4.45316  -0.007
N  N31  1  0.25692611  0.85940930  0.68237888  1  0.092198  0.439265  -0.005139  4.453379  -0.007
N  N32  1  0.58624216  0.07661996  0.23020405  1  -0.173791  -0.36309  -0.07109  2.652552  -0.101
N  N33  1  0.41376146  0.92337841  0.76979066  1  -0.173768  -0.363081  -0.071085  2.652813  -0.101
O  O34  1  0.16829105  0.47051676  0.68832677  1  -0.310932  -0.556853  -0.024627  2.381036  -0.042
O  O35  1  0.83171225  0.52949725  0.31167233  1  -0.310961  -0.556865  -0.024624  2.381071  -0.042
O  O36  1  0.05273397  0.15633214  0.71285200  1  -0.314725  -0.56696  -0.032373  2.36838  -0.055
O  O37  1  0.94727379  0.84367335  0.28714723  1  -0.314661  -0.566893  -0.032372  2.368431  -0.055
O  O38  1  0.29596944  0.55265834  0.39177686  1  -0.219034  -0.47879  -0.02787  2.098827  -0.046
O  O39  1  0.70402902  0.44732696  0.60822461  1  -0.219068  -0.478777  -0.027871  2.09867  -0.046
O  O40  1  0.33283735  0.14002082  0.47322836  1  -0.571174  -0.773202  -0.025209  2.216627  -0.04
O  O41  1  0.66716282  0.85998465  0.52676607  1  -0.571203  -0.773267  -0.025209  2.21656  -0.04
