# generated using pymatgen
data_Ni3H48C72(N2O3)4
_symmetry_space_group_name_H-M   'P 1'
_cell_length_a   5.31749380
_cell_length_b   36.60990775
_cell_length_c   36.60991351
_cell_angle_alpha   119.99998957
_cell_angle_beta   89.99999124
_cell_angle_gamma   90.00000240
_symmetry_Int_Tables_number   1
_chemical_formula_structural   Ni3H48C72(N2O3)4
_chemical_formula_sum   'Ni3 H48 C72 N8 O12'
_cell_volume   6172.12918035
_cell_formula_units_Z   1
loop_
 _symmetry_equiv_pos_site_id
 _symmetry_equiv_pos_as_xyz
  1  'x, y, z'
loop_
 _atom_site_type_symbol
 _atom_site_label
 _atom_site_symmetry_multiplicity
 _atom_site_fract_x
 _atom_site_fract_y
 _atom_site_fract_z
 _atom_site_occupancy
 _atom_site_pbe_bader_charge
 _atom_site_pbe_bader_spin_density
 _atom_site_pbe_cm5_charge
 _atom_site_pbe_ddec_charge
 _atom_site_pbe_ddec_spin_density
 _atom_site_pbe_ddec_sum_bond_order
 _atom_site_pbe_magmom
Ni  Ni0  1  0.50000220  0.00000008  0.49999988  1  1.17202  1.55786  0.645904  0.728639  1.807168  2.628564  1.544
Ni  Ni1  1  0.50000065  0.49999999  0.00000013  1  1.172089  1.557856  0.645851  0.728529  1.807163  2.628601  1.544
Ni  Ni2  1  0.50000039  0.50000007  0.50000002  1  1.168337  -1.557677  0.645672  0.728289  -1.867404  2.628676  -1.544
H  H3  1  0.77530669  0.28355874  0.59867539  1  0.070697  4e-06  0.104013  0.112808  7e-06  1.003173  0.0
H  H4  1  0.77530664  0.31511666  0.71644148  1  0.076872  -2e-06  0.104014  0.112805  2e-06  1.003176  0.0
H  H5  1  0.77530667  0.40132503  0.68488335  1  0.05754  -6e-06  0.104007  0.112793  -8e-06  1.003179  0.0
H  H6  1  0.77530686  0.71644140  0.40132464  1  0.070701  4e-06  0.104016  0.112812  7e-06  1.003165  0.0
H  H7  1  0.77530692  0.68488333  0.28355870  1  0.076869  -2e-06  0.104012  0.112806  2e-06  1.003179  0.0
H  H8  1  0.77530689  0.59867512  0.31511668  1  0.057535  -6e-06  0.103993  0.112764  -8e-06  1.003192  0.0
H  H9  1  0.77663064  0.20555014  0.55972769  1  0.088692  7.6e-05  0.104487  0.10484  3.9e-05  0.994945  0.0
H  H10  1  0.77663053  0.35417767  0.79444984  1  0.072939  7.1e-05  0.104487  0.104856  3.7e-05  0.994939  0.0
H  H11  1  0.77663062  0.44027234  0.64582242  1  0.053506  -7.4e-05  0.104484  0.104854  -3.9e-05  0.994945  0.0
H  H12  1  0.77663078  0.79445000  0.44027233  1  0.088689  7.5e-05  0.104483  0.104836  3.9e-05  0.994949  0.0
H  H13  1  0.77663089  0.64582247  0.20555019  1  0.07294  7.1e-05  0.104488  0.104864  3.7e-05  0.994929  0.0
H  H14  1  0.77663079  0.55972780  0.35417761  1  0.053508  -7.4e-05  0.104484  0.104855  -3.9e-05  0.994948  0.0
H  H15  1  0.22469200  0.28355854  0.68488337  1  0.07681  -2e-06  0.104003  0.11278  2e-06  1.003181  0.0
H  H16  1  0.22469200  0.40132466  0.71644130  1  0.070642  4e-06  0.104002  0.112783  7e-06  1.003175  0.0
H  H17  1  0.22469205  0.31511669  0.59867502  1  0.057488  -6e-06  0.104  0.112774  -8e-06  1.003182  0.0
H  H18  1  0.22469225  0.71644145  0.31511682  1  0.076811  -2e-06  0.104011  0.112797  2e-06  1.003167  0.0
H  H19  1  0.22469225  0.59867549  0.28355874  1  0.070646  4e-06  0.104011  0.112812  7e-06  1.003167  0.0
H  H20  1  0.22469220  0.68488319  0.40132474  1  0.057487  -6e-06  0.103999  0.112769  -8e-06  1.003185  0.0
H  H21  1  0.22336807  0.20555017  0.64582236  1  0.072931  7.1e-05  0.104487  0.104863  3.7e-05  0.994956  0.0
H  H22  1  0.22336803  0.44027208  0.79444961  1  0.088689  7.5e-05  0.104492  0.10485  3.9e-05  0.994962  0.0
H  H23  1  0.22336814  0.35417763  0.55972772  1  0.053502  -7.4e-05  0.104491  0.104866  -3.9e-05  0.994954  0.0
H  H24  1  0.22336831  0.79444997  0.35417768  1  0.072934  7.1e-05  0.104491  0.104867  3.7e-05  0.994947  0.0
H  H25  1  0.22336836  0.55972764  0.20555032  1  0.088686  7.5e-05  0.10449  0.104846  3.9e-05  0.994963  0.0
H  H26  1  0.22336825  0.64582252  0.44027232  1  0.053498  -7.4e-05  0.104476  0.104834  -3.9e-05  0.994968  0.0
H  H27  1  0.51507887  0.06712201  0.47723535  1  0.086679  0.001856  0.128135  0.107906  0.000675  0.967574  0.001
H  H28  1  0.51508056  0.41011319  0.93287804  1  0.12674  0.001849  0.128135  0.107898  0.000675  0.967531  0.001
H  H29  1  0.51508076  0.52276480  0.58988672  1  0.129827  -0.001847  0.128131  0.107873  -0.000703  0.967585  -0.001
H  H30  1  0.51507897  0.93287814  0.52276468  1  0.086678  0.001856  0.128136  0.107882  0.000675  0.967576  0.001
H  H31  1  0.51508104  0.58988680  0.06712215  1  0.126742  0.001849  0.128136  0.107896  0.000675  0.96753  0.001
H  H32  1  0.51507897  0.47723519  0.41011347  1  0.129815  -0.001847  0.12813  0.107863  -0.000703  0.967584  -0.001
H  H33  1  0.51526504  0.14619077  0.51411059  1  0.055725  0.001209  0.106113  0.11037  0.00057  1.001301  0.0
H  H34  1  0.51526490  0.36791996  0.85380905  1  0.022399  0.001228  0.106115  0.110393  0.00057  1.001307  0.0
H  H35  1  0.51526503  0.48588916  0.63208004  1  0.079115  -0.001188  0.106116  0.110377  -0.000587  1.001318  0.0
H  H36  1  0.51526516  0.85380910  0.48588917  1  0.055735  0.001209  0.106097  0.110365  0.00057  1.001306  0.0
H  H37  1  0.51526343  0.63208019  0.14619098  1  0.022392  0.001228  0.106096  0.110376  0.00057  1.001326  0.0
H  H38  1  0.51526517  0.51411056  0.36791988  1  0.079116  -0.001188  0.106117  0.110376  -0.000587  1.001316  0.0
H  H39  1  0.48492175  0.06712195  0.58988684  1  0.126739  0.001849  0.128136  0.107886  0.000675  0.967524  0.001
H  H40  1  0.48492164  0.52276470  0.93287799  1  0.08668  0.001856  0.128133  0.107898  0.000675  0.967576  0.001
H  H41  1  0.48492186  0.41011335  0.47723528  1  0.12982  -0.001847  0.128134  0.107871  -0.000703  0.96758  -0.001
H  H42  1  0.48492197  0.93287793  0.41011292  1  0.12662  0.001848  0.128128  0.107877  0.000675  0.967535  0.001
H  H43  1  0.48492208  0.47723502  0.06712192  1  0.086672  0.001856  0.128127  0.107883  0.000675  0.967589  0.001
H  H44  1  0.48492186  0.58988664  0.52276491  1  0.129815  -0.001847  0.128129  0.107861  -0.000703  0.967583  -0.001
H  H45  1  0.48473744  0.14619095  0.63208007  1  0.022398  0.001228  0.106102  0.110389  0.00057  1.001316  0.0
H  H46  1  0.48473737  0.48588946  0.85380925  1  0.055726  0.001209  0.106101  0.110364  0.00057  1.00131  0.0
H  H47  1  0.48473566  0.36792002  0.51411091  1  0.079119  -0.001188  0.106113  0.110388  -0.000587  1.001304  0.0
H  H48  1  0.48473768  0.85380920  0.36791996  1  0.022391  0.001228  0.106095  0.110352  0.00057  1.001331  0.0
H  H49  1  0.48473587  0.51411069  0.14619079  1  0.055734  0.001209  0.106111  0.110381  0.00057  1.001287  0.0
H  H50  1  0.48473571  0.63207997  0.48588928  1  0.079116  -0.001188  0.106108  0.110385  -0.000587  1.00131  0.0
C  C51  1  0.65295770  0.26630207  0.60867173  1  -0.076123  0.00057  -0.098162  -0.175285  0.000311  4.012592  0.0
C  C52  1  0.65295764  0.34236981  0.73369813  1  0.061016  0.0006  -0.098152  -0.175228  0.000319  4.01257  0.0
C  C53  1  0.65295769  0.39132828  0.65763008  1  -0.074324  -0.000766  -0.098159  -0.175215  -0.000436  4.012606  -0.001
C  C54  1  0.65295788  0.73369808  0.39132830  1  -0.076101  0.00057  -0.098159  -0.175275  0.00031  4.012583  0.0
C  C55  1  0.65295793  0.65763018  0.26630205  1  0.061032  0.0006  -0.098164  -0.17525  0.000319  4.012611  0.0
C  C56  1  0.65295600  0.60867159  0.34236967  1  -0.074281  -0.000766  -0.09813  -0.175167  -0.000436  4.012583  -0.001
C  C57  1  0.65135356  0.22248103  0.58668819  1  0.008345  -0.001278  -0.088514  -0.112813  -0.000747  4.000118  -0.001
C  C58  1  0.65135348  0.36420713  0.77751897  1  -0.190872  -0.001309  -0.088581  -0.112959  -0.000758  4.000098  -0.001
C  C59  1  0.65135356  0.41331184  0.63579294  1  -0.016533  0.001342  -0.088563  -0.112941  0.000755  4.000084  0.001
C  C60  1  0.65135373  0.77751912  0.41331184  1  0.008342  -0.001278  -0.088519  -0.112814  -0.000747  4.000129  -0.001
C  C61  1  0.65135381  0.63579286  0.22248121  1  -0.190779  -0.001309  -0.088555  -0.112942  -0.000758  4.000093  -0.001
C  C62  1  0.65135373  0.58668815  0.36420724  1  -0.016532  0.001342  -0.088563  -0.112947  0.000755  4.000095  0.001
C  C63  1  0.34704288  0.26630189  0.65763023  1  0.06102  0.0006  -0.098146  -0.175193  0.000319  4.012565  0.0
C  C64  1  0.34704286  0.39132831  0.73369797  1  -0.076119  0.00057  -0.098152  -0.175241  0.00031  4.012576  0.0
C  C65  1  0.34704292  0.34236996  0.60867177  1  -0.074236  -0.000766  -0.098148  -0.175173  -0.000436  4.012583  -0.001
C  C66  1  0.34704311  0.73369810  0.34236997  1  0.06099  0.0006  -0.098151  -0.175207  0.000319  4.012567  0.0
C  C67  1  0.34704125  0.60867184  0.26630207  1  -0.076092  0.00057  -0.098185  -0.175319  0.00031  4.012537  0.0
C  C68  1  0.34704308  0.65763019  0.39132827  1  -0.07434  -0.000766  -0.098139  -0.175163  -0.000437  4.012547  -0.001
C  C69  1  0.34864514  0.22248104  0.63579290  1  -0.190899  -0.001309  -0.088562  -0.11297  -0.000758  4.000129  -0.001
C  C70  1  0.34864510  0.41331185  0.77751899  1  0.00831  -0.001278  -0.08851  -0.112841  -0.000747  4.000178  -0.001
C  C71  1  0.34864519  0.36420711  0.58668822  1  -0.016537  0.001342  -0.088561  -0.112963  0.000755  4.000115  0.001
C  C72  1  0.34864537  0.77751895  0.36420729  1  -0.190894  -0.001309  -0.088555  -0.112949  -0.000758  4.000117  -0.001
C  C73  1  0.34864541  0.58668814  0.22248120  1  0.008313  -0.001278  -0.088519  -0.112832  -0.000747  4.000147  -0.001
C  C74  1  0.34864532  0.63579288  0.41331197  1  -0.016539  0.001342  -0.088556  -0.11293  0.000755  4.000082  0.001
C  C75  1  0.50000029  0.28879170  0.64439583  1  0.319591  -0.001384  0.091078  0.178489  -0.00083  4.049645  -0.001
C  C76  1  0.50000026  0.35560421  0.71120833  1  0.319591  -0.001384  0.091077  0.178485  -0.00083  4.049647  -0.001
C  C77  1  0.50000030  0.35560425  0.64439580  1  0.381272  0.001381  0.091047  0.178405  0.00079  4.049708  0.001
C  C78  1  0.50000050  0.71120844  0.35560420  1  0.370074  -0.001377  0.091068  0.178466  -0.00083  4.049671  -0.001
C  C79  1  0.50000052  0.64439578  0.28879186  1  0.319603  -0.001384  0.091076  0.178491  -0.00083  4.049669  -0.001
C  C80  1  0.50000049  0.64439590  0.35560423  1  0.381211  0.00138  0.091058  0.17842  0.00079  4.049704  0.001
C  C81  1  0.50000030  0.19964277  0.59982142  1  0.051228  0.000613  -0.016214  0.043851  0.000302  4.017845  0.001
C  C82  1  0.49999834  0.40017861  0.80035724  1  0.051228  0.000613  -0.016213  0.043862  0.000302  4.017853  0.001
C  C83  1  0.49999844  0.40017877  0.59982129  1  0.01297  -0.000821  -0.01626  0.043824  -0.000463  4.017628  -0.001
C  C84  1  0.50000049  0.80035737  0.40017861  1  -0.037581  0.000584  -0.016231  0.043815  0.000302  4.017882  0.001
C  C85  1  0.49999868  0.59982138  0.19964295  1  0.051148  0.000613  -0.016208  0.043868  0.000302  4.017843  0.001
C  C86  1  0.49999858  0.59982138  0.40017874  1  0.012971  -0.000821  -0.016257  0.043816  -0.000463  4.017632  -0.001
C  C87  1  0.50000030  0.15317677  0.57658827  1  -0.036614  -0.008135  0.004598  0.102337  -0.004786  4.020397  -0.005
C  C88  1  0.50000020  0.42341176  0.84682324  1  -0.036617  -0.008134  0.004598  0.102329  -0.004785  4.020396  -0.005
C  C89  1  0.50000034  0.42341162  0.57658844  1  0.063779  0.0081  0.004631  0.102357  0.004631  4.020337  0.005
C  C90  1  0.50000048  0.84682310  0.42341149  1  0.052181  -0.008104  0.004594  0.102326  -0.004785  4.020385  -0.005
C  C91  1  0.50000059  0.57658838  0.15317680  1  -0.036612  -0.008134  0.004613  0.102338  -0.004786  4.02038  -0.005
C  C92  1  0.50000044  0.57658837  0.42341175  1  0.063779  0.0081  0.004631  0.102362  0.004631  4.020341  0.005
C  C93  1  0.50969098  0.08623197  0.51153277  1  0.564796  -0.005624  0.053597  0.103051  -0.002852  3.936273  -0.004
C  C94  1  0.50969270  0.42530079  0.91376801  1  0.424276  -0.00552  0.053607  0.103087  -0.002851  3.936234  -0.004
C  C95  1  0.50969289  0.48846740  0.57469917  1  0.523588  0.005631  0.053638  0.103189  0.002685  3.936215  0.004
C  C96  1  0.50969111  0.91376817  0.48846726  1  0.564793  -0.005623  0.05364  0.103194  -0.002852  3.936259  -0.004
C  C97  1  0.50969316  0.57469909  0.08623175  1  0.424272  -0.005521  0.05362  0.103109  -0.002851  3.9362  -0.004
C  C98  1  0.50969109  0.51153259  0.42530102  1  0.523635  0.005631  0.053656  0.103228  0.002685  3.936176  0.004
C  C99  1  0.51123682  0.13004253  0.53232274  1  -0.066609  0.005493  -0.089265  -0.188141  0.003175  3.971511  0.004
C  C100  1  0.51123668  0.40228026  0.86995747  1  0.0716  0.005401  -0.08933  -0.188271  0.003174  3.971404  0.004
C  C101  1  0.51123683  0.46767736  0.59771974  1  -0.093315  -0.005552  -0.089261  -0.18817  -0.003316  3.971486  -0.004
C  C102  1  0.51123696  0.86995762  0.46767729  1  -0.066601  0.005493  -0.089351  -0.188303  0.003175  3.971459  0.004
C  C103  1  0.51123522  0.59771988  0.13004256  1  0.071613  0.005401  -0.089314  -0.188248  0.003174  3.971397  0.004
C  C104  1  0.51123694  0.53232278  0.40228029  1  -0.093326  -0.005552  -0.089251  -0.188156  -0.003316  3.971457  -0.004
C  C105  1  0.49031152  0.08623198  0.57469924  1  0.424263  -0.005521  0.053632  0.103153  -0.002851  3.936149  -0.004
C  C106  1  0.49031140  0.48846728  0.91376803  1  0.564796  -0.005623  0.053612  0.103069  -0.002852  3.936218  -0.004
C  C107  1  0.49031160  0.42530090  0.51153268  1  0.523625  0.005631  0.053647  0.103206  0.002685  3.936167  0.004
C  C108  1  0.49031172  0.91376817  0.42530079  1  0.424392  -0.005521  0.053629  0.10312  -0.002851  3.936158  -0.004
C  C109  1  0.49031184  0.51153260  0.08623173  1  0.564803  -0.005624  0.053609  0.103077  -0.002852  3.936243  -0.004
C  C110  1  0.49031163  0.57469925  0.48846735  1  0.523628  0.005631  0.053652  0.103234  0.002685  3.936164  0.004
C  C111  1  0.48876567  0.13004253  0.59771977  1  0.071621  0.005401  -0.08933  -0.188281  0.003174  3.971394  0.004
C  C112  1  0.48876558  0.46767730  0.86995748  1  -0.066609  0.005493  -0.089267  -0.188139  0.003175  3.971502  0.004
C  C113  1  0.48876575  0.40228032  0.53232271  1  -0.093332  -0.005552  -0.089262  -0.188174  -0.003316  3.971454  -0.004
C  C114  1  0.48876588  0.86995734  0.40227999  1  0.071603  0.005401  -0.089258  -0.188123  0.003174  3.971466  0.004
C  C115  1  0.48876598  0.53232285  0.13004256  1  -0.066597  0.005493  -0.089262  -0.188141  0.003175  3.971463  0.004
C  C116  1  0.48876581  0.59771982  0.46767732  1  -0.093343  -0.005552  -0.089277  -0.188203  -0.003316  3.971474  -0.004
C  C117  1  0.00000177  0.00000008  0.47862507  1  1.561514  -0.003098  0.192155  0.452123  -0.000454  4.222567  -0.004
C  C118  1  0.99999935  0.47862489  0.00000013  1  1.581352  -0.003101  0.192132  0.452052  -0.000453  4.222574  -0.004
C  C119  1  0.99999909  0.52137488  0.52137482  1  1.538431  0.00312  0.192146  0.452062  0.000215  4.222505  0.004
C  C120  1  0.00000161  0.00000007  0.52137498  1  1.580751  -0.003102  0.192159  0.452158  -0.000454  4.222546  -0.004
C  C121  1  0.00000008  0.52137509  0.00000013  1  1.560927  -0.003097  0.192214  0.452207  -0.000453  4.222338  -0.004
C  C122  1  0.99999910  0.47862499  0.47862493  1  1.601819  0.00306  0.192126  0.452024  0.000215  4.222568  0.004
N  N123  1  0.50000219  0.06459929  0.53229956  1  -1.231259  0.066071  -0.327145  -0.215455  0.040761  3.581279  0.06
N  N124  1  0.50000204  0.46770005  0.93540059  1  -1.231261  0.066072  -0.32714  -0.215417  0.040761  3.581284  0.06
N  N125  1  0.50000225  0.46770039  0.53229969  1  -1.2325  -0.066193  -0.327186  -0.215581  -0.042238  3.581359  -0.06
N  N126  1  0.50000235  0.93540058  0.46770020  1  -1.231271  0.066073  -0.327145  -0.215482  0.040762  3.58127  0.06
N  N127  1  0.50000251  0.53229967  0.06459933  1  -1.231279  0.066072  -0.327157  -0.215446  0.040762  3.581309  0.06
N  N128  1  0.50000229  0.53229960  0.46770050  1  -1.232507  -0.066192  -0.327199  -0.215623  -0.042238  3.581376  -0.06
N  N129  1  0.50000028  0.33333339  0.66666665  1  -1.231729  -0.000272  -0.257831  -0.162568  -0.000136  3.693226  0.0
N  N130  1  0.50000050  0.66666676  0.33333338  1  -1.282138  -0.000278  -0.257831  -0.162558  -0.000136  3.693304  0.0
O  O131  1  0.21145651  0.00007257  0.46266263  1  -1.130153  0.081658  -0.311097  -0.498422  0.04785  2.336691  0.074
O  O132  1  0.21145442  0.46259030  0.99992756  1  -1.130963  0.081653  -0.311092  -0.498394  0.04785  2.336528  0.074
O  O133  1  0.21145467  0.53733744  0.53740961  1  -1.129558  -0.081696  -0.311091  -0.498336  -0.049523  2.336498  -0.074
O  O134  1  0.21145474  0.99992758  0.53733741  1  -1.13014  0.081655  -0.311107  -0.498449  0.047849  2.336663  0.074
O  O135  1  0.21145495  0.53740969  0.00007263  1  -1.130974  0.081653  -0.311125  -0.498447  0.04785  2.336512  0.074
O  O136  1  0.21145470  0.46266228  0.46259031  1  -1.129569  -0.081695  -0.311056  -0.498307  -0.049523  2.336513  -0.074
O  O137  1  0.78854619  0.99992745  0.46259003  1  -1.130896  0.081657  -0.311094  -0.498403  0.047852  2.33652  0.074
O  O138  1  0.78854447  0.46266246  0.00007234  1  -1.130154  0.081659  -0.311026  -0.498292  0.047851  2.336682  0.074
O  O139  1  0.78854608  0.53740951  0.53733754  1  -1.129555  -0.081693  -0.311018  -0.498267  -0.049522  2.336667  -0.074
O  O140  1  0.78854601  0.00007258  0.53740957  1  -1.130958  0.081654  -0.311073  -0.498384  0.04785  2.336512  0.074
O  O141  1  0.78854584  0.53733726  0.99992757  1  -1.130134  0.081659  -0.311105  -0.498411  0.047851  2.336568  0.074
O  O142  1  0.78854611  0.46259020  0.46266238  1  -1.129577  -0.081693  -0.311029  -0.498268  -0.049522  2.336671  -0.074
