# generated using pymatgen
data_CdH10C6N8O5
_symmetry_space_group_name_H-M   'P 1'
_cell_length_a   6.69829412
_cell_length_b   8.68172634
_cell_length_c   11.73439669
_cell_angle_alpha   103.76448534
_cell_angle_beta   89.99366783
_cell_angle_gamma   112.68917122
_symmetry_Int_Tables_number   1
_chemical_formula_structural   CdH10C6N8O5
_chemical_formula_sum   'Cd2 H20 C12 N16 O10'
_cell_volume   608.29018488
_cell_formula_units_Z   2
loop_
 _symmetry_equiv_pos_site_id
 _symmetry_equiv_pos_as_xyz
  1  'x, y, z'
loop_
 _atom_site_type_symbol
 _atom_site_label
 _atom_site_symmetry_multiplicity
 _atom_site_fract_x
 _atom_site_fract_y
 _atom_site_fract_z
 _atom_site_occupancy
 _atom_site_hle17_bader_spin_density
 _atom_site_hle17_ddec_charge
 _atom_site_hle17_ddec_spin_density
 _atom_site_hle17_ddec_sum_bond_order
 _atom_site_hle17_magmom
 _atom_site_hse06_10hf_bader_spin_density
 _atom_site_hse06_10hf_ddec_charge
 _atom_site_hse06_10hf_ddec_spin_density
 _atom_site_hse06_10hf_ddec_sum_bond_order
 _atom_site_hse06_10hf_magmom
 _atom_site_hse06_bader_spin_density
 _atom_site_hse06_ddec_charge
 _atom_site_hse06_ddec_spin_density
 _atom_site_hse06_ddec_sum_bond_order
 _atom_site_hse06_magmom
 _atom_site_pbe_bader_spin_density
 _atom_site_pbe_cm5_charge
 _atom_site_pbe_ddec_charge
 _atom_site_pbe_ddec_spin_density
 _atom_site_pbe_ddec_sum_bond_order
 _atom_site_pbe_magmom
Cd  Cd0  1  0.34170811  0.00005542  0.25000796  1  0  1.156447  0  1.730354  0  0  0.960651  0  2.189324  0  0  1.012395  0  2.140151  0  0  0.783655  0.92385  0  2.223096  0
Cd  Cd1  1  0.65829163  0.99994549  0.74998794  1  0  1.156512  0  1.73044  0  0  0.960707  0  2.189465  0  0  1.012449  0  2.140285  0  0  0.783624  0.92388  0  2.223225  0
H  H2  1  0.88637017  0.99191179  0.18366181  1  0  0.425631  0  0.871  0  0  0.3957  0  0.933129  0  0  0.407331  0  0.915956  0  0  0.287814  0.387386  0  0.94542  0
H  H3  1  0.89444305  0.00822646  0.31634577  1  0  0.425991  0  0.870402  0  0  0.395874  0  0.932766  0  0  0.407523  0  0.915585  0  0  0.287993  0.387553  0  0.94505  0
H  H4  1  0.11362937  0.00809171  0.81633539  1  0  0.425632  0  0.87099  0  0  0.395694  0  0.933146  0  0  0.407329  0  0.915969  0  0  0.287803  0.387374  0  0.945445  0
H  H5  1  0.10555689  0.99177187  0.68365138  1  0  0.426136  0  0.870113  0  0  0.395984  0  0.932591  0  0  0.407633  0  0.91541  0  0  0.28801  0.387656  0  0.944884  0
H  H6  1  0.77539020  0.66321063  0.22563234  1  0  0.123062  0  0.929558  0  0  0.12785  0  1.000728  0  0  0.131507  0  0.995873  0  0  0.142748  0.125152  0  1.004146  0
H  H7  1  0.11247974  0.33700327  0.27440950  1  0  0.122994  0  0.929372  0  0  0.127829  0  1.000608  0  0  0.131178  0  0.995604  0  0  0.142466  0.12511  0  1.004059  0
H  H8  1  0.22460785  0.33679288  0.77437169  1  0  0.123004  0  0.929583  0  0  0.127797  0  1.000743  0  0  0.131456  0  0.995889  0  0  0.142723  0.125097  0  1.004152  0
H  H9  1  0.88752279  0.66300025  0.72559452  1  0  0.122993  0  0.929379  0  0  0.127816  0  1.000621  0  0  0.131164  0  0.995619  0  0  0.142455  0.125089  0  1.004067  0
H  H10  1  0.64079790  0.36008485  0.47193451  1  0  0.118726  0  0.92588  0  0  0.123905  0  0.996095  0  0  0.126861  0  0.992223  0  0  0.144961  0.12182  0  0.998494  0
H  H11  1  0.28014156  0.63988993  0.02794770  1  0  0.118156  0  0.926236  0  0  0.123335  0  0.996445  0  0  0.125878  0  0.992655  0  0  0.144894  0.121283  0  0.998825  0
H  H12  1  0.35919971  0.63991479  0.52806713  1  0  0.118711  0  0.925831  0  0  0.123889  0  0.996044  0  0  0.126844  0  0.992174  0  0  0.144953  0.121807  0  0.998452  0
H  H13  1  0.71985625  0.36010711  0.97205178  1  0  0.118229  0  0.926243  0  0  0.123384  0  0.996468  0  0  0.125929  0  0.992678  0  0  0.144898  0.121329  0  0.998857  0
H  H14  1  0.84060489  0.79752502  0.48625598  1  0  0.299859  0  0.94054  0  0  0.286097  0  1.007899  0  0  0.293281  0  1.000335  0  0  0.290264  0.281125  0  1.012868  0
H  H15  1  0.04311595  0.20253006  0.01374797  1  0  0.29927  0  0.939494  0  0  0.285331  0  1.007359  0  0  0.292194  0  0.999884  0  0  0.289673  0.280323  0  1.012408  0
H  H16  1  0.15939634  0.20247591  0.51374674  1  0  0.299835  0  0.940509  0  0  0.286083  0  1.007865  0  0  0.293267  0  1.000303  0  0  0.290256  0.281116  0  1.012829  0
H  H17  1  0.95688399  0.79746829  0.98625515  1  0  0.299284  0  0.939468  0  0  0.285347  0  1.007336  0  0  0.292211  0  0.999861  0  0  0.289681  0.280344  0  1.01238  0
H  H18  1  0.03781180  0.72897485  0.44057554  1  0  0.275564  0  0.950908  0  0  0.255999  0  1.037205  0  0  0.261897  0  1.030659  0  0  0.290118  0.252027  0  1.0412  0
H  H19  1  0.30888764  0.27118553  0.05942182  1  0  0.276017  0  0.949352  0  0  0.256214  0  1.036147  0  0  0.26182  0  1.029635  0  0  0.290304  0.252216  0  1.040204  0
H  H20  1  0.96218665  0.27102350  0.55942673  1  0  0.275601  0  0.950897  0  0  0.256043  0  1.037189  0  0  0.261941  0  1.030641  0  0  0.290137  0.252071  0  1.041184  0
H  H21  1  0.69111295  0.72881411  0.94058067  1  0  0.276059  0  0.949328  0  0  0.25625  0  1.036127  0  0  0.261857  0  1.029615  0  0  0.290327  0.252252  0  1.040177  0
C  C22  1  0.38492109  0.99130822  0.97849145  1  0  0.525771  0  3.941712  0  0  0.475767  0  4.243681  0  0  0.505153  0  4.237283  0  0  0.196054  0.455747  0  4.247547  0
C  C23  1  0.39363792  0.00871161  0.52153249  1  0  0.525995  0  3.94249  0  0  0.475825  0  4.244691  0  0  0.505214  0  4.238196  0  0  0.196509  0.455821  0  4.248576  0
C  C24  1  0.61507885  0.00869011  0.02150570  1  0  0.525592  0  3.941773  0  0  0.475652  0  4.243664  0  0  0.505033  0  4.237265  0  0  0.195951  0.455642  0  4.247531  0
C  C25  1  0.60637052  0.99128284  0.47845972  1  0  0.525734  0  3.943031  0  0  0.475679  0  4.24509  0  0  0.505069  0  4.238594  0  0  0.196452  0.455683  0  4.248976  0
C  C26  1  0.70828885  0.55214441  0.26253948  1  0  0.126089  0  3.628505  0  0  0.056466  0  3.903451  0  0  0.074687  0  3.92026  0  0  0.152512  0.049423  0  3.895336  0
C  C27  1  0.15624096  0.44802497  0.23747058  1  0  0.125313  0  3.630143  0  0  0.055759  0  3.90473  0  0  0.076084  0  3.920048  0  0  0.151936  0.048697  0  3.8966  0
C  C28  1  0.29170855  0.44785781  0.73746346  1  0  0.126144  0  3.628494  0  0  0.056507  0  3.903449  0  0  0.074715  0  3.920256  0  0  0.152503  0.049459  0  3.895327  0
C  C29  1  0.84375879  0.55197596  0.76253214  1  0  0.125412  0  3.6301  0  0  0.055882  0  3.904684  0  0  0.07618  0  3.919989  0  0  0.152001  0.048819  0  3.896544  0
C  C30  1  0.63762755  0.39632563  0.38988796  1  0  0.153741  0  3.634744  0  0  0.0798  0  3.89786  0  0  0.099776  0  3.915932  0  0  0.164045  0.071654  0  3.888609  0
C  C31  1  0.24093606  0.60371909  0.11003252  1  0  0.155287  0  3.634367  0  0  0.081458  0  3.897727  0  0  0.103468  0  3.914457  0  0  0.164273  0.073218  0  3.888534  0
C  C32  1  0.36236771  0.60367530  0.61011390  1  0  0.153752  0  3.634728  0  0  0.079805  0  3.897824  0  0  0.099773  0  3.915892  0  0  0.164045  0.071639  0  3.888593  0
C  C33  1  0.75906239  0.39627926  0.88996804  1  0  0.155152  0  3.634471  0  0  0.081357  0  3.897783  0  0  0.103337  0  3.914507  0  0  0.164218  0.073109  0  3.888601  0
N  N34  1  0.53740047  0.29468663  0.28624203  1  0  -0.282275  0  3.20723  0  0  -0.216634  0  3.505435  0  0  -0.234208  0  3.52116  0  0  -0.246434  -0.204156  0  3.492698  0
N  N35  1  0.24241312  0.70539489  0.21368287  1  0  -0.28314  0  3.207161  0  0  -0.217795  0  3.505774  0  0  -0.235819  0  3.520994  0  0  -0.246474  -0.205314  0  3.493084  0
N  N36  1  0.46259545  0.70531559  0.71376007  1  0  -0.282267  0  3.207281  0  0  -0.216629  0  3.505489  0  0  -0.234204  0  3.521215  0  0  -0.24645  -0.204141  0  3.492736  0
N  N37  1  0.75758598  0.29460474  0.78631622  1  0  -0.283134  0  3.20717  0  0  -0.217795  0  3.505777  0  0  -0.235817  0  3.521004  0  0  -0.246492  -0.205318  0  3.493089  0
N  N38  1  0.58271514  0.39229722  0.20470561  1  0  -0.250114  0  2.983718  0  0  -0.228016  0  3.277059  0  0  -0.236459  0  3.29058  0  0  -0.230979  -0.221795  0  3.265849  0
N  N39  1  0.19042778  0.60786731  0.29527151  1  0  -0.248802  0  2.983128  0  0  -0.226577  0  3.276226  0  0  -0.235521  0  3.289328  0  0  -0.230205  -0.220349  0  3.264995  0
N  N40  1  0.41728162  0.60770371  0.79529625  1  0  -0.250185  0  2.98377  0  0  -0.228096  0  3.277123  0  0  -0.23654  0  3.290649  0  0  -0.231005  -0.221879  0  3.265903  0
N  N41  1  0.80957047  0.39213362  0.70472951  1  0  -0.248872  0  2.983214  0  0  -0.226663  0  3.276337  0  0  -0.235606  0  3.289444  0  0  -0.230236  -0.22044  0  3.265103  0
N  N42  1  0.74559878  0.55954947  0.37923069  1  0  0.063685  0  3.621814  0  0  0.180437  0  3.810202  0  0  0.142983  0  3.869645  0  0  -0.149338  0.188315  0  3.794274  0
N  N43  1  0.18593190  0.44054273  0.12074247  1  0  0.06287  0  3.623002  0  0  0.179337  0  3.811747  0  0  0.139078  0  3.870445  0  0  -0.149429  0.187384  0  3.795517  0
N  N44  1  0.25439863  0.44045276  0.62077311  1  0  0.063756  0  3.621845  0  0  0.180556  0  3.810179  0  0  0.143129  0  3.869582  0  0  -0.149289  0.188412  0  3.794292  0
N  N45  1  0.81406655  0.55945562  0.87925980  1  0  0.062874  0  3.623119  0  0  0.179339  0  3.81185  0  0  0.139161  0  3.870461  0  0  -0.149425  0.187386  0  3.795621  0
N  N46  1  0.88688033  0.69431683  0.47051197  1  0  -0.533119  0  2.900279  0  0  -0.552812  0  3.141691  0  0  -0.552106  0  3.145708  0  0  -0.512352  -0.547556  0  3.14414  0
N  N47  1  0.19255045  0.30577190  0.02948410  1  0  -0.532432  0  2.897779  0  0  -0.551809  0  3.139192  0  0  -0.549111  0  3.142651  0  0  -0.511825  -0.54659  0  3.14168  0
N  N48  1  0.11311792  0.30568411  0.52949245  1  0  -0.533144  0  2.900292  0  0  -0.55287  0  3.141686  0  0  -0.552174  0  3.145694  0  0  -0.512358  -0.547612  0  3.144146  0
N  N49  1  0.80744671  0.69422386  0.97051687  1  0  -0.532483  0  2.89786  0  0  -0.551859  0  3.139276  0  0  -0.549191  0  3.142718  0  0  -0.511864  -0.54665  0  3.141772  0
O  O50  1  0.23821215  0.96059742  0.04869328  1  0  -0.610639  0  2.080423  0  0  -0.540305  0  2.321797  0  0  -0.567009  0  2.31297  0  0  -0.317369  -0.521702  0  2.327559  0
O  O51  1  0.27756171  0.03932115  0.45133319  1  0  -0.61005  0  2.08022  0  0  -0.540266  0  2.322507  0  0  -0.566743  0  2.31334  0  0  -0.317488  -0.521721  0  2.32835  0
O  O52  1  0.76179440  0.03940218  0.95129557  1  0  -0.610616  0  2.080029  0  0  -0.540314  0  2.321419  0  0  -0.567021  0  2.312596  0  0  -0.317361  -0.521691  0  2.32716  0
O  O53  1  0.72245531  0.96067849  0.54867015  1  0  -0.610145  0  2.080076  0  0  -0.540407  0  2.3224  0  0  -0.566888  0  2.313234  0  0  -0.317622  -0.521849  0  2.328223  0
O  O54  1  0.64097507  0.99022223  0.12306731  1  0  -0.590586  0  2.080958  0  0  -0.529622  0  2.31834  0  0  -0.555377  0  2.31024  0  0  -0.302122  -0.511621  0  2.323498  0
O  O55  1  0.65062630  0.00963986  0.37686204  1  0  -0.591169  0  2.081991  0  0  -0.529781  0  2.318957  0  0  -0.555527  0  2.310885  0  0  -0.302389  -0.511792  0  2.324121  0
O  O56  1  0.35902167  0.00977866  0.87691836  1  0  -0.590703  0  2.080499  0  0  -0.529756  0  2.317982  0  0  -0.555503  0  2.309843  0  0  -0.302199  -0.511749  0  2.32315  0
O  O57  1  0.34937893  0.99034815  0.62313927  1  0  -0.591463  0  2.081342  0  0  -0.529971  0  2.318297  0  0  -0.555723  0  2.310226  0  0  -0.302508  -0.511971  0  2.323454  0
O  O58  1  0.98489315  0.00016369  0.25002560  1  0  -0.847707  0  1.852845  0  0  -0.789661  0  2.052984  0  0  -0.810065  0  2.015569  0  0  -0.603492  -0.775129  0  2.079296  0
O  O59  1  0.01510659  0.99983722  0.74996944  1  0  -0.847836  0  1.852595  0  0  -0.789765  0  2.052839  0  0  -0.810171  0  2.015417  0  0  -0.603548  -0.775242  0  2.079167  0
