# generated using pymatgen
data_Al2H19C26O10F
_symmetry_space_group_name_H-M   'P 1'
_cell_length_a   6.64118010
_cell_length_b   11.17339874
_cell_length_c   15.23984591
_cell_angle_alpha   80.73854201
_cell_angle_beta   77.99363966
_cell_angle_gamma   72.81712539
_symmetry_Int_Tables_number   1
_chemical_formula_structural   Al2H19C26O10F
_chemical_formula_sum   'Al2 H19 C26 O10 F1'
_cell_volume   1050.75170375
_cell_formula_units_Z   1
loop_
 _symmetry_equiv_pos_site_id
 _symmetry_equiv_pos_as_xyz
  1  'x, y, z'
loop_
 _atom_site_type_symbol
 _atom_site_label
 _atom_site_symmetry_multiplicity
 _atom_site_fract_x
 _atom_site_fract_y
 _atom_site_fract_z
 _atom_site_occupancy
 _atom_site_pbe_bader_charge
 _atom_site_pbe_bader_spin_density
 _atom_site_pbe_cm5_charge
 _atom_site_pbe_ddec_charge
 _atom_site_pbe_ddec_spin_density
 _atom_site_pbe_ddec_sum_bond_order
 _atom_site_pbe_magmom
Al  Al0  1  0.51971625  0.48302695  0.49269519  1  2.501621  0  0.398312  1.643277  0  2.578046  0
Al  Al1  1  0.01895678  0.48229896  0.49406622  1  2.503332  0  0.394667  1.637102  0  2.594271  0
H  H2  1  0.30366386  0.34242015  0.56772496  1  0.619076  0  0.351962  0.426716  0  0.861129  0
H  H3  1  0.73490893  0.62531839  0.42228679  1  0.633814  0  0.354056  0.432002  0  0.853542  0
H  H4  1  0.77390050  0.58863006  0.93263278  1  0.04679  0  0.097616  0.100785  0  1.015846  0
H  H5  1  0.14484440  0.56527935  0.04545576  1  0.043058  0  0.096634  0.098088  0  1.020428  0
H  H6  1  0.71943577  0.39978077  0.22983072  1  0.074986  0  0.10907  0.111312  0  0.999123  0
H  H7  1  0.81167001  0.40511718  0.06241412  1  0.070062  0  0.099823  0.101141  0  1.00553  0
H  H8  1  0.39305084  0.41038185  0.76271157  1  0.090915  0  0.107377  0.110918  0  1.002434  0
H  H9  1  0.29682283  0.39976216  0.93040269  1  0.078468  0  0.10077  0.103603  0  1.00304  0
H  H10  1  0.71879508  0.11193614  0.41423118  1  0.11142  0  0.1186  0.146787  0  0.978485  0
H  H11  1  0.21937762  0.07121325  0.65715618  1  0.034502  0  0.09809  0.106588  0  0.978823  0
H  H12  1  0.40823082  0.08936259  0.55693549  1  0.052196  0  0.096052  0.107064  0  1.004987  0
H  H13  1  0.52606844  0.85418163  0.55271498  1  0.072585  0  0.09805  0.114107  0  0.998334  0
H  H14  1  0.33645397  0.83641811  0.65226738  1  0.048018  0  0.101302  0.113576  0  0.97412  0
H  H15  1  0.94756928  0.67338265  0.80666473  1  0.021814  0  0.085925  0.116937  0  1.008851  0
H  H16  1  0.84779881  0.69995303  0.70315349  1  0.054112  0  0.093925  0.134344  0  0.992238  0
H  H17  1  0.05716923  0.56564641  0.72323044  1  0.088157  0  0.100049  0.15027  0  0.998727  0
H  H18  1  0.88959445  0.62495559  0.16736845  1  0.015675  0  0.086697  0.120883  0  1.006501  0
H  H19  1  0.97537559  0.66000925  0.26106328  1  0.049983  0  0.095646  0.135903  0  0.98789  0
H  H20  1  0.91484669  0.51624883  0.26653968  1  0.098092  0  0.100281  0.150104  0  1.012682  0
C  C21  1  0.87422747  0.25680658  0.49645483  1  1.561836  0  0.271939  0.648888  0  4.092258  0
C  C22  1  0.69310124  0.49581473  0.65430612  1  1.551345  0  0.263132  0.639759  0  4.104317  0
C  C23  1  0.16608787  0.70920400  0.48657334  1  1.567667  0  0.272925  0.670536  0  4.100335  0
C  C24  1  0.33920761  0.47596802  0.33184935  1  1.576174  0  0.265044  0.64529  0  4.092311  0
C  C25  1  0.63774728  0.50319338  0.75361064  1  0.004042  0  -0.021335  -0.123025  0  3.929498  0
C  C26  1  0.38209783  0.47892691  0.23159813  1  -0.021549  0  -0.017634  -0.112663  0  3.926279  0
C  C27  1  0.74665448  0.55673704  0.80092847  1  -0.078899  0  0.004609  0.178081  0  3.928127  0
C  C28  1  0.69259405  0.54730643  0.89513028  1  0.019796  0  -0.096942  -0.210779  0  3.940094  0
C  C29  1  0.21531632  0.52664455  0.18008160  1  -0.025538  0  0.003849  0.176764  0  3.934688  0
C  C30  1  0.27085945  0.52657039  0.08636581  1  -0.006649  0  -0.095637  -0.206442  0  3.945345  0
C  C31  1  0.59448169  0.43598065  0.18843938  1  -0.089236  0  -0.082467  -0.080154  0  4.013851  0
C  C32  1  0.64589208  0.43929509  0.09506703  1  -0.000212  0  -0.096676  -0.149032  0  4.008918  0
C  C33  1  0.47495896  0.44938834  0.80126294  1  -0.049064  0  -0.083977  -0.079966  0  4.016891  0
C  C34  1  0.42128994  0.44385562  0.89459056  1  -0.061263  0  -0.09799  -0.152125  0  4.009416  0
C  C35  1  0.53327127  0.49126599  0.94316868  1  -0.04087  0  -0.003247  0.087694  0  4.020772  0
C  C36  1  0.48305077  0.48472582  0.04260922  1  -0.030171  0  -0.006054  0.079254  0  4.028353  0
C  C37  1  0.95175202  0.11830434  0.49303730  1  -0.022543  0  -0.004444  -0.05077  0  3.99021  0
C  C38  1  0.09407941  0.84829907  0.48613789  1  0.039643  0  -0.016066  -0.199586  0  3.971535  0
C  C39  1  0.12347746  0.04215778  0.53285776  1  0.022228  0  -0.00783  0.044714  0  3.893718  0
C  C40  1  0.92298240  0.92772977  0.44476179  1  0.427356  0  0.106079  0.27265  0  4.041371  0
C  C41  1  0.19018881  0.91201447  0.52970860  1  -0.009524  0  0.002156  0.086496  0  3.892453  0
C  C42  1  0.85171149  0.05735579  0.44803443  1  0.042307  0  -0.093373  -0.237791  0  3.988728  0
C  C43  1  0.28696344  0.04012413  0.58974103  1  0.003722  0  -0.151053  -0.198335  0  3.876234  0
C  C44  1  0.36157937  0.89235840  0.58670966  1  -0.013313  0  -0.147667  -0.196015  0  3.853893  0
C  C45  1  0.90887188  0.62739542  0.75628600  1  -0.066332  0  -0.239586  -0.412797  0  3.962758  0
C  C46  1  0.98645181  0.58443227  0.22059399  1  -0.065173  0  -0.239702  -0.416564  0  3.954006  0
O  O47  1  0.68412377  0.31088961  0.48281214  1  -1.255081  0  -0.231189  -0.584554  0  2.330467  0
O  O48  1  0.87476091  0.51000136  0.61452768  1  -1.262305  0  -0.233978  -0.586859  0  2.377051  0
O  O49  1  0.03364773  0.65362513  0.47485497  1  -1.250991  0  -0.233228  -0.599199  0  2.376529  0
O  O50  1  0.48150588  0.49450166  0.36897215  1  -1.260654  0  -0.240409  -0.601587  0  2.334155  0
O  O51  1  0.35669532  0.65600047  0.50005533  1  -1.247271  0  -0.228184  -0.576508  0  2.311254  0
O  O52  1  0.16245046  0.45638412  0.37332172  1  -1.257637  0  -0.23565  -0.590336  0  2.368768  0
O  O53  1  0.00428229  0.31055370  0.51348017  1  -1.25785  0  -0.22886  -0.584019  0  2.327981  0
O  O54  1  0.55819720  0.47089096  0.61618453  1  -1.267343  0  -0.244136  -0.611175  0  2.362431  0
O  O55  1  0.27702917  0.42702656  0.53702945  1  -1.42401  0  -0.44852  -0.992272  0  2.212544  0
O  O56  1  0.76198468  0.53910257  0.45027338  1  -1.433974  0  -0.447934  -0.993114  0  2.214413  0
F  F57  1  0.82086292  0.87772956  0.39697938  1  -0.627337  0  -0.10087  -0.145967  0  1.340652  0
