# generated using pymatgen
data_Cu2H19C31SN4ClO6
_symmetry_space_group_name_H-M   'P 1'
_cell_length_a   10.32526144
_cell_length_b   13.19145900
_cell_length_c   13.37571636
_cell_angle_alpha   110.75702093
_cell_angle_beta   99.14202900
_cell_angle_gamma   98.75632780
_symmetry_Int_Tables_number   1
_chemical_formula_structural   Cu2H19C31SN4ClO6
_chemical_formula_sum   'Cu4 H38 C62 S2 N8 Cl2 O12'
_cell_volume   1638.47834435
_cell_formula_units_Z   2
loop_
 _symmetry_equiv_pos_site_id
 _symmetry_equiv_pos_as_xyz
  1  'x, y, z'
loop_
 _atom_site_type_symbol
 _atom_site_label
 _atom_site_symmetry_multiplicity
 _atom_site_fract_x
 _atom_site_fract_y
 _atom_site_fract_z
 _atom_site_occupancy
 _atom_site_hle17_ddec_charge
 _atom_site_hle17_ddec_spin_density
 _atom_site_hle17_ddec_sum_bond_order
 _atom_site_hle17_magmom
 _atom_site_hse06_10hf_ddec_charge
 _atom_site_hse06_10hf_ddec_spin_density
 _atom_site_hse06_10hf_ddec_sum_bond_order
 _atom_site_hse06_10hf_magmom
 _atom_site_hse06_ddec_charge
 _atom_site_hse06_ddec_spin_density
 _atom_site_hse06_ddec_sum_bond_order
 _atom_site_hse06_magmom
 _atom_site_pbe_cm5_charge
 _atom_site_pbe_ddec_charge
 _atom_site_pbe_ddec_spin_density
 _atom_site_pbe_ddec_sum_bond_order
 _atom_site_pbe_magmom
Cu  Cu0  1  0.62116325  0.46028911  0.29117584  1  0.858988  -0.696476  1.90852  -0.513  0.844138  -0.784331  2.313769  -0.627  0.931126  -0.851001  2.245033  -0.714  0.748029  0.793788  -0.736069  2.35971  -0.57
Cu  Cu1  1  0.37883791  0.53971388  0.70882436  1  0.858959  -0.696475  1.908483  -0.513  0.844156  -0.784333  2.313739  -0.627  0.931167  -0.851005  2.244968  -0.714  0.748022  0.793828  -0.736071  2.359666  -0.57
Cu  Cu2  1  0.38708491  0.88328218  0.93897938  1  0.769324  -0.659529  1.94081  -0.484  0.751344  -0.752049  2.344152  -0.601  0.843521  -0.816854  2.266579  -0.685  0.655137  0.699095  -0.708703  2.393167  -0.548
Cu  Cu3  1  0.61291427  0.11671334  0.06101569  1  0.769388  -0.65954  1.940867  -0.484  0.751381  -0.752052  2.344234  -0.601  0.843573  -0.816858  2.266643  -0.685  0.655178  0.699146  -0.708698  2.393248  -0.548
H  H4  1  0.80792138  0.29202303  0.24767245  1  0.08226  -0.000772  0.957137  -0.002  0.083921  -0.000616  1.033036  -0.002  0.086433  -0.000314  1.029389  -0.001  0.115473  0.081529  -0.000891  1.036196  -0.002
H  H5  1  0.19207768  0.70797580  0.75232676  1  0.082237  -0.000774  0.957064  -0.002  0.083914  -0.000616  1.03297  -0.002  0.086406  -0.000314  1.029342  -0.001  0.115462  0.081522  -0.000891  1.036131  -0.002
H  H6  1  0.97502438  0.24115812  0.37088634  1  0.102356  -0.000439  0.952501  0.0  0.113954  -0.000465  1.007845  0.0  0.116448  -0.000347  1.009077  0.0  0.105327  0.111939  -0.000555  1.007601  -0.001
H  H7  1  0.02497490  0.75884153  0.62911394  1  0.102322  -0.000438  0.952576  0.0  0.113936  -0.000465  1.007896  0.0  0.116428  -0.000347  1.009131  0.0  0.105316  0.111921  -0.000555  1.007652  -0.001
H  H8  1  0.00939338  0.33626152  0.57589104  1  0.123784  -0.000231  0.951023  0.0  0.13225  -4e-06  1.011401  0.0  0.13628  1.7e-05  1.007132  0.0  0.114099  0.129146  -4.2e-05  1.014519  0.0
H  H9  1  0.99061028  0.66373982  0.42410889  1  0.123811  -0.000233  0.951078  0.0  0.132269  -5e-06  1.011448  0.0  0.13634  1.7e-05  1.007127  0.0  0.114115  0.129165  -4.1e-05  1.014565  0.0
H  H10  1  0.94784826  0.47974991  0.73578876  1  0.12298  -0.000284  0.938057  0.0  0.133459  -0.000231  0.994904  0.0  0.13713  -0.000154  0.992847  0.0  0.110634  0.130488  -0.000272  0.996978  0.0
H  H11  1  0.05214861  0.52024807  0.26421138  1  0.12298  -0.000286  0.938062  0.0  0.13346  -0.000231  0.994909  0.0  0.137131  -0.000154  0.992851  0.0  0.11062  0.130489  -0.000272  0.996984  0.0
H  H12  1  0.81315588  0.62096257  0.80023278  1  0.094563  -0.000248  0.96653  0.0  0.106894  -0.000196  1.026823  0.0  0.10889  -0.000123  1.027572  0.0  0.100715  0.105423  -0.000258  1.0263  0.0
H  H13  1  0.18684122  0.37903624  0.19976693  1  0.094562  -0.000247  0.966538  0.0  0.10689  -0.000195  1.026835  0.0  0.108884  -0.000122  1.027588  0.0  0.100711  0.105417  -0.000258  1.026316  0.0
H  H14  1  0.63896107  0.73021873  0.75167685  1  0.105365  6.5e-05  0.957584  0.0  0.114969  0.000269  1.02325  0.0  0.118296  0.000267  1.020217  0.0  0.104514  0.112265  0.000231  1.026122  0.0
H  H15  1  0.36103866  0.26978259  0.24832333  1  0.105351  6.5e-05  0.957578  0.0  0.114955  0.000269  1.023245  0.0  0.118283  0.000267  1.020212  0.0  0.10451  0.112251  0.000231  1.026115  0.0
H  H16  1  0.49430842  0.76370062  0.60581625  1  0.112478  -0.000366  0.929837  0.0  0.125853  -0.000432  0.980277  0.0  0.129319  -0.000327  0.97958  0.0  0.110399  0.123159  -0.000507  0.981265  0.0
H  H17  1  0.50569055  0.23630153  0.39418413  1  0.112459  -0.000367  0.929907  0.0  0.125843  -0.000432  0.98033  0.0  0.129306  -0.000327  0.979635  0.0  0.110393  0.12315  -0.000507  0.981321  0.0
H  H18  1  0.48723615  0.65077535  0.40535472  1  0.102228  -0.001127  0.913056  -0.002  0.113599  -0.0009  0.967105  -0.002  0.117124  -0.0006  0.963655  -0.001  0.129835  0.11079  -0.00118  0.969792  -0.002
H  H19  1  0.51276303  0.34922763  0.59464597  1  0.102232  -0.001128  0.913006  -0.002  0.113594  -0.0009  0.967078  -0.002  0.117118  -0.0006  0.96363  -0.001  0.129827  0.110786  -0.001181  0.969766  -0.002
H  H20  1  0.82159838  0.47076984  0.04554345  1  0.091688  -0.00087  0.948808  -0.001  0.100994  -0.00046  1.012395  -0.001  0.103259  -0.000259  1.010768  0.0  0.099784  0.099562  -0.000629  1.013124  -0.001
H  H21  1  0.17840482  0.52922983  0.95445882  1  0.091728  -0.00087  0.948826  -0.001  0.101002  -0.00046  1.01244  -0.001  0.103269  -0.000259  1.010809  0.0  0.099788  0.099571  -0.000628  1.013167  -0.001
H  H22  1  0.69978864  0.40640588  0.84909450  1  0.109415  0.000504  0.939357  0.001  0.12137  -7e-06  0.99377  0.0  0.124823  3.2e-05  0.992683  0.0  0.102467  0.11893  -7.6e-05  0.994679  0.0
H  H23  1  0.30021381  0.59359462  0.15090722  1  0.109409  0.000504  0.939349  0.001  0.121364  -8e-06  0.99376  0.0  0.124818  3.3e-05  0.992673  0.0  0.102461  0.118922  -7.6e-05  0.994671  0.0
H  H24  1  0.62000976  0.74040017  0.13065989  1  0.110138  -0.000779  0.950898  -0.001  0.119167  -0.000539  1.012675  0.0  0.122544  -0.00033  1.009399  0.0  0.106598  0.116818  -0.000745  1.014906  -0.001
H  H25  1  0.37998664  0.25959613  0.86934259  1  0.110118  -0.000779  0.95089  -0.001  0.119141  -0.000539  1.012681  0.0  0.122519  -0.000331  1.009406  0.0  0.106602  0.116794  -0.000745  1.01491  -0.001
H  H26  1  0.38080101  0.02558905  0.79470494  1  0.096068  -0.000916  0.93838  -0.002  0.106007  -0.000862  0.996141  -0.002  0.109023  -0.000603  0.992322  -0.001  0.117053  0.103676  -0.001144  0.99901  -0.002
H  H27  1  0.61919882  0.97440896  0.20529184  1  0.096106  -0.000916  0.938366  -0.002  0.106043  -0.000862  0.996117  -0.002  0.109035  -0.000602  0.992329  -0.001  0.117062  0.103712  -0.001144  0.998986  -0.002
H  H28  1  0.19678685  0.09589050  0.70848740  1  0.135479  -0.000485  0.954772  -0.001  0.145772  -0.00045  1.008266  -0.001  0.149754  -0.000337  1.006453  0.0  0.116353  0.142744  -0.00055  1.009832  -0.001
H  H29  1  0.80321409  0.90411166  0.29151248  1  0.135478  -0.000484  0.954776  -0.001  0.145789  -0.00045  1.008249  -0.001  0.149753  -0.000337  1.00646  0.0  0.116357  0.14276  -0.00055  1.009817  -0.001
H  H30  1  0.96237600  0.04306966  0.72809563  1  0.115274  -0.000204  0.911339  0.0  0.129777  2.7e-05  0.960774  0.0  0.132745  4.9e-05  0.95874  0.0  0.120988  0.127663  -3.3e-05  0.96222  0.0
H  H31  1  0.03762416  0.95693331  0.27190743  1  0.115253  -0.000205  0.911383  0.0  0.129715  2.7e-05  0.96086  0.0  0.132681  4.9e-05  0.958829  0.0  0.120971  0.1276  -3.3e-05  0.962304  0.0
H  H32  1  0.80328212  0.94435775  0.81456577  1  0.109327  -0.001813  0.947577  0.0  0.122814  -0.001756  1.00333  0.0  0.125873  -0.001323  1.002387  0.0  0.101753  0.121673  -0.001703  1.002506  -0.001
H  H33  1  0.19671967  0.05564026  0.18543201  1  0.109326  -0.001814  0.947572  0.0  0.122786  -0.001756  1.003362  0.0  0.125845  -0.001322  1.00242  0.0  0.101733  0.121651  -0.001703  1.002527  -0.001
H  H34  1  0.77442463  0.83857868  0.93036614  1  0.110624  -0.000153  0.939814  0.0  0.121799  -0.000122  0.999764  0.0  0.124842  -6.4e-05  0.998592  0.0  0.103919  0.119625  -0.000273  1.000639  0.0
H  H35  1  0.22557302  0.16141849  0.06963081  1  0.110695  -0.000154  0.939754  0.0  0.121873  -0.000122  0.999713  0.0  0.124918  -6.4e-05  0.998535  0.0  0.103945  0.119697  -0.000274  1.000589  0.0
H  H36  1  0.87868404  0.73645176  0.04563970  1  0.103431  -0.000196  0.973239  0.0  0.111884  3.6e-05  1.039162  0.0  0.113429  6.5e-05  1.039891  0.0  0.107977  0.110649  -2e-06  1.038839  0.0
H  H37  1  0.12131590  0.26355039  0.95436229  1  0.103467  -0.000197  0.973229  0.0  0.111928  3.6e-05  1.039146  0.0  0.113471  6.5e-05  1.039877  0.0  0.107993  0.110694  -2e-06  1.038825  0.0
H  H38  1  0.08280818  0.68930450  0.12386708  1  0.132669  -0.000542  0.954682  -0.001  0.143278  -0.000527  1.008344  -0.001  0.147035  -0.00038  1.006637  -0.001  0.114982  0.14044  -0.000598  1.009817  -0.001
H  H39  1  0.91719275  0.31069765  0.87613504  1  0.132664  -0.000542  0.954663  -0.001  0.143278  -0.000527  1.008319  -0.001  0.147035  -0.00038  1.00661  -0.001  0.114973  0.14044  -0.000598  1.009794  -0.001
H  H40  1  0.30448060  0.74757704  0.07664931  1  0.091945  -0.001098  0.932336  -0.002  0.10336  -0.001024  0.988856  -0.002  0.105619  -0.000706  0.986739  -0.002  0.126065  0.101482  -0.001286  0.990613  -0.002
H  H41  1  0.69551824  0.25242095  0.92335033  1  0.091934  -0.0011  0.932371  -0.002  0.103353  -0.001023  0.98889  -0.002  0.105614  -0.000707  0.986771  -0.002  0.126055  0.101477  -0.001286  0.990647  -0.002
C  C42  1  0.82737618  0.33132432  0.33681910  1  0.156942  0.009861  3.664934  0.007  0.126134  0.003247  3.925596  0.002  0.137754  0.004708  3.941168  0.003  0.05965  0.118897  0.002189  3.915913  0.002
C  C43  1  0.17262267  0.66867369  0.66317756  1  0.156981  0.009905  3.66474  0.007  0.126153  0.003248  3.925522  0.002  0.137791  0.004711  3.941101  0.003  0.059672  0.118918  0.002189  3.915839  0.002
C  C44  1  0.91970919  0.30375011  0.40662595  1  -0.122954  -0.007435  3.731437  -0.008  -0.135691  -0.003691  3.983562  -0.005  -0.143823  -0.003279  4.004445  -0.004  -0.083928  -0.131183  -0.003996  3.970192  -0.005
C  C45  1  0.08028858  0.69625121  0.59337248  1  -0.122978  -0.007466  3.731499  -0.008  -0.135684  -0.003693  3.983615  -0.005  -0.143817  -0.003281  4.004504  -0.004  -0.083948  -0.131174  -0.003996  3.970246  -0.005
C  C46  1  0.93918372  0.35607525  0.51952864  1  -0.023503  0.010528  3.626578  0.007  -0.047043  0.004721  3.866671  0.003  -0.04194  0.005187  3.880532  0.003  -0.054532  -0.050254  0.004412  3.857344  0.003
C  C47  1  0.06081722  0.64392692  0.48047049  1  -0.023565  0.010578  3.626665  0.007  -0.047082  0.004722  3.866804  0.003  -0.042004  0.00519  3.880638  0.003  -0.05454  -0.050295  0.004412  3.85748  0.003
C  C48  1  0.86730446  0.43840341  0.56269744  1  0.033732  -0.003652  3.773675  -0.004  0.051967  -0.001879  4.000931  -0.002  0.049317  -0.001632  4.02471  -0.002  0.004703  0.054074  -0.002119  3.984207  -0.003
C  C49  1  0.13269625  0.56159792  0.43730286  1  0.034008  -0.003676  3.773495  -0.004  0.052012  -0.001879  4.000861  -0.002  0.049361  -0.001635  4.024646  -0.002  0.004694  0.054121  -0.002119  3.984139  -0.003
C  C50  1  0.87897404  0.49889210  0.67775038  1  -0.09053  -0.000892  3.691242  -0.001  -0.111249  -0.000426  3.937228  0.0  -0.114079  -0.000371  3.957886  0.0  -0.075975  -0.109994  -0.000471  3.923999  -0.001
C  C51  1  0.12102471  0.50110922  0.32224893  1  -0.0906  -0.000855  3.691056  -0.001  -0.111299  -0.000427  3.937092  0.0  -0.11413  -0.000367  3.957747  0.0  -0.075973  -0.110045  -0.000471  3.923866  -0.001
C  C52  1  0.80558036  0.57753347  0.71274301  1  -0.090847  -0.000947  3.723562  -0.001  -0.111608  -0.000643  3.973993  -0.001  -0.113802  -0.000554  3.996599  -0.001  -0.082474  -0.109744  -0.000718  3.958792  -0.001
C  C53  1  0.19441794  0.42246619  0.28725641  1  -0.090801  -0.000983  3.723587  -0.001  -0.111544  -0.000645  3.973995  -0.001  -0.113736  -0.000558  3.996599  -0.001  -0.082484  -0.109679  -0.000717  3.958794  -0.001
C  C54  1  0.71646741  0.60413853  0.63660036  1  0.030938  -0.003702  3.784067  -0.004  0.047356  -0.001765  4.014531  -0.002  0.044916  -0.001527  4.037459  -0.002  4.3e-05  0.048811  -0.001958  3.999461  -0.002
C  C55  1  0.28353233  0.39586280  0.36339758  1  0.030845  -0.003687  3.78408  -0.004  0.047313  -0.001766  4.01456  -0.002  0.044875  -0.001526  4.037485  -0.002  0.000104  0.048769  -0.001959  3.999488  -0.002
C  C56  1  0.63698488  0.68368455  0.66581050  1  -0.051945  0.011594  3.687776  0.007  -0.083431  0.005632  3.952816  0.003  -0.07814  0.006007  3.965178  0.003  -0.064686  -0.088254  0.005407  3.946791  0.003
C  C57  1  0.36301582  0.31631677  0.33419054  1  -0.051922  0.011572  3.68775  0.007  -0.0834  0.005635  3.95277  0.003  -0.078107  0.006005  3.965125  0.003  -0.0647  -0.088219  0.005409  3.946741  0.003
C  C58  1  0.55578821  0.70249384  0.58422425  1  -0.116196  -0.007476  3.720771  -0.009  -0.132954  -0.003311  3.979783  -0.005  -0.140641  -0.002852  3.99763  -0.004  -0.080165  -0.128347  -0.003661  3.969105  -0.005
C  C59  1  0.44421348  0.29750749  0.41577692  1  -0.116209  -0.007461  3.720856  -0.009  -0.132959  -0.003311  3.979859  -0.005  -0.140643  -0.00285  3.997698  -0.004  -0.080179  -0.128356  -0.003662  3.969183  -0.005
C  C60  1  0.55047975  0.64064306  0.47308623  1  0.162608  0.010739  3.645663  0.008  0.134608  0.003765  3.899599  0.003  0.147286  0.005174  3.912395  0.004  0.06478  0.126219  0.002837  3.891466  0.002
C  C61  1  0.44952119  0.35935911  0.52691216  1  0.162667  0.01072  3.645602  0.008  0.134671  0.003764  3.899549  0.003  0.147351  0.005167  3.912345  0.004  0.064836  0.126283  0.002837  3.891416  0.002
C  C62  1  0.70386832  0.54553491  0.52295574  1  0.12317  0.002488  3.773261  0.002  0.118426  0.000114  4.012094  0.0  0.122804  0.001048  4.035685  0.001  0.114297  0.115666  -0.000544  3.996001  -0.001
C  C63  1  0.29613163  0.45446724  0.47704551  1  0.123479  0.002467  3.773006  0.002  0.11846  0.000117  4.012006  0.0  0.122837  0.001042  4.035599  0.001  0.114239  0.1157  -0.000543  3.995915  -0.001
C  C64  1  0.77796041  0.46154713  0.48615040  1  0.118032  0.00301  3.788106  0.002  0.110637  0.000582  4.029312  0.0  0.115143  0.001476  4.053204  0.001  0.114246  0.108401  -0.00012  4.012788  0.0
C  C65  1  0.22203978  0.53845587  0.51384670  1  0.117442  0.003041  3.788051  0.002  0.11051  0.000581  4.029167  0.0  0.115014  0.00148  4.053059  0.001  0.114194  0.108273  -0.000121  4.012646  0.0
C  C66  1  0.72717588  0.60995691  0.10112688  1  -0.162909  -0.004787  3.777494  -0.005  -0.14195  0.000341  4.035702  0.0  -0.155874  0.000469  4.060373  0.0  -0.042303  -0.133445  0.000163  4.019758  0.0
C  C67  1  0.27282295  0.39004107  0.89887500  1  -0.16297  -0.004787  3.777457  -0.005  -0.142006  0.000354  4.035661  0.0  -0.155924  0.000438  4.060331  0.0  -0.042293  -0.133501  0.000164  4.019721  0.0
C  C68  1  0.75074335  0.51564197  0.02073580  1  -0.028438  0.00696  3.777011  0.004  -0.060356  0.000737  4.040936  0.0  -0.054776  0.00095  4.061028  0.0  -0.086711  -0.063512  0.000569  4.026702  -0.001
C  C69  1  0.24925637  0.48435935  0.97926513  1  -0.028475  0.006964  3.777075  0.004  -0.06037  0.000736  4.04098  0.0  -0.05479  0.000949  4.061073  0.0  -0.08672  -0.063525  0.000568  4.026746  -0.001
C  C70  1  0.68369439  0.47966175  0.91219669  1  -0.204156  -0.017412  3.714616  -0.019  -0.221467  -0.007027  3.974212  -0.008  -0.232531  -0.004643  3.994296  -0.006  -0.11046  -0.214117  -0.009002  3.960154  -0.01
C  C71  1  0.31630708  0.52033874  0.08780342  1  -0.204181  -0.017414  3.714512  -0.019  -0.221463  -0.007032  3.974139  -0.008  -0.232527  -0.004636  3.994222  -0.006  -0.110463  -0.214114  -0.009002  3.96008  -0.01
C  C72  1  0.58824993  0.53506044  0.87684572  1  0.367945  0.006603  3.842167  0.008  0.359943  -0.000582  4.106829  0.001  0.384555  0.000325  4.122027  0.001  0.091679  0.343764  -0.001607  4.095921  0.001
C  C73  1  0.41175284  0.46493757  0.12315367  1  0.36808  0.006608  3.842089  0.008  0.359925  -0.000564  4.106866  0.001  0.384538  0.000306  4.12206  0.001  0.091642  0.343749  -0.001605  4.095953  0.001
C  C74  1  0.57017281  0.63347979  0.95885674  1  -0.233473  -0.013049  3.758853  -0.016  -0.216736  -0.006132  4.000532  -0.008  -0.237475  -0.003636  4.024699  -0.005  -0.051015  -0.203486  -0.00819  3.984311  -0.01
C  C75  1  0.42982744  0.36651986  0.04114591  1  -0.233639  -0.013049  3.758974  -0.016  -0.216719  -0.00615  4.000498  -0.008  -0.237451  -0.003618  4.024657  -0.005  -0.051053  -0.203474  -0.00819  3.984279  -0.01
C  C76  1  0.63855126  0.66740123  0.06930562  1  -0.039064  0.005601  3.762281  0.004  -0.075441  0.000675  4.016596  0.0  -0.066074  0.000873  4.033554  0.001  -0.085319  -0.081177  0.000353  4.005052  0.0
C  C77  1  0.36144635  0.33259590  0.93069731  1  -0.03891  0.005606  3.762116  0.004  -0.075332  0.000684  4.016382  0.0  -0.065967  0.000865  4.033337  0.001  -0.085264  -0.081069  0.000353  4.004841  0.0
C  C78  1  0.48494218  0.70388971  0.93227311  1  0.640915  0.015416  3.866653  0.016  0.604684  0.003666  4.157957  0.006  0.647762  0.004301  4.151758  0.005  0.197265  0.57567  0.002706  4.161867  0.006
C  C79  1  0.51506025  0.29611078  0.06773085  1  0.640951  0.015415  3.866656  0.016  0.604648  0.003669  4.157963  0.006  0.647725  0.0043  4.151763  0.005  0.197287  0.575637  0.002706  4.161876  0.006
C  C80  1  0.27685976  0.00450604  0.80069280  1  0.165491  0.011166  3.643595  0.008  0.13591  0.003596  3.896824  0.003  0.148511  0.004981  3.912178  0.003  0.0654  0.12795  0.002449  3.886499  0.002
C  C81  1  0.72314051  0.99549362  0.19930612  1  0.165361  0.011191  3.643785  0.008  0.135788  0.003592  3.897014  0.003  0.148408  0.004986  3.912372  0.003  0.065372  0.127829  0.002449  3.886692  0.002
C  C82  1  0.17309610  0.04185273  0.75202013  1  -0.106281  -0.007593  3.672497  -0.008  -0.117182  -0.00367  3.91857  -0.004  -0.125218  -0.003224  3.937721  -0.004  -0.071095  -0.111865  -0.004183  3.905623  -0.005
C  C83  1  0.82689970  0.95814857  0.24797955  1  -0.106287  -0.007612  3.672571  -0.008  -0.117195  -0.003669  3.91862  -0.004  -0.125218  -0.003228  3.937774  -0.004  -0.071114  -0.11188  -0.004183  3.905674  -0.005
C  C84  1  0.04334468  0.01320954  0.76385349  1  -0.034931  0.010938  3.657531  0.007  -0.060157  0.004598  3.905528  0.003  -0.055626  0.005082  3.920831  0.003  -0.052839  -0.063048  0.004432  3.894951  0.003
C  C85  1  0.95665428  0.98679261  0.23614689  1  -0.034884  0.01097  3.65743  0.007  -0.060102  0.004598  3.905404  0.003  -0.055569  0.00509  3.920701  0.003  -0.052819  -0.06299  0.004433  3.894827  0.003
C  C86  1  0.01713332  0.94744475  0.82512532  1  0.019285  -0.003729  3.803505  -0.004  0.034646  -0.001963  4.03929  -0.002  0.032117  -0.00165  4.062432  -0.002  -0.001853  0.036306  -0.002622  4.023269  -0.003
C  C87  1  0.98286696  0.05255492  0.17487210  1  0.019258  -0.003741  3.80352  -0.004  0.034701  -0.001964  4.039183  -0.002  0.032174  -0.001654  4.062326  -0.002  -0.001848  0.036356  -0.002622  4.023172  -0.003
C  C88  1  0.88884870  0.91723066  0.84768664  1  -0.093087  -0.001695  3.719999  -0.002  -0.117505  -0.001177  3.974803  -0.001  -0.120935  -0.001048  3.997726  -0.001  -0.082316  -0.115088  -0.001894  3.957828  -0.002
C  C89  1  0.11114894  0.08276650  0.15231031  1  -0.093111  -0.001688  3.720095  -0.002  -0.117526  -0.001179  3.974902  -0.001  -0.120956  -0.001043  3.997827  -0.001  -0.082269  -0.115112  -0.001895  3.957923  -0.002
C  C90  1  0.87240365  0.85754846  0.91194933  1  -0.097023  -0.000424  3.718909  0.0  -0.1186  -0.000491  3.976386  -0.001  -0.121539  -0.000342  3.998575  0.0  -0.082172  -0.116189  -0.000709  3.960832  -0.001
C  C91  1  0.12759475  0.14244787  0.08804743  1  -0.097008  -0.00043  3.719039  0.0  -0.118632  -0.000489  3.976502  -0.001  -0.121572  -0.000347  3.998693  0.0  -0.082208  -0.116223  -0.000707  3.96095  -0.001
C  C92  1  0.98241140  0.82096047  0.95768698  1  0.021869  -0.004679  3.799744  -0.005  0.03683  -0.002433  4.031904  -0.003  0.034016  -0.002045  4.055282  -0.003  -0.001089  0.038631  -0.002804  4.015892  -0.003
C  C93  1  0.01759336  0.17903757  0.04230818  1  0.021856  -0.004684  3.799883  -0.005  0.036896  -0.002435  4.031895  -0.003  0.034082  -0.002042  4.055274  -0.003  -0.001084  0.038697  -0.002804  4.015882  -0.003
C  C94  1  0.97404853  0.76035686  0.02567677  1  -0.030631  0.012064  3.655735  0.008  -0.053606  0.005324  3.901016  0.003  -0.049387  0.005919  3.918247  0.003  -0.054875  -0.056315  0.004776  3.889362  0.003
C  C95  1  0.02595196  0.23964363  0.97432247  1  -0.030745  0.01208  3.655856  0.008  -0.053768  0.005326  3.901139  0.003  -0.049549  0.005912  3.91837  0.003  -0.054916  -0.056476  0.004775  3.889486  0.003
C  C96  1  0.08856797  0.73309570  0.06870433  1  -0.11705  -0.00856  3.693381  -0.009  -0.128391  -0.004322  3.938252  -0.005  -0.136406  -0.003799  3.95732  -0.005  -0.077139  -0.123364  -0.004707  3.925614  -0.006
C  C97  1  0.91143471  0.26690564  0.93129548  1  -0.116967  -0.008568  3.693265  -0.009  -0.128309  -0.004323  3.938157  -0.005  -0.136324  -0.003795  3.957224  -0.005  -0.077111  -0.123284  -0.004707  3.92552  -0.006
C  C98  1  0.21132031  0.76593943  0.04388189  1  0.156917  0.011126  3.654478  0.008  0.12848  0.003197  3.905183  0.002  0.140396  0.004904  3.920805  0.003  0.065889  0.121131  0.00199  3.894961  0.002
C  C99  1  0.78868116  0.23406107  0.95611821  1  0.156937  0.011139  3.654481  0.008  0.128476  0.0032  3.905204  0.002  0.140393  0.0049  3.920825  0.003  0.065899  0.121126  0.00199  3.894986  0.002
C  C100  1  0.10991232  0.84978354  0.93649025  1  0.124141  0.003016  3.775772  0.002  0.11816  0.000114  4.015895  0.0  0.122888  0.001407  4.03969  0.001  0.112981  0.115035  -0.000752  4.00067  -0.001
C  C101  1  0.89008902  0.15021280  0.06350763  1  0.124081  0.003018  3.775686  0.002  0.118162  0.000113  4.015666  0.0  0.12289  0.001401  4.039461  0.001  0.112982  0.115038  -0.000751  4.000444  -0.001
C  C102  1  0.12772239  0.91377854  0.87097384  1  0.12171  0.001706  3.781295  0.001  0.116107  -0.000358  4.02369  -0.001  0.121435  0.000678  4.047166  0.0  0.110744  0.1126  -0.001146  4.008193  -0.001
C  C103  1  0.87227571  0.08622030  0.12902302  1  0.121715  0.001721  3.781341  0.001  0.116063  -0.000357  4.023711  -0.001  0.121389  0.000686  4.04719  0.0  0.11071  0.112557  -0.001147  4.008217  -0.001
S  S104  1  0.81589563  0.65745441  0.24074963  1  1.283494  0.00089  5.723186  0.001  1.199173  0.000474  6.248537  0.0  1.248623  0.000495  6.223679  0.0  0.481104  1.164984  0.000403  6.264063  0.0
S  S105  1  0.18410461  0.34254524  0.75925376  1  1.283605  0.000888  5.723107  0.001  1.199293  0.000476  6.248429  0.0  1.248743  0.000485  6.223567  0.0  0.481154  1.165103  0.000403  6.263961  0.0
N  N106  1  0.75732122  0.40712135  0.37597283  1  -0.30964  -0.061412  3.320273  -0.078  -0.263472  -0.047081  3.60644  -0.064  -0.291186  -0.039319  3.626294  -0.057  -0.33873  -0.247991  -0.051356  3.595522  -0.066
N  N107  1  0.24268024  0.59287914  0.62402952  1  -0.309287  -0.061434  3.319892  -0.078  -0.263375  -0.04708  3.606202  -0.064  -0.291092  -0.03932  3.626049  -0.057  -0.338633  -0.247897  -0.051353  3.595293  -0.066
N  N108  1  0.62167177  0.56334545  0.44395097  1  -0.31531  -0.062076  3.322558  -0.08  -0.274586  -0.047002  3.61778  -0.064  -0.301519  -0.039104  3.63547  -0.058  -0.337722  -0.259296  -0.051238  3.607951  -0.067
N  N109  1  0.37832773  0.43665503  0.55604963  1  -0.31537  -0.062066  3.322469  -0.08  -0.274612  -0.047003  3.617751  -0.064  -0.30155  -0.039101  3.635448  -0.058  -0.337714  -0.259324  -0.051238  3.607929  -0.067
N  N110  1  0.22092351  0.82225254  0.97906713  1  -0.310543  -0.074161  3.343049  -0.094  -0.263947  -0.057629  3.630108  -0.078  -0.293986  -0.047405  3.650681  -0.069  -0.343193  -0.247278  -0.062847  3.618724  -0.081
N  N111  1  0.77907457  0.17774628  0.02093271  1  -0.310631  -0.074167  3.343141  -0.094  -0.264045  -0.057629  3.630193  -0.078  -0.294088  -0.047402  3.650765  -0.069  -0.343243  -0.24738  -0.062846  3.618819  -0.081
N  N112  1  0.25441922  0.94185680  0.85818366  1  -0.331866  -0.067843  3.35451  -0.087  -0.288048  -0.050202  3.650445  -0.069  -0.32014  -0.041772  3.673214  -0.062  -0.340449  -0.269229  -0.0566  3.636641  -0.074
N  N113  1  0.74558248  0.05814454  0.14181602  1  -0.331713  -0.067858  3.354491  -0.087  -0.287909  -0.050199  3.650439  -0.069  -0.319999  -0.041775  3.673197  -0.062  -0.340409  -0.269092  -0.0566  3.636637  -0.074
Cl  Cl114  1  0.55957812  0.93591213  0.86850551  1  -0.519264  -0.105022  1.00076  -0.13  -0.525676  -0.062827  1.288335  -0.083  -0.557486  -0.045502  1.260945  -0.066  -0.295281  -0.505511  -0.075546  1.306265  -0.095
Cl  Cl115  1  0.44042489  0.06409418  0.13149908  1  -0.519296  -0.105025  1.000701  -0.13  -0.525733  -0.062828  1.2883  -0.083  -0.55754  -0.045503  1.260906  -0.066  -0.295314  -0.505569  -0.075551  1.306231  -0.095
O  O116  1  0.80457342  0.55562314  0.26560424  1  -0.712276  0.000629  2.033188  -0.001  -0.678079  0.001059  2.317522  0.0  -0.703767  0.001506  2.300333  0.0  -0.371529  -0.659475  0.000503  2.328511  -0.001
O  O117  1  0.19542977  0.44437653  0.73439878  1  -0.712313  0.000628  2.033073  -0.001  -0.678126  0.001045  2.317428  0.0  -0.703815  0.001538  2.300228  0.0  -0.371537  -0.659523  0.000504  2.328418  -0.001
O  O118  1  0.95710941  0.70194789  0.24461157  1  -0.688632  -0.001296  1.892425  -0.002  -0.646853  -0.000261  2.127085  0.0  -0.667875  -7.3e-05  2.112903  0.0  -0.371963  -0.630909  -0.000487  2.135702  -0.001
O  O119  1  0.04288843  0.29805009  0.75538944  1  -0.688689  -0.001296  1.892418  -0.002  -0.646917  -0.000269  2.12708  0.0  -0.667942  -6.5e-05  2.112897  0.0  -0.372003  -0.630973  -0.000487  2.1357  -0.001
O  O120  1  0.75026279  0.73997757  0.30564466  1  -0.66293  -0.000292  1.890293  -0.001  -0.625212  -1e-05  2.116852  0.0  -0.644514  4.4e-05  2.102302  0.0  -0.367245  -0.611114  -0.000141  2.12629  0.0
O  O121  1  0.24973648  0.26002208  0.69435711  1  -0.662961  -0.000289  1.890318  -0.001  -0.625239  -2e-06  2.116864  0.0  -0.644544  3.9e-05  2.102315  0.0  -0.367268  -0.611139  -0.000142  2.126304  0.0
O  O122  1  0.52757724  0.49344725  0.77268858  1  -0.548222  -0.123184  2.095105  -0.167  -0.545186  -0.070784  2.398191  -0.106  -0.593679  -0.050167  2.397543  -0.081  -0.338325  -0.513377  -0.084438  2.398378  -0.119
O  O123  1  0.47242761  0.50655493  0.22731329  1  -0.548267  -0.123186  2.095097  -0.167  -0.545167  -0.070783  2.398256  -0.106  -0.593659  -0.050174  2.39761  -0.081  -0.338308  -0.513345  -0.08444  2.398412  -0.119
O  O124  1  0.40418642  0.67464349  0.83834192  1  -0.604927  -0.075654  2.160682  -0.107  -0.587155  -0.05027  2.466372  -0.078  -0.63208  -0.036011  2.454134  -0.061  -0.33035  -0.557971  -0.060686  2.474993  -0.089
O  O125  1  0.59581405  0.32535699  0.16166104  1  -0.604922  -0.075652  2.160671  -0.107  -0.587161  -0.050269  2.466401  -0.078  -0.632084  -0.03601  2.454169  -0.061  -0.33037  -0.557969  -0.060685  2.474998  -0.089
O  O126  1  0.49354076  0.80086377  0.00630778  1  -0.560985  -0.111429  2.057391  -0.151  -0.538084  -0.071268  2.333287  -0.105  -0.586561  -0.052274  2.330408  -0.083  -0.319123  -0.507517  -0.083368  2.335724  -0.117
O  O127  1  0.50646168  0.19913672  0.99369469  1  -0.561003  -0.11143  2.057397  -0.151  -0.538064  -0.071268  2.333285  -0.105  -0.586547  -0.052272  2.33041  -0.083  -0.319119  -0.507498  -0.083367  2.335724  -0.117
