# generated using pymatgen
data_AlH9C14NClO5
_symmetry_space_group_name_H-M   'P 1'
_cell_length_a   6.65540206
_cell_length_b   11.03251696
_cell_length_c   17.02857377
_cell_angle_alpha   84.91171827
_cell_angle_beta   82.30113039
_cell_angle_gamma   73.54766585
_symmetry_Int_Tables_number   1
_chemical_formula_structural   AlH9C14NClO5
_chemical_formula_sum   'Al2 H18 C28 N2 Cl2 O10'
_cell_volume   1186.63848808
_cell_formula_units_Z   2
loop_
 _symmetry_equiv_pos_site_id
 _symmetry_equiv_pos_as_xyz
  1  'x, y, z'
loop_
 _atom_site_type_symbol
 _atom_site_label
 _atom_site_symmetry_multiplicity
 _atom_site_fract_x
 _atom_site_fract_y
 _atom_site_fract_z
 _atom_site_occupancy
 _atom_site_pbe_bader_charge
 _atom_site_pbe_bader_spin_density
 _atom_site_pbe_cm5_charge
 _atom_site_pbe_ddec_charge
 _atom_site_pbe_ddec_spin_density
 _atom_site_pbe_ddec_sum_bond_order
 _atom_site_pbe_magmom
Al  Al0  1  0.48927247  0.50025502  0.49437240  1  2.504137  0  0.390242  1.646858  0  2.573316  0
Al  Al1  1  0.98740985  0.50199776  0.49727572  1  2.499959  0  0.396476  1.637645  0  2.573086  0
H  H2  1  0.17740423  0.65559090  0.45804511  1  0.642491  0  0.352352  0.427295  0  0.859568  0
H  H3  1  0.80285016  0.34658556  0.53287572  1  0.655395  0  0.343045  0.415613  0  0.887604  0
H  H4  1  0.90654799  0.42281273  0.73995850  1  0.101541  0  0.103429  0.103668  0  1.036358  0
H  H5  1  0.85120043  0.41917991  0.88864841  1  0.101724  0  0.107242  0.111773  0  1.014275  0
H  H6  1  0.37596366  0.57518366  0.88576022  1  0.102953  0  0.112201  0.128343  0  0.995  0
H  H7  1  0.67339286  0.38030310  0.10728490  1  0.111337  0  0.112044  0.127819  0  0.995563  0
H  H8  1  0.15074177  0.57447546  0.10716047  1  0.096799  0  0.108149  0.113444  0  1.008625  0
H  H9  1  0.07679412  0.57990057  0.25563241  1  0.098162  0  0.112175  0.120099  0  0.985635  0
H  H10  1  0.84954080  0.77123483  0.61651887  1  0.080143  0  0.101646  0.115208  0  1.032573  0
H  H11  1  0.61493610  0.24025261  0.59912575  1  0.079556  0  0.10499  0.110335  0  1.054796  0
H  H12  1  0.18296666  0.11416151  0.43588601  1  0.092569  0  0.111648  0.116562  0  0.981725  0
H  H13  1  0.29978690  0.87808710  0.44492459  1  0.073476  0  0.109446  0.111392  0  0.991027  0
H  H14  1  0.20380266  0.88832284  0.69027136  1  0.04548  0  0.090557  0.126081  0  1.008683  0
H  H15  1  0.06588060  0.77091644  0.71239625  1  0.04932  0  0.084502  0.120765  0  1.036185  0
H  H16  1  0.00006601  0.90623516  0.77002287  1  0.062481  0  0.092687  0.127969  0  0.990295  0
H  H17  1  0.88600092  0.13379669  0.75900099  1  0.048502  0  0.093039  0.126653  0  0.991885  0
H  H18  1  0.85394266  0.25421570  0.68107304  1  0.041336  0  0.094796  0.134743  0  1.005272  0
H  H19  1  0.09081522  0.12854027  0.68066052  1  0.019419  0  0.09439  0.133236  0  0.99264  0
C  C20  1  0.61927078  0.72713390  0.51107983  1  1.54744  0  0.27291  0.655162  0  4.079017  0
C  C21  1  0.79337991  0.50061399  0.35261013  1  1.576482  0  0.2638  0.645525  0  4.105129  0
C  C22  1  0.35085523  0.27393346  0.49336310  1  1.549552  0  0.273303  0.65584  0  4.078327  0
C  C23  1  0.19308078  0.49481742  0.64039852  1  1.591627  0  0.261019  0.638681  0  4.112781  0
C  C24  1  0.17268105  0.49792400  0.72888539  1  -0.008031  0  -0.012642  -0.097991  0  3.919918  0
C  C25  1  0.00980211  0.45431509  0.77303967  1  -0.007497  0  -0.07932  -0.06819  0  3.991403  0
C  C26  1  0.97816969  0.45248078  0.85504261  1  0.009062  0  -0.086323  -0.150451  0  3.952525  0
C  C27  1  0.11151706  0.49686228  0.89574376  1  0.280538  0  0.090624  0.191593  0  4.042416  0
C  C28  1  0.27518569  0.54030072  0.85334325  1  0.084028  0  -0.084772  -0.214147  0  3.933486  0
C  C29  1  0.30662123  0.54071110  0.77065162  1  0.026324  0  0.024146  0.138616  0  4.022404  0
C  C30  1  0.75944590  0.42528366  0.14026706  1  -0.032138  0  -0.083969  -0.212972  0  3.938349  0
C  C31  1  0.91512109  0.47700153  0.09887609  1  0.374527  0  0.090177  0.189478  0  4.047985  0
C  C32  1  0.03057670  0.53434014  0.14006995  1  -0.026944  0  -0.085491  -0.150771  0  3.955058  0
C  C33  1  0.98805750  0.53798791  0.22178794  1  0.027407  0  -0.075089  -0.066247  0  3.978724  0
C  C34  1  0.83035530  0.48804010  0.26465437  1  0.007801  0  -0.010543  -0.090993  0  3.906263  0
C  C35  1  0.71689040  0.43037663  0.22253642  1  0.097968  0  0.024334  0.14405  0  4.022254  0
C  C36  1  0.54650433  0.86726314  0.51634105  1  0.036672  0  -0.008784  -0.085351  0  3.93847  0
C  C37  1  0.64661034  0.93495216  0.55929290  1  -0.058609  0  -0.00326  0.059715  0  3.986377  0
C  C38  1  0.37773581  0.93172732  0.47526329  1  -0.032772  0  -0.081735  -0.090687  0  3.998857  0
C  C39  1  0.80090351  0.87427375  0.61066160  1  8e-06  0  -0.097798  -0.203054  0  3.953009  0
C  C40  1  0.88925523  0.94131755  0.65449872  1  0.000247  0  -0.006408  0.124548  0  3.953713  0
C  C41  1  0.41491083  0.13351280  0.50616423  1  -0.010797  0  -0.007864  -0.081446  0  3.941275  0
C  C42  1  0.31180896  0.06444142  0.47014663  1  -0.044227  0  -0.082474  -0.095662  0  4.001908  0
C  C43  1  0.57899820  0.07097066  0.55404125  1  -0.027521  0  -0.00308  0.062294  0  3.982519  0
C  C44  1  0.67123690  0.13743608  0.60000773  1  -0.006562  0  -0.100369  -0.214735  0  3.971401  0
C  C45  1  0.82428692  0.07656631  0.64834152  1  -0.039532  0  -0.007792  0.122788  0  3.961352  0
C  C46  1  0.04785055  0.87295281  0.70947755  1  -0.097019  0  -0.239909  -0.405575  0  3.98344  0
C  C47  1  0.91819725  0.15248374  0.69460003  1  -0.055157  0  -0.235731  -0.40272  0  3.96376  0
N  N48  1  0.09209789  0.50450569  0.97899538  1  -0.471313  0  -0.148548  -0.134962  0  3.259139  0
N  N49  1  0.94072764  0.46670917  0.01591170  1  -0.500362  0  -0.145545  -0.128232  0  3.2738  0
Cl  Cl50  1  0.50649841  0.60183415  0.72401292  1  -0.177281  0  0.036949  -0.026821  0  1.600143  0
Cl  Cl51  1  0.52917448  0.35895794  0.26873705  1  -0.18191  0  0.011852  -0.047913  0  1.517053  0
O  O52  1  0.47678308  0.67035387  0.51219901  1  -1.259175  0  -0.234465  -0.600884  0  2.365058  0
O  O53  1  0.95476584  0.49646377  0.38645585  1  -1.24573  0  -0.233764  -0.583219  0  2.336129  0
O  O54  1  0.15380521  0.32891737  0.49750591  1  -1.263065  0  -0.232409  -0.59244  0  2.34  0
O  O55  1  0.37742892  0.47625431  0.60372662  1  -1.255666  0  -0.238036  -0.599147  0  2.422508  0
O  O56  1  0.49587747  0.32985116  0.47888947  1  -1.256192  0  -0.234766  -0.599503  0  2.37723  0
O  O57  1  0.02400557  0.50738845  0.60914424  1  -1.243028  0  -0.23662  -0.585306  0  2.333733  0
O  O58  1  0.81715279  0.67378908  0.50266989  1  -1.258413  0  -0.231939  -0.595079  0  2.350691  0
O  O59  1  0.60544255  0.51805080  0.38596475  1  -1.249893  0  -0.236625  -0.594997  0  2.378393  0
O  O60  1  0.21839936  0.56397003  0.46462361  1  -1.444881  0  -0.447438  -0.97938  0  2.186728  0
O  O61  1  0.75712781  0.43844939  0.52781235  1  -1.462749  0  -0.450661  -0.984912  0  2.203558  0
