# generated using pymatgen
data_AgH4C5SNO3
_symmetry_space_group_name_H-M   'P 1'
_cell_length_a   6.68857078
_cell_length_b   6.98106370
_cell_length_c   7.73729987
_cell_angle_alpha   74.04497956
_cell_angle_beta   67.77492939
_cell_angle_gamma   84.82613680
_symmetry_Int_Tables_number   1
_chemical_formula_structural   AgH4C5SNO3
_chemical_formula_sum   'Ag2 H8 C10 S2 N2 O6'
_cell_volume   321.51713927
_cell_formula_units_Z   2
loop_
 _symmetry_equiv_pos_site_id
 _symmetry_equiv_pos_as_xyz
  1  'x, y, z'
loop_
 _atom_site_type_symbol
 _atom_site_label
 _atom_site_symmetry_multiplicity
 _atom_site_fract_x
 _atom_site_fract_y
 _atom_site_fract_z
 _atom_site_occupancy
 _atom_site_hle17_bader_spin_density
 _atom_site_hle17_ddec_charge
 _atom_site_hle17_ddec_spin_density
 _atom_site_hle17_ddec_sum_bond_order
 _atom_site_hle17_magmom
 _atom_site_hse06_10hf_bader_spin_density
 _atom_site_hse06_10hf_ddec_charge
 _atom_site_hse06_10hf_ddec_spin_density
 _atom_site_hse06_10hf_ddec_sum_bond_order
 _atom_site_hse06_10hf_magmom
 _atom_site_hse06_bader_spin_density
 _atom_site_hse06_ddec_charge
 _atom_site_hse06_ddec_spin_density
 _atom_site_hse06_ddec_sum_bond_order
 _atom_site_hse06_magmom
 _atom_site_pbe_bader_spin_density
 _atom_site_pbe_cm5_charge
 _atom_site_pbe_ddec_charge
 _atom_site_pbe_ddec_spin_density
 _atom_site_pbe_ddec_sum_bond_order
 _atom_site_pbe_magmom
Ag  Ag0  1  0.50993964  0.62448413  0.17695606  1  0  0.611407  0  1.308154  0  0  0.489424  0  1.724994  0  0  0.516563  0  1.681743  0  0  0.474578  0.470815  0  1.754606  0
Ag  Ag1  1  0.49006377  0.37550985  0.82304046  1  0  0.611441  0  1.308185  0  0  0.48947  0  1.725033  0  0  0.516609  0  1.681781  0  0  0.474598  0.470866  0  1.754645  0
H  H2  1  0.09380895  0.95768501  0.63321706  1  0  0.12096  0  0.949633  0  0  0.130501  0  1.009838  0  0  0.133506  0  1.008844  0  0  0.112432  0.128398  0  1.010601  0
H  H3  1  0.90620100  0.04231335  0.36678402  1  0  0.121038  0  0.94964  0  0  0.130573  0  1.009818  0  0  0.133579  0  1.008823  0  0  0.112455  0.128469  0  1.010586  0
H  H4  1  0.88588503  0.09641443  0.91584549  1  0  0.111978  0  0.948069  0  0  0.12083  0  1.008329  0  0  0.123696  0  1.006241  0  0  0.110935  0.11864  0  1.010033  0
H  H5  1  0.11412494  0.90358544  0.08415393  1  0  0.111988  0  0.948037  0  0  0.120848  0  1.008298  0  0  0.123714  0  1.006216  0  0  0.110956  0.118661  0  1.010003  0
H  H6  1  0.95763952  0.45032335  0.89307558  1  0  0.116934  0  0.951348  0  0  0.128819  0  1.008905  0  0  0.131829  0  1.00741  0  0  0.110364  0.126522  0  1.010357  0
H  H7  1  0.04235593  0.54967807  0.10692177  1  0  0.116961  0  0.951404  0  0  0.128852  0  1.008936  0  0  0.131862  0  1.00744  0  0  0.110376  0.126554  0  1.01039  0
H  H8  1  0.22763008  0.65485584  0.58466937  1  0  0.10174  0  0.950746  0  0  0.109554  0  1.014865  0  0  0.112163  0  1.012512  0  0  0.11791  0.107634  0  1.016576  0
H  H9  1  0.77237037  0.34515447  0.41532937  1  0  0.101737  0  0.95074  0  0  0.10955  0  1.01486  0  0  0.112159  0  1.012508  0  0  0.117909  0.107631  0  1.01657  0
C  C10  1  0.26202653  0.23555239  0.46258526  1  0  0.049584  0  3.712753  0  0  0.059655  0  3.956874  0  0  0.060766  0  3.97799  0  0  0.110373  0.05866  0  3.94296  0
C  C11  1  0.73796555  0.76444003  0.53742052  1  0  0.049757  0  3.712602  0  0  0.059817  0  3.956701  0  0  0.060927  0  3.977819  0  0  0.110462  0.058825  0  3.942782  0
C  C12  1  0.11662784  0.11142653  0.62758896  1  0  -0.079699  0  3.689781  0  0  -0.105792  0  3.939098  0  0  -0.109521  0  3.958775  0  0  -0.07383  -0.103636  0  3.926285  0
C  C13  1  0.88336930  0.88857930  0.37241194  1  0  -0.079916  0  3.689735  0  0  -0.105962  0  3.939028  0  0  -0.109688  0  3.9587  0  0  -0.07388  -0.103797  0  3.926203  0
C  C14  1  0.00382322  0.18817592  0.78554227  1  0  0.014497  0  3.661827  0  0  -0.003704  0  3.913926  0  0  0.000454  0  3.928537  0  0  -0.060789  -0.006394  0  3.904298  0
C  C15  1  0.99617538  0.81181947  0.21446195  1  0  0.014603  0  3.662018  0  0  -0.003643  0  3.914142  0  0  0.000512  0  3.928757  0  0  -0.060818  -0.006318  0  3.904483  0
C  C16  1  0.04453703  0.38469026  0.77347742  1  0  -0.115475  0  3.71829  0  0  -0.129695  0  3.974491  0  0  -0.134463  0  3.991265  0  0  -0.083946  -0.126852  0  3.963532  0
C  C17  1  0.95546985  0.61531860  0.22651568  1  0  -0.115625  0  3.718607  0  0  -0.129827  0  3.974788  0  0  -0.1346  0  3.991572  0  0  -0.083989  -0.126986  0  3.96384  0
C  C18  1  0.19251733  0.49982269  0.60221353  1  0  0.107261  0  3.691333  0  0  0.077305  0  3.948275  0  0  0.083926  0  3.965012  0  0  0.035053  0.072875  0  3.936947  0
C  C19  1  0.80748461  0.50018017  0.39778651  1  0  0.107389  0  3.69117  0  0  0.077432  0  3.948106  0  0  0.084053  0  3.964845  0  0  0.035114  0.073001  0  3.93678  0
S  S20  1  0.41288191  0.14133671  0.25620558  1  0  1.247969  0  5.656878  0  0  1.14971  0  6.164574  0  0  1.198825  0  6.141942  0  0  0.501226  1.115739  0  6.179121  0
S  S21  1  0.58711347  0.85866022  0.74379545  1  0  1.247742  0  5.656768  0  0  1.149475  0  6.164486  0  0  1.198591  0  6.141852  0  0  0.501154  1.115508  0  6.179015  0
N  N22  1  0.29774968  0.42722082  0.44717651  1  0  -0.317208  0  3.362168  0  0  -0.240736  0  3.631812  0  0  -0.259424  0  3.651849  0  0  -0.34009  -0.228007  0  3.618051  0
N  N23  1  0.70224411  0.57277758  0.55282599  1  0  -0.317353  0  3.362269  0  0  -0.240901  0  3.63196  0  0  -0.259589  0  3.651994  0  0  -0.340179  -0.228176  0  3.618201  0
O  O24  1  0.63055059  0.22808488  0.17549392  1  0  -0.654453  0  2.006518  0  0  -0.602815  0  2.274378  0  0  -0.625395  0  2.259878  0  0  -0.328477  -0.586715  0  2.283741  0
O  O25  1  0.36945431  0.77190169  0.82450001  1  0  -0.654388  0  2.006535  0  0  -0.602725  0  2.274356  0  0  -0.625306  0  2.259862  0  0  -0.328474  -0.586625  0  2.283712  0
O  O26  1  0.39925871  0.92481795  0.33126424  1  0  -0.647518  0  2.050451  0  0  -0.591079  0  2.328933  0  0  -0.614416  0  2.314761  0  0  -0.332829  -0.574522  0  2.338051  0
O  O27  1  0.60073031  0.07518490  0.66874004  1  0  -0.647393  0  2.050298  0  0  -0.590965  0  2.328799  0  0  -0.614302  0  2.314628  0  0  -0.332774  -0.574417  0  2.337933  0
O  O28  1  0.29284371  0.21507088  0.12241744  1  0  -0.668012  0  2.056511  0  0  -0.592021  0  2.3369  0  0  -0.61855  0  2.321223  0  0  -0.352924  -0.573211  0  2.34692  0
O  O29  1  0.70715336  0.78493049  0.87758327  1  0  -0.667948  0  2.056495  0  0  -0.591951  0  2.336882  0  0  -0.61848  0  2.321206  0  0  -0.352899  -0.573141  0  2.346899  0
