# generated using pymatgen
data_Al2H8C19O11
_symmetry_space_group_name_H-M   'P 1'
_cell_length_a   6.70286982
_cell_length_b   18.42338931
_cell_length_c   20.60337494
_cell_angle_alpha   107.87927353
_cell_angle_beta   90.36463069
_cell_angle_gamma   90.06771144
_symmetry_Int_Tables_number   1
_chemical_formula_structural   Al2H8C19O11
_chemical_formula_sum   'Al4 H16 C38 O22'
_cell_volume   2421.36421302
_cell_formula_units_Z   2
loop_
 _symmetry_equiv_pos_site_id
 _symmetry_equiv_pos_as_xyz
  1  'x, y, z'
loop_
 _atom_site_type_symbol
 _atom_site_label
 _atom_site_symmetry_multiplicity
 _atom_site_fract_x
 _atom_site_fract_y
 _atom_site_fract_z
 _atom_site_occupancy
 _atom_site_pbe_bader_charge
 _atom_site_pbe_bader_spin_density
 _atom_site_pbe_cm5_charge
 _atom_site_pbe_ddec_charge
 _atom_site_pbe_ddec_spin_density
 _atom_site_pbe_ddec_sum_bond_order
 _atom_site_pbe_magmom
Al  Al0  1  0.13705139  0.50057146  0.50113759  1  2.50387  0  0.406469  1.647281  0  2.57764  0
Al  Al1  1  0.63720482  0.50098845  0.50139142  1  2.501725  0  0.40688  1.646214  0  2.578222  0
Al  Al2  1  0.65311376  0.00057466  0.00171876  1  2.503023  0  0.407979  1.649331  0  2.572659  0
Al  Al3  1  0.15283357  0.00014654  0.00085298  1  2.504137  0  0.406515  1.649222  0  2.576587  0
H  H4  1  0.20704940  0.69009734  0.27232738  1  0.138651  0  0.112947  0.126296  0  1.007526  0
H  H5  1  0.20748079  0.77360938  0.19863932  1  0.10785  0  0.111127  0.120964  0  1.012438  0
H  H6  1  0.71146403  0.28961626  0.70982762  1  0.087092  0  0.110246  0.111342  0  0.998922  0
H  H7  1  0.71614476  0.20897965  0.78768324  1  0.073378  0  0.110129  0.111115  0  1.00005  0
H  H8  1  0.07372092  0.21038676  0.79123015  1  0.078264  0  0.110384  0.111853  0  0.998871  0
H  H9  1  0.06909266  0.29103871  0.71336623  1  0.065681  0  0.109965  0.111399  0  0.999374  0
H  H10  1  0.59292286  0.91960545  0.20533234  1  0.079608  0  0.099883  0.109151  0  1.019504  0
H  H11  1  0.59210308  0.93399627  0.29581258  1  0.058375  0  0.097682  0.092182  0  0.991714  0
H  H12  1  0.36270221  0.91536517  0.24779440  1  0.090344  0  0.109844  0.117766  0  0.977075  0
H  H13  1  0.47233038  0.83961050  0.37166392  1  0.044508  0  0.095047  0.090232  0  1.005789  0
H  H14  1  0.60386951  0.78348821  0.41614683  1  0.05919  0  0.096835  0.094162  0  0.99447  0
H  H15  1  0.34661413  0.76362926  0.39249548  1  0.080722  0  0.109337  0.117677  0  0.97846  0
H  H16  1  0.38700648  0.59362046  0.49707420  1  0.62335  0  0.359838  0.441507  0  0.837648  0
H  H17  1  0.88564030  0.40156284  0.48777941  1  0.618876  0  0.362587  0.44395  0  0.831729  0
H  H18  1  0.40261492  0.90164199  0.98923151  1  0.621373  0  0.363407  0.445898  0  0.828615  0
H  H19  1  0.90377626  0.09753482  0.00708064  1  0.634945  0  0.361968  0.443861  0  0.831903  0
C  C20  1  0.38599600  0.39497163  0.39635685  1  1.695768  0  0.276539  0.703964  0  4.175309  0
C  C21  1  0.38770144  0.42415560  0.57744207  1  1.656644  0  0.278099  0.720252  0  4.157647  0
C  C22  1  0.88909263  0.60530318  0.60624745  1  1.705708  0  0.278515  0.704813  0  4.174733  0
C  C23  1  0.88668176  0.57779772  0.42501439  1  1.668896  0  0.27658  0.723963  0  4.152202  0
C  C24  1  0.07025169  0.76488464  0.22326130  1  -0.027064  0  -0.079283  -0.1084  0  3.970398  0
C  C25  1  0.89401842  0.80165274  0.21202849  1  0.144192  0  -0.00716  0.026075  0  4.121043  0
C  C26  1  0.71447223  0.79116691  0.24440599  1  0.507599  0  0.090964  0.111594  0  4.020249  0
C  C27  1  0.71438088  0.74243321  0.28534477  1  0.58139  0  0.087152  0.110921  0  4.017654  0
C  C28  1  0.89200696  0.70620721  0.29591340  1  0.075675  0  -0.001973  0.03964  0  4.122827  0
C  C29  1  0.07007032  0.71793276  0.26422936  1  -0.011639  0  -0.081888  -0.11835  0  3.971378  0
C  C30  1  0.89891727  0.84487131  0.16607941  1  -0.491269  0  -0.015402  -0.003167  0  4.106704  0
C  C31  1  0.88911947  0.66035622  0.33970727  1  -0.517955  0  -0.014231  0.002032  0  4.093194  0
C  C32  1  0.88706891  0.62198428  0.37846482  1  0.260563  0  -0.036439  -0.200853  0  3.936843  0
C  C33  1  0.90651740  0.88080342  0.12533738  1  0.190184  0  -0.035769  -0.203705  0  3.942166  0
C  C34  1  0.89675797  0.83324621  0.83320338  1  0.194569  0  -0.003096  -0.147422  0  3.844037  0
C  C35  1  0.89427408  0.77969447  0.78048216  1  -0.287975  0  -0.003611  0.035699  0  4.23252  0
C  C36  1  0.89213277  0.72062671  0.72223489  1  -0.316953  0  -0.006108  0.030279  0  4.232844  0
C  C37  1  0.89087545  0.66708918  0.66948686  1  0.213622  0  0.000533  -0.141492  0  3.841296  0
C  C38  1  0.38676728  0.33327096  0.33304618  1  0.270656  0  -0.00106  -0.14124  0  3.840655  0
C  C39  1  0.39175410  0.27992976  0.28020849  1  -0.362258  0  -0.005869  0.030225  0  4.233365  0
C  C40  1  0.39727810  0.22101970  0.22190725  1  -0.332448  0  -0.005682  0.033071  0  4.234679  0
C  C41  1  0.40283880  0.16755660  0.16917200  1  0.226613  0  -0.002729  -0.146737  0  3.845109  0
C  C42  1  0.57543060  0.22717085  0.77106538  1  0.016577  0  -0.073357  -0.112596  0  3.944749  0
C  C43  1  0.39523444  0.20445243  0.79438071  1  0.101693  0  0.0087  0.133828  0  4.097189  0
C  C44  1  0.21232654  0.22792789  0.77303099  1  -0.016338  0  -0.07312  -0.113237  0  3.947395  0
C  C45  1  0.20979241  0.27264631  0.72981947  1  -0.015613  0  -0.072545  -0.112245  0  3.946684  0
C  C46  1  0.39003629  0.29528367  0.70648434  1  0.124356  0  0.008387  0.134294  0  4.098931  0
C  C47  1  0.57289277  0.27184876  0.72786405  1  -0.056054  0  -0.072644  -0.111894  0  3.943255  0
C  C48  1  0.39818286  0.15931207  0.83892903  1  -0.440898  0  -0.020119  -0.03372  0  4.080295  0
C  C49  1  0.38820818  0.34064067  0.66214286  1  -0.467133  0  -0.020379  -0.035159  0  4.089058  0
C  C50  1  0.38827665  0.37942420  0.62373325  1  0.188898  0  -0.0332  -0.185851  0  3.949455  0
C  C51  1  0.40094590  0.12097127  0.87771818  1  0.176749  0  -0.033989  -0.186515  0  3.943314  0
C  C52  1  0.40204837  0.07717332  0.92480705  1  1.67406  0  0.277121  0.720678  0  4.153551  0
C  C53  1  0.40420183  0.10564036  0.10604334  1  1.692357  0  0.277711  0.704932  0  4.175067  0
C  C54  1  0.90537219  0.92392747  0.07789545  1  1.657597  0  0.274918  0.717747  0  4.166905  0
C  C55  1  0.89982372  0.89502981  0.89640083  1  1.697551  0  0.278676  0.708594  0  4.170272  0
C  C56  1  0.52271236  0.90291335  0.24651927  1  0.355913  0  -0.133236  -0.172271  0  3.883051  0
C  C57  1  0.48920837  0.78243523  0.37734520  1  0.366488  0  -0.132484  -0.166752  0  3.909666  0
O  O58  1  0.55731725  0.44098525  0.55840284  1  -1.23607  0  -0.22703  -0.582184  0  2.283028  0
O  O59  1  0.21578293  0.41783116  0.42136715  1  -1.233625  0  -0.224622  -0.576807  0  2.279759  0
O  O60  1  0.05702113  0.55966152  0.44321738  1  -1.237699  0  -0.230122  -0.592906  0  2.285377  0
O  O61  1  0.21736680  0.44181294  0.55913649  1  -1.237096  0  -0.226942  -0.58255  0  2.284925  0
O  O62  1  0.05848172  0.58203876  0.58086703  1  -1.231051  0  -0.22235  -0.571164  0  2.284072  0
O  O63  1  0.55676207  0.41922424  0.42104781  1  -1.225085  0  -0.225706  -0.57806  0  2.284888  0
O  O64  1  0.38721688  0.54560734  0.50721843  1  -1.421519  0  -0.445305  -0.996419  0  2.189181  0
O  O65  1  0.71797576  0.58133718  0.58184635  1  -1.23108  0  -0.222853  -0.571129  0  2.283825  0
O  O66  1  0.71679579  0.56170997  0.44473107  1  -1.228822  0  -0.229976  -0.590356  0  2.275754  0
O  O67  1  0.88664225  0.45586523  0.49417329  1  -1.417522  0  -0.446444  -0.999527  0  2.200738  0
O  O68  1  0.23392166  0.08149709  0.08087860  1  -1.224582  0  -0.22427  -0.574185  0  2.285485  0
O  O69  1  0.57239221  0.06042503  0.94395553  1  -1.227737  0  -0.228991  -0.586586  0  2.278997  0
O  O70  1  0.73067545  0.91853691  0.92203890  1  -1.233571  0  -0.225405  -0.578823  0  2.28364  0
O  O71  1  0.57450936  0.08217024  0.08157082  1  -1.233861  0  -0.224741  -0.575371  0  2.282347  0
O  O72  1  0.73430863  0.94174121  0.05998104  1  -1.233326  0  -0.22988  -0.587178  0  2.277887  0
O  O73  1  0.23202988  0.06021444  0.94359785  1  -1.235089  0  -0.228909  -0.587215  0  2.281402  0
O  O74  1  0.40295662  0.95570245  0.99442862  1  -1.420171  0  -0.445396  -1.000304  0  2.198052  0
O  O75  1  0.07448948  0.93995089  0.05775691  1  -1.231307  0  -0.229977  -0.587942  0  2.285579  0
O  O76  1  0.07130181  0.91902034  0.92056922  1  -1.231566  0  -0.224695  -0.577716  0  2.281033  0
O  O77  1  0.90325676  0.04526013  0.00793315  1  -1.432734  0  -0.445257  -0.998932  0  2.196285  0
O  O78  1  0.53505755  0.82177756  0.23554532  1  -1.099183  0  -0.189131  -0.161033  0  2.603871  0
O  O79  1  0.54008012  0.72740546  0.31325543  1  -1.07299  0  -0.199588  -0.176014  0  2.579856  0
