# generated using pymatgen
data_SrH7C7NO6
_symmetry_space_group_name_H-M   'P 1'
_cell_length_a   7.77135070
_cell_length_b   8.07467215
_cell_length_c   8.07733711
_cell_angle_alpha   88.24232036
_cell_angle_beta   71.45194932
_cell_angle_gamma   71.94871740
_symmetry_Int_Tables_number   1
_chemical_formula_structural   SrH7C7NO6
_chemical_formula_sum   'Sr2 H14 C14 N2 O12'
_cell_volume   455.58399528
_cell_formula_units_Z   2
loop_
 _symmetry_equiv_pos_site_id
 _symmetry_equiv_pos_as_xyz
  1  'x, y, z'
loop_
 _atom_site_type_symbol
 _atom_site_label
 _atom_site_symmetry_multiplicity
 _atom_site_fract_x
 _atom_site_fract_y
 _atom_site_fract_z
 _atom_site_occupancy
 _atom_site_hle17_bader_spin_density
 _atom_site_hle17_ddec_charge
 _atom_site_hle17_ddec_spin_density
 _atom_site_hle17_ddec_sum_bond_order
 _atom_site_hle17_magmom
 _atom_site_hse06_10hf_bader_spin_density
 _atom_site_hse06_10hf_ddec_charge
 _atom_site_hse06_10hf_ddec_spin_density
 _atom_site_hse06_10hf_ddec_sum_bond_order
 _atom_site_hse06_10hf_magmom
 _atom_site_hse06_bader_spin_density
 _atom_site_hse06_ddec_charge
 _atom_site_hse06_ddec_spin_density
 _atom_site_hse06_ddec_sum_bond_order
 _atom_site_hse06_magmom
 _atom_site_pbe_bader_spin_density
 _atom_site_pbe_cm5_charge
 _atom_site_pbe_ddec_charge
 _atom_site_pbe_ddec_spin_density
 _atom_site_pbe_ddec_sum_bond_order
 _atom_site_pbe_magmom
Sr  Sr0  1  0.69303295  0.64891902  0.37221363  1  0  1.611436  0  1.092034  0  0  1.457913  0  1.469664  0  0  1.496018  0  1.424892  0  0  0.944551  1.430093  0  1.501035  0
Sr  Sr1  1  0.30696609  0.35108179  0.62778592  1  0  1.611444  0  1.092008  0  0  1.457902  0  1.469681  0  0  1.495999  0  1.424926  0  0  0.944541  1.430086  0  1.501051  0
H  H2  1  0.65276890  0.28892693  0.83657074  1  0  0.104041  0  0.95654  0  0  0.111945  0  1.024703  0  0  0.116168  0  1.020147  0  0  0.121098  0.108771  0  1.028125  0
H  H3  1  0.34723196  0.71107257  0.16342952  1  0  0.104056  0  0.956485  0  0  0.111972  0  1.024632  0  0  0.116194  0  1.020077  0  0  0.121117  0.108797  0  1.028055  0
H  H4  1  0.78754785  0.73384008  0.88345538  1  0  0.093136  0  0.951702  0  0  0.097529  0  1.023044  0  0  0.101717  0  1.018121  0  0  0.124602  0.094387  0  1.026712  0
H  H5  1  0.21244984  0.26616074  0.11654459  1  0  0.093096  0  0.95166  0  0  0.097488  0  1.02302  0  0  0.101677  0  1.018097  0  0  0.12458  0.094346  0  1.02669  0
H  H6  1  0.70009518  0.05696638  0.31361523  1  0  0.084372  0  0.980803  0  0  0.086195  0  1.055758  0  0  0.091339  0  1.049927  0  0  0.12467  0.082429  0  1.059949  0
H  H7  1  0.29990704  0.94303312  0.68638461  1  0  0.084359  0  0.980849  0  0  0.086206  0  1.055776  0  0  0.091323  0  1.049975  0  0  0.124663  0.082435  0  1.05998  0
H  H8  1  0.13632737  0.56165757  0.11887832  1  0  0.432067  0  0.872766  0  0  0.399678  0  0.938777  0  0  0.41097  0  0.922337  0  0  0.292038  0.391702  0  0.950357  0
H  H9  1  0.86367395  0.43834062  0.88112308  1  0  0.432121  0  0.872703  0  0  0.399743  0  0.938691  0  0  0.411034  0  0.922251  0  0  0.29206  0.391766  0  0.950271  0
H  H10  1  0.99031192  0.28083833  0.43286578  1  0  0.423836  0  0.879419  0  0  0.393618  0  0.941934  0  0  0.403717  0  0.927344  0  0  0.302982  0.386488  0  0.952219  0
H  H11  1  0.00968352  0.71916511  0.56713482  1  0  0.423926  0  0.879328  0  0  0.393711  0  0.941833  0  0  0.403809  0  0.927243  0  0  0.303019  0.386581  0  0.952118  0
H  H12  1  0.77980036  0.26544554  0.51493525  1  0  0.423035  0  0.878674  0  0  0.391826  0  0.94305  0  0  0.401563  0  0.928932  0  0  0.304492  0.384957  0  0.953001  0
H  H13  1  0.22019553  0.73455659  0.48506648  1  0  0.423066  0  0.878634  0  0  0.391864  0  0.943001  0  0  0.401602  0  0.928881  0  0  0.30451  0.384996  0  0.952952  0
H  H14  1  0.11576933  0.58573827  0.32214780  1  0  0.413975  0  0.891504  0  0  0.38574  0  0.951863  0  0  0.396382  0  0.93616  0  0  0.29551  0.378194  0  0.962982  0
H  H15  1  0.88423017  0.41426124  0.67785288  1  0  0.413968  0  0.891515  0  0  0.385733  0  0.951873  0  0  0.396375  0  0.93617  0  0  0.29551  0.378187  0  0.962992  0
C  C16  1  0.71285473  0.98715953  0.65590851  1  0  0.690662  0  3.894482  0  0  0.634297  0  4.19345  0  0  0.668946  0  4.184978  0  0  0.232099  0.61084  0  4.19854  0
C  C17  1  0.28714794  0.01283474  0.34409257  1  0  0.690619  0  3.894422  0  0  0.634279  0  4.193344  0  0  0.668927  0  4.18487  0  0  0.232092  0.61082  0  4.198437  0
C  C18  1  0.72378073  0.00867713  0.83617728  1  0  -0.141373  0  3.752103  0  0  -0.113987  0  3.992685  0  0  -0.127756  0  4.016856  0  0  -0.016214  -0.105398  0  3.97663  0
C  C19  1  0.27622013  0.99132237  0.16382298  1  0  -0.14139  0  3.752133  0  0  -0.11401  0  3.992706  0  0  -0.127779  0  4.016875  0  0  -0.016226  -0.105419  0  3.976651  0
C  C20  1  0.68462390  0.17548138  0.91109545  1  0  -0.012598  0  3.68263  0  0  -0.055232  0  3.932642  0  0  -0.047691  0  3.947713  0  0  -0.048872  -0.059688  0  3.922522  0
C  C21  1  0.31537695  0.82451813  0.08890357  1  0  -0.012598  0  3.682548  0  0  -0.055241  0  3.932575  0  0  -0.047689  0  3.947653  0  0  -0.048882  -0.059699  0  3.922458  0
C  C22  1  0.67801479  0.19476256  0.08394862  1  0  -0.105411  0  3.733573  0  0  -0.076622  0  3.969061  0  0  -0.088866  0  3.99107  0  0  -0.004413  -0.069168  0  3.954619  0
C  C23  1  0.32198426  0.80523826  0.91605217  1  0  -0.105396  0  3.733525  0  0  -0.07662  0  3.969043  0  0  -0.088885  0  3.991076  0  0  -0.004423  -0.069165  0  3.9546  0
C  C24  1  0.75708274  0.86582244  0.93807147  1  0  0.139382  0  3.661781  0  0  0.099002  0  3.921748  0  0  0.108505  0  3.936605  0  0  0.064028  0.093044  0  3.911599  0
C  C25  1  0.24291857  0.13417576  0.06192869  1  0  0.139452  0  3.661697  0  0  0.099065  0  3.921664  0  0  0.108568  0  3.936521  0  0  0.064062  0.093106  0  3.911515  0
C  C26  1  0.63688411  0.36955735  0.17246182  1  0  0.671619  0  3.922638  0  0  0.618853  0  4.215256  0  0  0.653621  0  4.207039  0  0  0.218502  0.595297  0  4.220135  0
C  C27  1  0.36311311  0.63044479  0.82753579  1  0  0.671639  0  3.922531  0  0  0.61888  0  4.21514  0  0  0.653654  0  4.206927  0  0  0.218529  0.595324  0  4.220018  0
C  C28  1  0.70915729  0.04488946  0.17634610  1  0  0.118376  0  3.682185  0  0  0.079832  0  3.938849  0  0  0.088297  0  3.953489  0  0  0.061762  0.074657  0  3.928851  0
C  C29  1  0.29084538  0.95510873  0.82365364  1  0  0.118408  0  3.68219  0  0  0.079855  0  3.93884  0  0  0.088345  0  3.953497  0  0  0.061796  0.07468  0  3.92884  0
N  N30  1  0.74806497  0.88321541  0.10616636  1  0  -0.371644  0  3.138983  0  0  -0.317643  0  3.414239  0  0  -0.332734  0  3.429391  0  0  -0.34361  -0.307559  0  3.403695  0
N  N31  1  0.25193544  0.11678540  0.89383401  1  0  -0.371689  0  3.138937  0  0  -0.31769  0  3.414202  0  0  -0.332776  0  3.429339  0  0  -0.343627  -0.307605  0  3.403656  0
O  O32  1  0.53045071  0.40343089  0.33146493  1  0  -0.720424  0  1.998124  0  0  -0.657422  0  2.248906  0  0  -0.683996  0  2.238526  0  0  -0.38091  -0.63872  0  2.255518  0
O  O33  1  0.46954289  0.59656996  0.66853383  1  0  -0.720441  0  1.998063  0  0  -0.657462  0  2.248881  0  0  -0.684024  0  2.23847  0  0  -0.380935  -0.638761  0  2.255492  0
O  O34  1  0.63733977  0.12523639  0.58949658  1  0  -0.719033  0  2.030136  0  0  -0.652262  0  2.275121  0  0  -0.678193  0  2.262829  0  0  -0.357813  -0.634001  0  2.283018  0
O  O35  1  0.36266112  0.87476701  0.41050604  1  0  -0.719038  0  2.030313  0  0  -0.652268  0  2.27527  0  0  -0.678194  0  2.262972  0  0  -0.357818  -0.633999  0  2.28315  0
O  O36  1  0.71463786  0.47768795  0.08663932  1  0  -0.671242  0  1.953535  0  0  -0.604107  0  2.175295  0  0  -0.631748  0  2.165969  0  0  -0.336577  -0.584656  0  2.181078  0
O  O37  1  0.28536209  0.52231025  0.91336126  1  0  -0.671225  0  1.953493  0  0  -0.604078  0  2.175253  0  0  -0.63172  0  2.165926  0  0  -0.336586  -0.584628  0  2.181036  0
O  O38  1  0.77534187  0.83458626  0.57994273  1  0  -0.68732  0  1.979111  0  0  -0.621976  0  2.216298  0  0  -0.647641  0  2.204676  0  0  -0.343642  -0.604101  0  2.223886  0
O  O39  1  0.22465945  0.16541585  0.42005609  1  0  -0.687297  0  1.978891  0  0  -0.621959  0  2.216065  0  0  -0.647623  0  2.204443  0  0  -0.343629  -0.604083  0  2.223656  0
O  O40  1  0.85220324  0.34953110  0.48058498  1  0  -0.870993  0  1.877521  0  0  -0.806013  0  2.051692  0  0  -0.827764  0  2.022296  0  0  -0.6023  -0.790566  0  2.072159  0
O  O41  1  0.14779264  0.65047103  0.51941551  1  0  -0.871116  0  1.87741  0  0  -0.806151  0  2.051601  0  0  -0.827898  0  2.022195  0  0  -0.602345  -0.790706  0  2.07207  0
O  O42  1  0.05102142  0.56415126  0.24159856  1  0  -0.905911  0  1.814278  0  0  -0.851168  0  2.001129  0  0  -0.870863  0  1.967393  0  0  -0.651985  -0.837007  0  2.024677  0
O  O43  1  0.94897764  0.43584955  0.75840222  1  0  -0.905953  0  1.814242  0  0  -0.851215  0  2.001096  0  0  -0.870911  0  1.967359  0  0  -0.652004  -0.837055  0  2.024645  0
