# generated using pymatgen
data_ZnH6C11NO10
_symmetry_space_group_name_H-M   'P 1'
_cell_length_a   10.96945894
_cell_length_b   10.45078943
_cell_length_c   11.78962822
_cell_angle_alpha   98.24896142
_cell_angle_beta   91.41095665
_cell_angle_gamma   84.37195003
_symmetry_Int_Tables_number   1
_chemical_formula_structural   ZnH6C11NO10
_chemical_formula_sum   'Zn2 H12 C22 N2 O20'
_cell_volume   1331.04974523
_cell_formula_units_Z   2
loop_
 _symmetry_equiv_pos_site_id
 _symmetry_equiv_pos_as_xyz
  1  'x, y, z'
loop_
 _atom_site_type_symbol
 _atom_site_label
 _atom_site_symmetry_multiplicity
 _atom_site_fract_x
 _atom_site_fract_y
 _atom_site_fract_z
 _atom_site_occupancy
 _atom_site_pbe_bader_charge
 _atom_site_pbe_bader_spin_density
 _atom_site_pbe_cm5_charge
 _atom_site_pbe_ddec_charge
 _atom_site_pbe_ddec_spin_density
 _atom_site_pbe_ddec_sum_bond_order
 _atom_site_pbe_magmom
Zn  Zn0  1  0.48844821  0.61953965  0.50610242  1  1.324574  0  0.697895  0.891752  0  2.371074  0
Zn  Zn1  1  0.51271560  0.35224186  0.46329022  1  1.321195  0  0.704085  0.885976  0  2.427844  0
H  H2  1  0.10065750  0.68123688  0.42692152  1  0.095207  0  0.120716  0.12342  0  0.947293  0
H  H3  1  0.05261979  0.22758614  0.54154130  1  0.608047  0  0.310414  0.367005  0  0.932481  0
H  H4  1  0.83968627  0.38897758  0.29127000  1  0.624345  0  0.308322  0.354452  0  0.945447  0
H  H5  1  0.81058892  0.27578602  0.47967400  1  0.615824  0  0.306251  0.366128  0  0.947406  0
H  H6  1  0.06776994  0.65858658  0.60868972  1  0.076921  0  0.118453  0.112324  0  0.951859  0
H  H7  1  0.90939809  0.69661325  0.48671879  1  0.097371  0  0.117331  0.111915  0  0.961085  0
H  H8  1  0.87859983  0.61931631  0.64553029  1  0.110532  0  0.121276  0.122821  0  0.946056  0
H  H9  1  0.07205756  0.53658879  0.12230094  1  0.627928  0  0.356402  0.395244  0  0.830172  0
H  H10  1  0.27404584  0.45792426  0.78649258  1  0.613121  0  0.336607  0.369322  0  0.873209  0
H  H11  1  0.72306863  0.60393495  0.21213579  1  0.618903  0  0.347672  0.393858  0  0.839657  0
H  H12  1  0.93265442  0.31098429  0.78440787  1  0.628967  0  0.354699  0.387386  0  0.835953  0
H  H13  1  0.22732911  0.30243786  0.35682815  1  0.629152  0  0.305718  0.356046  0  0.941367  0
C  C14  1  0.51325247  0.46015025  0.69777727  1  1.675145  0  0.227571  0.672373  0  4.236911  0
C  C15  1  0.49974293  0.47664757  0.26504027  1  1.71482  0  0.226082  0.671507  0  4.230102  0
C  C16  1  0.51256447  0.46049249  0.82006057  1  0.056672  0  -0.006154  -0.131875  0  3.863392  0
C  C17  1  0.06323394  0.58721450  0.40083307  1  -0.015892  0  -0.068811  -0.153649  0  3.756233  0
C  C18  1  0.06768763  0.55259433  0.60486855  1  -0.018214  0  -0.070477  -0.137448  0  3.745142  0
C  C19  1  0.92214401  0.60888219  0.42300777  1  -0.011725  0  -0.074409  -0.148526  0  3.759911  0
C  C20  1  0.92994307  0.52737885  0.60965448  1  -0.014534  0  -0.068936  -0.151069  0  3.761058  0
C  C21  1  0.50864950  0.46854971  0.92443849  1  -0.11946  0  -0.012601  0.019463  0  4.233994  0
C  C22  1  0.08532549  0.35458992  0.44661785  1  1.051765  0  0.144238  0.38229  0  3.847673  0
C  C23  1  0.94080138  0.36190858  0.42664326  1  1.019045  0  0.144146  0.37163  0  3.850388  0
C  C24  1  0.11323617  0.55008222  0.27937731  1  1.546795  0  0.235794  0.603951  0  4.073771  0
C  C25  1  0.12258614  0.49526646  0.48520122  1  0.056126  0  -0.007137  -0.095948  0  3.678817  0
C  C26  1  0.13409086  0.53372128  0.71745223  1  1.564104  0  0.230439  0.612665  0  4.07039  0
C  C27  1  0.84273453  0.65363384  0.32527100  1  1.542748  0  0.230263  0.613564  0  4.068169  0
C  C28  1  0.88788789  0.43431696  0.68670015  1  1.538839  0  0.232508  0.59501  0  4.071625  0
C  C29  1  0.88099055  0.49711344  0.48358632  1  0.019229  0  -0.013535  -0.117763  0  3.7244  0
C  C30  1  0.50101973  0.48226213  0.14365023  1  -0.07575  0  -0.009235  -0.135639  0  3.861547  0
C  C31  1  0.50513403  0.47620653  0.03945542  1  -0.072326  0  -0.011371  0.025441  0  4.237199  0
C  C32  1  0.26253974  0.50221746  0.48680419  1  1.580479  0  0.227988  0.621441  0  4.092346  0
C  C33  1  0.73954048  0.50407541  0.48644131  1  1.579988  0  0.220239  0.59666  0  4.119827  0
C  C34  1  0.50867286  0.04478668  0.46422030  1  1.129233  0  0.309076  0.312395  0  3.888007  0
C  C35  1  0.49395453  0.92402925  0.49045803  1  0.990005  0  0.307696  0.307514  0  3.890307  0
N  N36  1  0.52172100  0.14756332  0.44248494  1  -0.991757  0  -0.178563  -0.153021  0  2.923452  0
N  N37  1  0.48138014  0.82186179  0.51384613  1  -1.020114  0  -0.178455  -0.150436  0  2.940688  0
O  O38  1  0.50407682  0.57177370  0.66565203  1  -1.127757  0  -0.301903  -0.527469  0  2.291747  0
O  O39  1  0.02793088  0.55239117  0.19509706  1  -1.130711  0  -0.318963  -0.462107  0  2.287438  0
O  O40  1  0.09463617  0.59214842  0.80851430  1  -1.152427  0  -0.318113  -0.514962  0  2.041853  0
O  O41  1  0.23935444  0.45564225  0.70868662  1  -1.11248  0  -0.317389  -0.444814  0  2.32375  0
O  O42  1  0.83535008  0.76478817  0.30420585  1  -1.138826  0  -0.304291  -0.489739  0  2.039273  0
O  O43  1  0.77494642  0.56208058  0.26785764  1  -1.118082  0  -0.323891  -0.491373  0  2.330591  0
O  O44  1  0.77932476  0.43427326  0.70768472  1  -1.14199  0  -0.289345  -0.487333  0  2.154715  0
O  O45  1  0.97566403  0.35825147  0.73409165  1  -1.121576  0  -0.319527  -0.458095  0  2.301835  0
O  O46  1  0.13918762  0.29901178  0.34190410  1  -1.122687  0  -0.402269  -0.518256  0  2.236815  0
O  O47  1  0.12023154  0.28095827  0.53498574  1  -1.11103  0  -0.409494  -0.540318  0  2.250479  0
O  O48  1  0.91754846  0.34169616  0.30879367  1  -1.1277  0  -0.39362  -0.496483  0  2.260176  0
O  O49  1  0.51981425  0.34990739  0.63492961  1  -1.121977  0  -0.309305  -0.535224  0  2.257796  0
O  O50  1  0.90087034  0.26089768  0.48172374  1  -1.12943  0  -0.40397  -0.558364  0  2.252304  0
O  O51  1  0.30143841  0.61332091  0.51314515  1  -1.154424  0  -0.315276  -0.545994  0  2.284554  0
O  O52  1  0.32945956  0.39566700  0.46287950  1  -1.167157  0  -0.303251  -0.549614  0  2.432529  0
O  O53  1  0.68160489  0.61516185  0.50832394  1  -1.163899  0  -0.305695  -0.529983  0  2.295837  0
O  O54  1  0.69081479  0.39676624  0.46433598  1  -1.178849  0  -0.305075  -0.56034  0  2.423864  0
O  O55  1  0.49407003  0.58452566  0.33177475  1  -1.151692  0  -0.309631  -0.555836  0  2.297738  0
O  O56  1  0.50794124  0.36304432  0.29299556  1  -1.118674  0  -0.30429  -0.516747  0  2.24157  0
O  O57  1  0.22294980  0.53246143  0.26055825  1  -1.125937  0  -0.286897  -0.48513  0  2.155869  0
