# generated using pymatgen
data_CuH15C11N5O
_symmetry_space_group_name_H-M   'P 1'
_cell_length_a   6.77000575
_cell_length_b   10.28656164
_cell_length_c   10.61651109
_cell_angle_alpha   118.59864331
_cell_angle_beta   108.04266153
_cell_angle_gamma   91.08585300
_symmetry_Int_Tables_number   1
_chemical_formula_structural   CuH15C11N5O
_chemical_formula_sum   'Cu2 H30 C22 N10 O2'
_cell_volume   604.70446044
_cell_formula_units_Z   2
loop_
 _symmetry_equiv_pos_site_id
 _symmetry_equiv_pos_as_xyz
  1  'x, y, z'
loop_
 _atom_site_type_symbol
 _atom_site_label
 _atom_site_symmetry_multiplicity
 _atom_site_fract_x
 _atom_site_fract_y
 _atom_site_fract_z
 _atom_site_occupancy
 _atom_site_hle17_ddec_charge
 _atom_site_hle17_ddec_spin_density
 _atom_site_hle17_ddec_sum_bond_order
 _atom_site_hle17_magmom
 _atom_site_hse06_10hf_ddec_charge
 _atom_site_hse06_10hf_ddec_spin_density
 _atom_site_hse06_10hf_ddec_sum_bond_order
 _atom_site_hse06_10hf_magmom
 _atom_site_hse06_ddec_charge
 _atom_site_hse06_ddec_spin_density
 _atom_site_hse06_ddec_sum_bond_order
 _atom_site_hse06_magmom
 _atom_site_pbe_cm5_charge
 _atom_site_pbe_ddec_charge
 _atom_site_pbe_ddec_spin_density
 _atom_site_pbe_ddec_sum_bond_order
 _atom_site_pbe_magmom
Cu  Cu0  1  0.43317093  0.78035710  0.06322563  1  0.762172  0.659183  1.86821  0.43  0.752587  0.762651  2.259227  0.559  0.838158  0.856385  2.198149  0.652  0.736455  0.704848  0.69904  2.300539  0.502
Cu  Cu1  1  0.86980719  0.71724488  0.93695152  1  0.76125  -0.65863  1.869336  -0.429  0.752227  -0.763074  2.26014  -0.559  0.837962  -0.857024  2.19909  -0.652  0.735583  0.704368  -0.699294  2.300897  -0.502
H  H2  1  0.27454889  0.34411958  0.61375968  1  0.101092  -0.000567  0.962069  -0.001  0.110095  -5.7e-05  1.029059  0.0  0.113654  -6.3e-05  1.027022  0.0  0.096711  0.107266  -4.3e-05  1.031053  0.0
H  H3  1  0.16094151  0.73024227  0.38637122  1  0.102423  0.000674  0.962411  0.001  0.111171  4.9e-05  1.029316  0.0  0.11483  5.5e-05  1.027149  0.0  0.097055  0.108435  4.3e-05  1.031258  0.0
H  H4  1  0.21188614  0.08939671  0.57421519  1  0.084204  0.000729  0.961515  0.001  0.09279  0.000255  1.026409  0.0  0.095451  0.000156  1.023982  0.0  0.093817  0.090439  0.000403  1.029132  0.0
H  H5  1  0.13860049  0.51473744  0.42549624  1  0.083506  -0.000763  0.961655  -0.001  0.091326  -0.000291  1.027975  0.0  0.093972  -0.000181  1.025584  0.0  0.093711  0.089877  -0.000403  1.028506  0.0
H  H6  1  0.30025933  0.04968130  0.79914043  1  0.087179  -0.000519  0.991235  -0.001  0.092271  -5.1e-05  1.061415  0.0  0.094694  -4.4e-05  1.061894  0.0  0.088799  0.090603  1.9e-05  1.061036  0.0
H  H7  1  0.00179366  0.25017007  0.20034661  1  0.087815  0.000513  0.990997  0.001  0.092957  4.9e-05  1.061061  0.0  0.095363  4.3e-05  1.061546  0.0  0.088995  0.091169  -1.8e-05  1.060803  0.0
H  H8  1  0.45841552  0.27465594  0.06534674  1  0.080939  0.000503  0.964618  0.001  0.0938  0.000241  1.026294  0.0  0.095655  0.00016  1.025459  0.0  0.096843  0.09237  0.000373  1.02703  0.0
H  H9  1  0.89284429  0.20923167  0.93426751  1  0.081826  -0.000499  0.965321  -0.001  0.094653  -0.000248  1.026918  0.0  0.096524  -0.000164  1.026103  0.0  0.096916  0.093054  -0.000374  1.027783  0.0
H  H10  1  0.62254353  0.52282397  0.23186690  1  0.058176  0.008102  0.93163  0.009  0.073841  0.00589  0.993339  0.006  0.074564  0.004437  0.990498  0.005  0.113255  0.073208  0.006747  0.995037  0.006
H  H11  1  0.89038627  0.29103884  0.76811640  1  0.057696  -0.007889  0.930974  -0.008  0.073286  -0.005721  0.992818  -0.006  0.074062  -0.004318  0.989874  -0.005  0.112874  0.072395  -0.006739  0.995102  -0.006
H  H12  1  0.76383499  0.74092660  0.41450772  1  0.049478  0.004211  0.959951  0.004  0.066822  0.003477  1.027199  0.003  0.066305  0.002592  1.027863  0.003  0.100319  0.067162  0.004049  1.026572  0.004
H  H13  1  0.84968084  0.32648670  0.58565172  1  0.050214  -0.004466  0.959493  -0.004  0.066992  -0.003817  1.026859  -0.003  0.066531  -0.002858  1.0275  -0.002  0.100433  0.067079  -0.004053  1.026814  -0.004
H  H14  1  0.85400831  0.85800895  0.35653073  1  0.071819  0.001412  0.926811  0.002  0.089745  0.000698  0.98798  0.001  0.088996  0.00059  0.989182  0.001  0.108739  0.090736  0.000775  0.98682  0.001
H  H15  1  0.99777847  0.50162468  0.64370312  1  0.073026  -0.001392  0.926565  -0.002  0.090608  -0.000715  0.987949  -0.001  0.089865  -0.000601  0.989202  -0.001  0.108836  0.091027  -0.000774  0.986369  -0.001
H  H16  1  0.70469963  0.98669084  0.56663661  1  0.075535  -0.000248  0.935638  0.0  0.100878  -0.000272  0.988694  0.0  0.100959  -0.000219  0.989762  0.0  0.098484  0.100409  -0.000358  0.989146  0.0
H  H17  1  0.63846608  0.42003124  0.43342182  1  0.075037  0.000245  0.936257  0.0  0.100237  0.000265  0.990513  0.0  0.100401  0.000215  0.991469  0.0  0.098236  0.100724  0.000357  0.988545  0.0
H  H18  1  0.45055540  0.87707324  0.43388108  1  0.078632  -0.000189  0.936882  0.0  0.099426  -0.000206  0.995812  0.0  0.100425  -0.000149  0.995929  0.0  0.096029  0.098547  -0.000236  0.996347  0.0
H  H19  1  0.51691740  0.44300625  0.56598457  1  0.079725  0.000239  0.935649  0.0  0.100491  0.000256  0.994789  0.0  0.101553  0.000187  0.994815  0.0  0.09646  0.099703  0.000235  0.995061  0.0
H  H20  1  0.52014142  0.14047022  0.47737373  1  0.055772  0.004083  0.928801  0.004  0.075863  0.003505  0.990697  0.004  0.074757  0.002647  0.992271  0.003  0.10023  0.076669  0.003865  0.989631  0.004
H  H21  1  0.54274412  0.66299272  0.52269230  1  0.055981  -0.003769  0.929513  -0.004  0.076314  -0.003251  0.990989  -0.004  0.075211  -0.002456  0.992547  -0.003  0.10029  0.076847  -0.003862  0.990031  -0.004
H  H22  1  0.72700300  0.09211501  0.40316774  1  0.057111  -0.000709  0.962523  0.0  0.074594  -0.0008  1.026995  0.0  0.074166  -0.000615  1.027785  0.0  0.102555  0.07457  -0.000546  1.026752  0.0
H  H23  1  0.82383881  0.68905405  0.59695751  1  0.057283  0.0005  0.962113  0.0  0.074286  0.000506  1.027197  0.0  0.073874  0.00041  1.028003  0.0  0.102564  0.074521  0.000551  1.026315  0.0
H  H24  1  0.38242302  0.20927463  0.28690738  1  0.07706  0.003299  0.968857  0.004  0.097446  0.002798  1.038282  0.003  0.097532  0.002124  1.038898  0.003  0.093722  0.097219  0.003289  1.038433  0.004
H  H25  1  0.59536772  0.92228857  0.71307476  1  0.078328  -0.003333  0.966883  -0.004  0.09838  -0.002832  1.036788  -0.003  0.098469  -0.002143  1.037364  -0.003  0.093882  0.09809  -0.003291  1.037159  -0.004
H  H26  1  0.29237083  0.06776777  0.08760502  1  0.100298  -0.000129  0.965077  0.0  0.122993  -6e-05  1.023133  0.0  0.123397  -6.6e-05  1.024416  0.0  0.101463  0.122972  -2.1e-05  1.021755  0.0
H  H27  1  0.70457541  0.98023434  0.91240043  1  0.10026  0.00013  0.966214  0.0  0.123252  6.4e-05  1.023868  0.0  0.123601  7e-05  1.02518  0.0  0.101427  0.123102  2.1e-05  1.022588  0.0
H  H28  1  0.57006389  0.13548225  0.19567026  1  0.087409  0.000125  0.949252  0.0  0.108713  0.000184  1.013651  0.0  0.108876  0.000122  1.014409  0.0  0.098721  0.108816  0.000256  1.012646  0.001
H  H29  1  0.87426035  0.93986831  0.80439992  1  0.087563  -0.000145  0.949225  0.0  0.109  -0.000207  1.013521  0.0  0.109132  -0.000139  1.014322  0.0  0.098619  0.109055  -0.000257  1.012571  -0.001
H  H30  1  0.27461199  0.96025314  0.23853309  1  0.252078  -0.001893  0.916296  -0.002  0.245839  -0.00093  0.973006  -0.001  0.250957  -0.000972  0.971371  -0.001  0.297254  0.242344  -0.00086  0.974405  -0.001
H  H31  1  0.53600498  0.72166891  0.76146906  1  0.25076  0.001891  0.918537  0.002  0.24508  0.00093  0.974531  0.001  0.250213  0.000974  0.972968  0.001  0.296438  0.241381  0.000864  0.976184  0.001
C  C32  1  0.39830093  0.45987241  0.86279622  1  0.346265  -0.011235  3.833118  -0.015  0.337118  -0.000551  4.098642  -0.004  0.359025  -0.001643  4.114686  -0.004  0.089457  0.323418  0.000562  4.086672  -0.003
C  C33  1  0.03536734  0.59711628  0.13731211  1  0.345943  0.010935  3.83611  0.015  0.337836  0.00058  4.099921  0.004  0.359675  0.001633  4.116075  0.004  0.089348  0.3233  -0.000584  4.089626  0.003
C  C34  1  0.31569286  0.32909685  0.71305769  1  -0.21285  0.024181  3.732598  0.022  -0.237102  0.007756  3.996108  0.008  -0.247581  0.005892  4.016741  0.007  -0.116878  -0.229604  0.010041  3.981331  0.011
C  C35  1  0.10279725  0.61594900  0.28696728  1  -0.21465  -0.026623  3.735253  -0.024  -0.239284  -0.008494  3.998207  -0.009  -0.249926  -0.006303  4.018878  -0.007  -0.11771  -0.232241  -0.010019  3.984533  -0.011
C  C36  1  0.28035646  0.18548867  0.69176636  1  -0.036937  -0.013771  3.797512  -0.012  -0.050583  -0.002189  4.052469  -0.002  -0.046374  -0.00243  4.072925  -0.002  -0.094854  -0.053774  -0.001606  4.040144  -0.001
C  C37  1  0.08915881  0.49344807  0.30800903  1  -0.035347  0.014209  3.798904  0.012  -0.048663  0.002112  4.05456  0.002  -0.044446  0.00232  4.07508  0.002  -0.094209  -0.051434  0.001599  4.039988  0.001
C  C38  1  0.32877936  0.16329092  0.81805125  1  -0.132184  0.017731  3.818345  0.015  -0.151464  0.002048  4.081176  0.002  -0.160665  0.001645  4.106656  0.002  -0.124115  -0.145469  0.002123  4.064664  0.002
C  C39  1  0.01115959  0.34497682  0.18159070  1  -0.133799  -0.017415  3.82076  -0.015  -0.153217  -0.001751  4.084072  -0.002  -0.16241  -0.001367  4.10956  -0.002  -0.124876  -0.147616  -0.002075  4.066711  -0.002
C  C40  1  0.41551772  0.28832054  0.96508160  1  -0.064687  -0.014019  3.78365  -0.013  -0.083592  -0.00213  4.032785  -0.002  -0.079173  -0.002396  4.055451  -0.003  -0.087329  -0.086492  -0.001793  4.017415  -0.002
C  C41  1  0.95032143  0.32312875  0.03464136  1  -0.065875  0.013543  3.786571  0.013  -0.085308  0.001927  4.035708  0.002  -0.080994  0.002231  4.058479  0.002  -0.087253  -0.08701  0.001783  4.020061  0.002
C  C42  1  0.45059484  0.43624657  0.99108892  1  -0.118794  0.020635  3.814791  0.021  -0.106087  0.00614  4.056654  0.008  -0.123341  0.004386  4.085924  0.006  -0.03972  -0.094719  0.006512  4.03699  0.008
C  C43  1  0.95925863  0.44520457  0.00888313  1  -0.116261  -0.019568  3.815559  -0.02  -0.10286  -0.00554  4.056149  -0.007  -0.119992  -0.00394  4.085483  -0.005  -0.039164  -0.093151  -0.006473  4.03772  -0.008
C  C44  1  0.55269358  0.55756693  0.14702322  1  0.168617  -0.021274  3.705424  -0.021  0.130021  -0.00493  3.962345  -0.006  0.151391  -0.006374  3.973741  -0.007  0.077501  0.11581  -0.003615  3.955515  -0.004
C  C45  1  0.90540779  0.41063481  0.85298828  1  0.168086  0.020752  3.706147  0.02  0.129395  0.004885  3.963359  0.006  0.15053  0.00624  3.974899  0.007  0.077292  0.116124  0.003614  3.956051  0.004
C  C46  1  0.71059836  0.80509967  0.35625080  1  0.026429  0.000174  3.686929  -0.001  -0.027837  0.00153  3.951169  0.0  -0.022401  0.000639  3.966292  0.0  -0.068202  -0.03076  0.002218  3.940378  0.001
C  C47  1  0.85462224  0.44894346  0.64391073  1  0.024587  -1.1e-05  3.685804  0.002  -0.027772  -0.001361  3.948811  0.0  -0.022441  -0.000531  3.964078  0.001  -0.068043  -0.03031  -0.002228  3.937612  -0.001
C  C48  1  0.60313040  0.92802299  0.44401484  1  -0.145271  0.000739  3.688696  0.001  -0.190812  0.000318  3.94805  0.001  -0.193154  0.000303  3.961352  0.001  -0.16225  -0.189536  0.000194  3.93977  0.001
C  C49  1  0.65940379  0.48396532  0.55600706  1  -0.146278  -0.000735  3.687166  -0.001  -0.192903  -0.000338  3.947824  -0.001  -0.195354  -0.000316  3.961255  -0.001  -0.16297  -0.191304  -0.000195  3.937486  -0.001
C  C50  1  0.57406520  0.04611363  0.39672441  1  0.026862  -0.00154  3.646783  -0.003  -0.028297  0.000111  3.907423  -0.002  -0.022637  -0.000353  3.921235  -0.002  -0.076243  -0.031892  0.000924  3.897986  -0.001
C  C51  1  0.67737893  0.64936043  0.60333098  1  0.02536  0.000955  3.646888  0.003  -0.029423  -0.000584  3.908181  0.001  -0.02382  1.9e-05  3.922317  0.002  -0.076581  -0.032573  -0.000927  3.898435  0.001
C  C52  1  0.41600794  0.10778883  0.20016940  1  -0.156073  -0.00095  3.683204  -0.002  -0.255809  0.001057  3.941558  -0.001  -0.25209  0.000448  3.953754  -0.001  -0.158948  -0.258107  0.00161  3.933671  0.0
C  C53  1  0.71571115  0.90762489  0.79986447  1  -0.157281  0.000978  3.684851  0.003  -0.257027  -0.001052  3.943375  0.001  -0.253215  -0.000433  3.955642  0.001  -0.159106  -0.259246  -0.001608  3.935352  0.0
N  N54  1  0.19238965  0.81555593  0.92022834  1  -0.520786  0.042874  2.774297  0.049  -0.550021  0.024497  3.125963  0.029  -0.585005  0.015366  3.132058  0.02  -0.318062  -0.530001  0.030126  3.123676  0.034
N  N55  1  0.77217378  0.89557047  0.07990338  1  -0.521962  -0.041956  2.775641  -0.048  -0.550429  -0.023723  3.126657  -0.028  -0.585086  -0.014601  3.132444  -0.019  -0.31733  -0.529498  -0.030141  3.123491  -0.034
N  N56  1  0.20240063  0.79030510  0.79986113  1  0.383028  -0.016506  4.19926  -0.024  0.429856  -4.9e-05  4.496791  -0.004  0.449721  -0.003025  4.5246  -0.007  0.072315  0.417351  0.002918  4.477959  -0.001
N  N57  1  0.90264732  0.99069749  0.20027860  1  0.382184  0.016204  4.199794  0.024  0.428617  -0.000255  4.497716  0.003  0.448519  0.002792  4.525358  0.007  0.071225  0.41615  -0.002915  4.478063  0.001
N  N58  1  0.20819177  0.76633775  0.68123465  1  -0.406375  0.100454  2.38885  0.104  -0.40599  0.05249  2.620033  0.057  -0.411777  0.046356  2.626139  0.053  -0.202819  -0.401937  0.05713  2.615618  0.06
N  N59  1  0.02715221  0.08537363  0.31888325  1  -0.405822  -0.100938  2.387794  -0.104  -0.404987  -0.052891  2.618719  -0.057  -0.410785  -0.046695  2.624924  -0.053  -0.202096  -0.400574  -0.057038  2.614465  -0.06
N  N60  1  0.57646170  0.70121498  0.19629814  1  -0.319738  0.09532  3.260965  0.108  -0.26744  0.063866  3.569159  0.08  -0.299929  0.055738  3.586647  0.073  -0.376843  -0.249263  0.06638  3.560151  0.08
N  N61  1  0.88018234  0.50505746  0.80380503  1  -0.319572  -0.09283  3.263039  -0.105  -0.267362  -0.062305  3.570646  -0.078  -0.299629  -0.054532  3.587974  -0.072  -0.376694  -0.249546  -0.066427  3.561333  -0.08
N  N62  1  0.42153287  0.98744597  0.23863321  1  -0.347766  0.073189  3.266406  0.084  -0.285967  0.059346  3.53608  0.075  -0.315021  0.05051  3.553069  0.067  -0.497747  -0.268274  0.063585  3.526071  0.077
N  N63  1  0.68284471  0.74880531  0.76141392  1  -0.345407  -0.073722  3.268287  -0.085  -0.284303  -0.059862  3.537926  -0.075  -0.313803  -0.05081  3.555324  -0.068  -0.496191  -0.266952  -0.063573  3.5281  -0.077
O  O64  1  0.42691235  0.59379926  0.87801386  1  -0.568272  0.118817  2.096484  0.143  -0.553921  0.076501  2.403088  0.103  -0.599605  0.059755  2.4016  0.085  -0.338581  -0.52532  0.085915  2.404969  0.111
O  O65  1  0.04854813  0.71591524  0.12224387  1  -0.567022  -0.119297  2.095953  -0.144  -0.552348  -0.076448  2.401154  -0.103  -0.598317  -0.059679  2.400149  -0.085  -0.338033  -0.524554  -0.085777  2.403357  -0.111
