# generated using pymatgen
data_CuH4(C2O3)2
_symmetry_space_group_name_H-M   'P 1'
_cell_length_a   4.96184207
_cell_length_b   9.00209814
_cell_length_c   11.93446080
_cell_angle_alpha   90.00142906
_cell_angle_beta   90.00029489
_cell_angle_gamma   89.99927896
_symmetry_Int_Tables_number   1
_chemical_formula_structural   CuH4(C2O3)2
_chemical_formula_sum   'Cu4 H16 C16 O24'
_cell_volume   533.07643221
_cell_formula_units_Z   4
loop_
 _symmetry_equiv_pos_site_id
 _symmetry_equiv_pos_as_xyz
  1  'x, y, z'
loop_
 _atom_site_type_symbol
 _atom_site_label
 _atom_site_symmetry_multiplicity
 _atom_site_fract_x
 _atom_site_fract_y
 _atom_site_fract_z
 _atom_site_occupancy
 _atom_site_hle17_ddec_charge
 _atom_site_hle17_ddec_spin_density
 _atom_site_hle17_ddec_sum_bond_order
 _atom_site_hle17_magmom
 _atom_site_hse06_10hf_ddec_charge
 _atom_site_hse06_10hf_ddec_spin_density
 _atom_site_hse06_10hf_ddec_sum_bond_order
 _atom_site_hse06_10hf_magmom
 _atom_site_hse06_ddec_charge
 _atom_site_hse06_ddec_spin_density
 _atom_site_hse06_ddec_sum_bond_order
 _atom_site_hse06_magmom
 _atom_site_pbe_cm5_charge
 _atom_site_pbe_ddec_charge
 _atom_site_pbe_ddec_spin_density
 _atom_site_pbe_ddec_sum_bond_order
 _atom_site_pbe_magmom
Cu  Cu0  1  0.58555385  0.25693726  0.28948903  1  0.983856  0.708021  1.694821  0.543  0.985321  0.81019  2.07331  0.678  1.070324  0.870871  2.019937  0.767  0.718601  0.919994  0.760512  2.122479  0.613
Cu  Cu1  1  0.41443078  0.25694263  0.71050830  1  0.983805  0.708014  1.694952  0.543  0.985314  0.810173  2.07342  0.678  1.070269  0.870863  2.020025  0.766  0.718587  0.919977  0.760509  2.122547  0.613
Cu  Cu2  1  0.91443579  0.74306216  0.78948884  1  0.983794  0.708087  1.695131  0.543  0.98523  0.810202  2.073559  0.678  1.070186  0.870869  2.020162  0.767  0.718567  0.919911  0.760563  2.122697  0.613
Cu  Cu3  1  0.08555214  0.74305663  0.21050923  1  0.983867  0.70811  1.695008  0.543  0.985304  0.81021  2.07351  0.678  1.070276  0.870869  2.020116  0.767  0.718587  0.919998  0.760587  2.122662  0.613
H  H4  1  0.73520052  0.33427342  0.50714363  1  0.380029  5.1e-05  0.868229  0.0  0.35498  5.4e-05  0.944829  0.0  0.363677  -3e-05  0.934461  0.0  0.311321  0.348855  0.000139  0.951699  0.0
H  H5  1  0.26491540  0.33423042  0.49285934  1  0.380103  5.2e-05  0.868248  0.0  0.355097  5.3e-05  0.944743  0.0  0.363796  -2.9e-05  0.934373  0.0  0.311301  0.34897  0.000138  0.951613  0.0
H  H6  1  0.76498677  0.66579107  0.00713507  1  0.379984  4.8e-05  0.868406  0.0  0.355012  5.3e-05  0.944792  0.0  0.363703  -3e-05  0.934449  0.0  0.311243  0.348887  0.000138  0.951661  0.0
H  H7  1  0.23528906  0.66568710  0.99285484  1  0.380079  5.2e-05  0.868112  0.0  0.355026  5.4e-05  0.94474  0.0  0.363719  -3e-05  0.93438  0.0  0.311409  0.348899  0.000139  0.951613  0.0
H  H8  1  0.16304753  0.11348009  0.36295101  1  0.39846  -0.000337  0.868268  -0.001  0.374286  0.0002  0.938906  0.0  0.386623  1.5e-05  0.925538  0.0  0.307951  0.365324  0.000408  0.948447  0.0
H  H9  1  0.83694834  0.11348002  0.63705620  1  0.398372  -0.000336  0.868435  -0.001  0.374195  0.000201  0.939065  0.0  0.386531  1.5e-05  0.925699  0.0  0.307916  0.365237  0.000409  0.948602  0.0
H  H10  1  0.33693546  0.88653310  0.86294079  1  0.39842  -0.000336  0.868463  -0.001  0.374206  0.000202  0.939129  0.0  0.386538  1.6e-05  0.925773  0.0  0.307908  0.365242  0.00041  0.94868  0.0
H  H11  1  0.66304928  0.88651879  0.13704907  1  0.398439  -0.000336  0.868367  -0.001  0.374237  0.000201  0.939032  0.0  0.386572  1.5e-05  0.925668  0.0  0.307916  0.365275  0.000409  0.948573  0.0
H  H12  1  0.71917059  0.62478922  0.44871555  1  0.114568  -0.000281  0.905502  -0.001  0.121152  -1.1e-05  0.962143  0.0  0.124737  -8.7e-05  0.959961  0.0  0.126186  0.118761  0.000105  0.963803  0.0
H  H13  1  0.28079780  0.62478471  0.55128281  1  0.114571  -0.000278  0.905542  -0.001  0.121166  -1.1e-05  0.96216  0.0  0.124751  -8.7e-05  0.959978  0.0  0.126175  0.118774  0.000104  0.963819  0.0
H  H14  1  0.78079101  0.37522103  0.94871239  1  0.114559  -0.00028  0.905483  -0.001  0.121134  -1.1e-05  0.962153  0.0  0.124716  -8.8e-05  0.959974  0.0  0.126165  0.11874  0.000103  0.963809  0.0
H  H15  1  0.21915874  0.37519260  0.05128212  1  0.114639  -0.00028  0.905401  -0.001  0.121096  -1.1e-05  0.962111  0.0  0.124676  -8.7e-05  0.95994  0.0  0.126169  0.118705  0.000104  0.963765  0.0
H  H16  1  0.34349025  0.90543129  0.41788694  1  0.111796  0.000775  0.934316  0.001  0.115871  0.000859  1.000823  0.001  0.119678  0.000603  0.998335  0.001  0.128118  0.113339  0.000881  1.002634  0.001
H  H17  1  0.65652230  0.90543179  0.58210915  1  0.111771  0.000774  0.934316  0.001  0.115852  0.000859  1.000842  0.001  0.11966  0.000603  0.998355  0.001  0.128128  0.113324  0.000881  1.002654  0.001
H  H18  1  0.15649955  0.09457928  0.91789253  1  0.111763  0.000772  0.934333  0.001  0.115818  0.000859  1.000934  0.001  0.119624  0.000603  0.998447  0.001  0.128107  0.113293  0.000881  1.002743  0.001
H  H19  1  0.84348263  0.09456964  0.08211768  1  0.111741  0.000774  0.934289  0.001  0.115811  0.000859  1.000792  0.001  0.119619  0.000603  0.998305  0.001  0.128077  0.113281  0.00088  1.002597  0.001
C  C20  1  0.40407210  0.54097150  0.34512704  1  0.656328  -0.013876  3.794886  -0.014  0.614793  -0.000751  4.102453  -0.003  0.656003  -0.001615  4.094565  -0.003  0.220874  0.585973  -6.5e-05  4.107916  -0.003
C  C21  1  0.59590823  0.54097484  0.65486472  1  0.656379  -0.013853  3.794792  -0.014  0.614801  -0.000751  4.102391  -0.003  0.656009  -0.001616  4.094502  -0.003  0.220747  0.585965  -6.4e-05  4.107876  -0.003
C  C22  1  0.09590461  0.45902666  0.84513265  1  0.656377  -0.013856  3.794905  -0.014  0.614832  -0.000748  4.102471  -0.003  0.656037  -0.001615  4.094584  -0.003  0.220779  0.586  -6e-05  4.107943  -0.003
C  C23  1  0.90407150  0.45900901  0.15486763  1  0.656483  -0.013856  3.794632  -0.014  0.614802  -0.000748  4.102273  -0.003  0.656016  -0.001612  4.094371  -0.003  0.220785  0.58597  -6.1e-05  4.107748  -0.003
C  C24  1  0.58881283  0.52600825  0.44740736  1  0.052199  0.012449  3.629076  0.014  0.026764  0.006768  3.876821  0.008  0.026067  0.003928  3.882224  0.005  -0.005324  0.026393  0.008854  3.873788  0.01
C  C25  1  0.41116582  0.52600618  0.55258831  1  0.052079  0.012421  3.6293  0.014  0.026638  0.006765  3.877107  0.008  0.02594  0.003928  3.882508  0.005  -0.005275  0.026272  0.008851  3.874076  0.01
C  C26  1  0.91116487  0.47399641  0.94741301  1  0.052129  0.012439  3.628983  0.014  0.026576  0.006768  3.876804  0.008  0.025879  0.003931  3.882195  0.005  -0.005296  0.026206  0.008853  3.873764  0.01
C  C27  1  0.08881090  0.47398228  0.05259593  1  0.051925  0.012432  3.629271  0.014  0.026811  0.006767  3.87669  0.008  0.026114  0.003928  3.882081  0.005  -0.005271  0.026441  0.008852  3.873653  0.01
C  C28  1  0.73903577  0.97913086  0.37354666  1  0.631019  -0.005854  3.843207  -0.005  0.580482  -0.000271  4.161383  0.0  0.615691  -0.000338  4.152775  0.0  0.204035  0.555648  -0.00066  4.165732  -0.001
C  C29  1  0.26096506  0.97912564  0.62644997  1  0.63121  -0.005841  3.842986  -0.005  0.580569  -0.000271  4.161336  0.0  0.615776  -0.000336  4.152728  0.0  0.204099  0.555735  -0.000659  4.165688  -0.001
C  C30  1  0.76094897  0.02089690  0.87355358  1  0.631216  -0.005839  3.843013  -0.005  0.58061  -0.000269  4.161337  0.0  0.615814  -0.000336  4.15272  0.0  0.204046  0.555765  -0.000657  4.165697  -0.001
C  C31  1  0.23903082  0.02088860  0.12645021  1  0.631254  -0.005838  3.84291  -0.005  0.580527  -0.000269  4.161301  0.0  0.615728  -0.000336  4.152689  0.0  0.204141  0.555686  -0.000657  4.165661  -0.001
C  C32  1  0.47308333  0.00139856  0.43633019  1  0.055504  -0.000163  3.547992  -0.001  0.031514  0.000903  3.789949  0.0  0.033083  0.000306  3.796231  0.0  -0.005116  0.029731  0.001791  3.786724  0.001
C  C33  1  0.52691502  0.00139937  0.56367156  1  0.055537  -0.000157  3.547929  -0.001  0.031484  0.000903  3.79  0.0  0.03305  0.000305  3.796285  0.0  -0.005094  0.029702  0.001791  3.78677  0.001
C  C34  1  0.02690672  0.99860930  0.93632903  1  0.055703  -0.000146  3.547655  -0.001  0.031465  0.000902  3.790013  0.0  0.033035  0.000301  3.796293  0.0  -0.005061  0.029694  0.00179  3.786752  0.001
C  C35  1  0.97308158  0.99860257  0.06367048  1  0.055537  -0.000162  3.54769  -0.001  0.031675  0.000901  3.789618  0.0  0.033246  0.000302  3.795899  0.0  -0.005053  0.029886  0.00179  3.786404  0.001
O  O36  1  0.34474417  0.42855026  0.28527404  1  -0.566602  0.072585  2.103132  0.102  -0.541621  0.044583  2.384058  0.068  -0.583087  0.031576  2.375859  0.053  -0.307887  -0.512474  0.054029  2.38936  0.078
O  O37  1  0.65522858  0.42855628  0.71472566  1  -0.566607  0.072562  2.103087  0.102  -0.541598  0.044573  2.384002  0.068  -0.583048  0.03157  2.375783  0.053  -0.30786  -0.512448  0.054017  2.389306  0.078
O  O38  1  0.15523978  0.57144925  0.78528020  1  -0.566665  0.072547  2.103102  0.102  -0.541624  0.04456  2.383944  0.068  -0.583069  0.03156  2.375724  0.053  -0.307891  -0.512475  0.054009  2.389251  0.078
O  O39  1  0.84474995  0.57145177  0.21472889  1  -0.566713  0.072615  2.102597  0.102  -0.541726  0.04459  2.383581  0.068  -0.583189  0.031579  2.37537  0.053  -0.307964  -0.512572  0.054045  2.388885  0.078
O  O40  1  0.31034329  0.67045143  0.33207353  1  -0.530877  0.103637  2.102348  0.144  -0.515982  0.061626  2.393942  0.094  -0.562611  0.042382  2.388078  0.071  -0.29663  -0.484901  0.07501  2.399134  0.108
O  O41  1  0.68964223  0.67045787  0.66792149  1  -0.530945  0.103628  2.102189  0.144  -0.516005  0.061624  2.393813  0.094  -0.562629  0.042382  2.387946  0.071  -0.296602  -0.484917  0.075006  2.399009  0.108
O  O42  1  0.18961712  0.32954741  0.83207438  1  -0.530962  0.103607  2.102449  0.144  -0.516018  0.061621  2.394021  0.094  -0.562636  0.042379  2.388154  0.071  -0.296624  -0.484932  0.075  2.399206  0.108
O  O43  1  0.81034372  0.32954863  0.16792264  1  -0.531024  0.103556  2.102639  0.144  -0.515952  0.061599  2.39412  0.094  -0.562576  0.042368  2.388256  0.071  -0.296597  -0.484876  0.074972  2.399315  0.108
O  O44  1  0.83727690  0.09258294  0.31850453  1  -0.633593  0.058438  2.095172  0.084  -0.594784  0.037769  2.377993  0.058  -0.632312  0.02819  2.365329  0.047  -0.333314  -0.56697  0.044695  2.385194  0.065
O  O45  1  0.16271943  0.09258358  0.68149809  1  -0.633729  0.058447  2.095052  0.084  -0.594837  0.037775  2.377875  0.058  -0.632351  0.028194  2.365192  0.047  -0.333338  -0.567026  0.044702  2.385088  0.065
O  O46  1  0.66271313  0.90741745  0.81849690  1  -0.634076  0.058487  2.094694  0.084  -0.595006  0.037789  2.37731  0.058  -0.632544  0.028203  2.364663  0.047  -0.333423  -0.567196  0.044722  2.384555  0.065
O  O47  1  0.33727317  0.90741027  0.18149839  1  -0.634045  0.058466  2.094704  0.084  -0.594972  0.037775  2.377364  0.058  -0.632507  0.028193  2.364716  0.047  -0.333401  -0.567168  0.044709  2.384611  0.065
O  O48  1  0.85632828  0.85814654  0.38077764  1  -0.547301  0.023045  1.976728  0.032  -0.522937  0.007094  2.233108  0.012  -0.547171  0.002087  2.22142  0.005  -0.286161  -0.501939  0.015535  2.238948  0.023
O  O49  1  0.14369136  0.85814748  0.61922091  1  -0.547255  0.023022  1.976804  0.032  -0.522879  0.007091  2.233267  0.012  -0.547106  0.002085  2.221581  0.005  -0.286159  -0.501887  0.015526  2.239112  0.023
O  O50  1  0.64366664  0.14184369  0.88078241  1  -0.547134  0.022984  1.977423  0.032  -0.522741  0.007085  2.23384  0.012  -0.546972  0.002085  2.222176  0.005  -0.286034  -0.501753  0.015511  2.239689  0.023
O  O51  1  0.35631449  0.14183764  0.11922365  1  -0.54718  0.02297  1.977106  0.032  -0.522779  0.00708  2.233592  0.012  -0.547012  0.002084  2.221936  0.005  -0.28617  -0.501791  0.015504  2.23944  0.023
O  O52  1  0.74673744  0.39382058  0.43851521  1  -0.547003  0.004092  2.16646  0.007  -0.516745  0.001283  2.416648  0.003  -0.532165  -0.000157  2.402862  0.001  -0.398978  -0.50323  0.004172  2.425029  0.007
O  O53  1  0.25324213  0.39381882  0.56147128  1  -0.547034  0.004101  2.166403  0.007  -0.516826  0.001284  2.416627  0.003  -0.532249  -0.000158  2.402842  0.001  -0.398941  -0.503304  0.004174  2.425004  0.007
O  O54  1  0.75324416  0.60618712  0.93853561  1  -0.546889  0.00411  2.166303  0.007  -0.516638  0.001286  2.416533  0.003  -0.532052  -0.000157  2.402733  0.001  -0.398869  -0.503118  0.004179  2.424916  0.007
O  O55  1  0.24674681  0.60616438  0.06149341  1  -0.546883  0.004101  2.166332  0.007  -0.516739  0.001283  2.41649  0.003  -0.532163  -0.000157  2.402716  0.001  -0.399028  -0.503226  0.004174  2.424872  0.007
O  O56  1  0.33999391  0.13724344  0.40050818  1  -0.558251  0.03741  2.175816  0.052  -0.513044  0.029712  2.426333  0.045  -0.53847  0.022279  2.411652  0.037  -0.383629  -0.49445  0.03458  2.436315  0.049
O  O57  1  0.66000546  0.13724337  0.59949695  1  -0.558218  0.037408  2.175938  0.052  -0.512973  0.029713  2.426473  0.045  -0.53839  0.022279  2.411785  0.037  -0.383661  -0.494378  0.034579  2.436443  0.049
O  O58  1  0.16000573  0.86276656  0.90049887  1  -0.558261  0.037414  2.175871  0.052  -0.512962  0.029714  2.426488  0.045  -0.538377  0.022279  2.411799  0.037  -0.383657  -0.494361  0.034584  2.436458  0.049
O  O59  1  0.83998358  0.86275641  0.09949223  1  -0.558244  0.0374  2.175729  0.052  -0.51306  0.029706  2.426237  0.045  -0.538475  0.022275  2.411545  0.037  -0.383629  -0.494461  0.034575  2.436223  0.049
