# generated using pymatgen
data_GdH9(C2O3)3
_symmetry_space_group_name_H-M   'P 1'
_cell_length_a   6.04733055
_cell_length_b   9.52553392
_cell_length_c   16.77342732
_cell_angle_alpha   89.99984512
_cell_angle_beta   94.05861335
_cell_angle_gamma   90.00019959
_symmetry_Int_Tables_number   1
_chemical_formula_structural   GdH9(C2O3)3
_chemical_formula_sum   'Gd4 H36 C24 O36'
_cell_volume   963.79427327
_cell_formula_units_Z   4
loop_
 _symmetry_equiv_pos_site_id
 _symmetry_equiv_pos_as_xyz
  1  'x, y, z'
loop_
 _atom_site_type_symbol
 _atom_site_label
 _atom_site_symmetry_multiplicity
 _atom_site_fract_x
 _atom_site_fract_y
 _atom_site_fract_z
 _atom_site_occupancy
 _atom_site_hle17_bader_spin_density
 _atom_site_hle17_ddec_charge
 _atom_site_hle17_ddec_spin_density
 _atom_site_hle17_ddec_sum_bond_order
 _atom_site_hle17_magmom
 _atom_site_hse06_10hf_bader_charge
 _atom_site_hse06_10hf_bader_spin_density
 _atom_site_hse06_10hf_ddec_charge
 _atom_site_hse06_10hf_ddec_spin_density
 _atom_site_hse06_10hf_ddec_sum_bond_order
 _atom_site_hse06_10hf_magmom
 _atom_site_hse06_bader_spin_density
 _atom_site_hse06_ddec_charge
 _atom_site_hse06_ddec_spin_density
 _atom_site_hse06_ddec_sum_bond_order
 _atom_site_hse06_magmom
 _atom_site_pbe_bader_spin_density
 _atom_site_pbe_cm5_charge
 _atom_site_pbe_ddec_charge
 _atom_site_pbe_ddec_spin_density
 _atom_site_pbe_ddec_sum_bond_order
 _atom_site_pbe_magmom
Gd  Gd0  1  0.13189298  0.81133825  0.06251969  1  0  2.198466  0  1.705222  0  2.231777  0  2.11  0  2.04587  0  0  2.161072  0  1.995343  0  0  1.46057  2.069745  0  2.087686  0
Gd  Gd1  1  0.36810581  0.31133941  0.43748102  1  0  2.198466  0  1.705219  0  2.23179  0  2.110052  0  2.045803  0  0  2.161124  0  1.995274  0  0  1.460551  2.069789  0  2.087628  0
Gd  Gd2  1  0.86810791  0.18866219  0.93748154  1  0  2.198533  0  1.70513  0  2.23181  0  2.110047  0  2.045789  0  0  2.161124  0  1.995251  0  0  1.460551  2.069763  0  2.087642  0
Gd  Gd3  1  0.63188837  0.68865998  0.56251829  1  0  2.198481  0  1.705265  0  2.231804  0  2.110017  0  2.045925  0  0  2.161079  0  1.995414  0  0  1.46056  2.069744  0  2.087757  0
H  H4  1  0.71297776  0.90923707  0.84612769  1  0  0.40777  0  0.895018  0  0.671007  0  0.377069  0  0.97046  0  0  0.389164  0  0.953322  0  0  0.304242  0.368563  0  0.979788  0
H  H5  1  0.78702146  0.40923833  0.65387484  1  0  0.407722  0  0.895069  0  0.67099  0  0.377057  0  0.970467  0  0  0.389151  0  0.953331  0  0  0.304247  0.368554  0  0.979769  0
H  H6  1  0.28702478  0.09076442  0.15387357  1  0  0.407723  0  0.895123  0  0.67098  0  0.377043  0  0.970507  0  0  0.389135  0  0.953375  0  0  0.304243  0.368537  0  0.97986  0
H  H7  1  0.21297611  0.59076316  0.34612632  1  0  0.407728  0  0.895097  0  0.670983  0  0.37705  0  0.97049  0  0  0.389144  0  0.953355  0  0  0.304251  0.368547  0  0.979826  0
H  H8  1  0.31069073  0.54791162  0.11468197  1  0  0.442674  0  0.810629  0  0.630031  0  0.423441  0  0.866919  0  0  0.432065  0  0.856902  0  0  0.329842  0.417226  0  0.874175  0
H  H9  1  0.18932162  0.04791263  0.38531999  1  0  0.442695  0  0.810629  0  0.63051  0  0.42346  0  0.866927  0  0  0.432084  0  0.856909  0  0  0.329815  0.41724  0  0.874192  0
H  H10  1  0.68931345  0.45208672  0.88531872  1  0  0.442717  0  0.810613  0  0.630057  0  0.423482  0  0.866903  0  0  0.432106  0  0.856886  0  0  0.32985  0.417263  0  0.87417  0
H  H11  1  0.81067921  0.95208781  0.61468004  1  0  0.442666  0  0.810663  0  0.630505  0  0.423433  0  0.866959  0  0  0.432057  0  0.856941  0  0  0.32981  0.417213  0  0.874227  0
H  H12  1  0.18754831  0.47634612  0.03851847  1  0  0.460443  0  0.824673  0  0.6551  0  0.436615  0  0.872751  0  0  0.447414  0  0.857174  0  0  0.313022  0.428901  0  0.883897  0
H  H13  1  0.31245640  0.97634348  0.46148389  1  0  0.460558  0  0.824548  0  0.655087  0  0.436746  0  0.872592  0  0  0.447542  0  0.857017  0  0  0.313028  0.429035  0  0.883735  0
H  H14  1  0.81245255  0.52365432  0.96148216  1  0  0.460469  0  0.824645  0  0.655093  0  0.436643  0  0.872717  0  0  0.447442  0  0.85714  0  0  0.313016  0.428935  0  0.883859  0
H  H15  1  0.68754440  0.02365591  0.53851555  1  0  0.460548  0  0.82456  0  0.655086  0  0.436737  0  0.872603  0  0  0.447533  0  0.857029  0  0  0.313025  0.42903  0  0.883746  0
H  H16  1  0.82479872  0.72061767  0.92236986  1  0  0.442542  0  0.860871  0  0.65603  0  0.406356  0  0.932193  0  0  0.418029  0  0.915405  0  0  0.30453  0.39811  0  0.94401  0
H  H17  1  0.67520443  0.22061694  0.57763184  1  0  0.442566  0  0.860829  0  0.656003  0  0.40638  0  0.932158  0  0  0.418054  0  0.915368  0  0  0.304551  0.398136  0  0.943971  0
H  H18  1  0.17520545  0.27938382  0.07763083  1  0  0.442557  0  0.86085  0  0.65603  0  0.406367  0  0.932176  0  0  0.418041  0  0.915388  0  0  0.304547  0.398122  0  0.943992  0
H  H19  1  0.32479638  0.77938350  0.42236759  1  0  0.442562  0  0.860832  0  0.655994  0  0.406378  0  0.932157  0  0  0.418053  0  0.915365  0  0  0.304556  0.398132  0  0.943974  0
H  H20  1  0.69054066  0.72611123  0.00425284  1  0  0.446108  0  0.851332  0  0.653438  0  0.414594  0  0.914394  0  0  0.426654  0  0.896836  0  0  0.308058  0.406043  0  0.926829  0
H  H21  1  0.80946103  0.22611408  0.49574749  1  0  0.446096  0  0.851359  0  0.653435  0  0.414576  0  0.91443  0  0  0.426637  0  0.896869  0  0  0.308035  0.406022  0  0.92687  0
H  H22  1  0.30946349  0.27388711  0.99574726  1  0  0.446084  0  0.851372  0  0.653418  0  0.414567  0  0.914436  0  0  0.426628  0  0.896877  0  0  0.308039  0.406012  0  0.926878  0
H  H23  1  0.19053644  0.77388636  0.50425128  1  0  0.446073  0  0.851384  0  0.653431  0  0.414535  0  0.914492  0  0  0.426599  0  0.896927  0  0  0.308001  0.40598  0  0.926934  0
H  H24  1  0.14319137  0.95449075  0.78408995  1  0  0.133809  0  0.909693  0  0.091922  0  0.147639  0  0.964395  0  0  0.150527  0  0.962894  0  0  0.115322  0.145535  0  0.96565  0
H  H25  1  0.35680803  0.45449712  0.71591248  1  0  0.13379  0  0.909724  0  0.091923  0  0.147622  0  0.964409  0  0  0.150498  0  0.962928  0  0  0.11532  0.145517  0  0.965671  0
H  H26  1  0.85681286  0.04550549  0.21591194  1  0  0.133751  0  0.90973  0  0.091834  0  0.147574  0  0.964425  0  0  0.15046  0  0.962925  0  0  0.115299  0.145471  0  0.965682  0
H  H27  1  0.64319433  0.54550542  0.28408460  1  0  0.1338  0  0.909755  0  0.092086  0  0.147611  0  0.964447  0  0  0.150499  0  0.962948  0  0  0.115326  0.145506  0  0.965703  0
H  H28  1  0.36679424  0.83196556  0.78929294  1  0  0.141556  0  0.924975  0  0.105059  0  0.150707  0  0.987055  0  0  0.154066  0  0.985431  0  0  0.11029  0.148251  0  0.988435  0
H  H29  1  0.13320618  0.33197042  0.71070970  1  0  0.141596  0  0.924945  0  0.105082  0  0.150709  0  0.987054  0  0  0.154087  0  0.985404  0  0  0.110281  0.148239  0  0.988445  0
H  H30  1  0.63321322  0.16803383  0.21070723  1  0  0.141531  0  0.92492  0  0.105098  0  0.150668  0  0.987017  0  0  0.154028  0  0.985391  0  0  0.110276  0.148212  0  0.988394  0
H  H31  1  0.86679626  0.66803317  0.28928917  1  0  0.141581  0  0.924983  0  0.105032  0  0.150706  0  0.987072  0  0  0.154072  0  0.985432  0  0  0.110268  0.148237  0  0.988462  0
H  H32  1  0.56961076  0.00393995  0.70777786  1  0  0.140941  0  0.938769  0  0.089825  0  0.150116  0  1.004624  0  0  0.154613  0  1.000874  0  0  0.113631  0.146693  0  1.007662  0
H  H33  1  0.93039131  0.50394677  0.79222535  1  0  0.140957  0  0.938774  0  0.089884  0  0.150107  0  1.004675  0  0  0.154601  0  1.000921  0  0  0.113618  0.146688  0  1.007711  0
H  H34  1  0.43038847  0.99606049  0.29222334  1  0  0.140911  0  0.938792  0  0.08983  0  0.150072  0  1.004671  0  0  0.154568  0  1.000918  0  0  0.113613  0.146652  0  1.007706  0
H  H35  1  0.06961284  0.49605577  0.20777475  1  0  0.140913  0  0.938812  0  0.089867  0  0.150065  0  1.004694  0  0  0.15456  0  1.000942  0  0  0.113612  0.146643  0  1.007731  0
H  H36  1  0.34641703  0.12175778  0.70543543  1  0  0.144306  0  0.916438  0  0.131186  0  0.158278  0  0.972462  0  0  0.161704  0  0.970463  0  0  0.114934  0.155801  0  0.974006  0
H  H37  1  0.15357886  0.62176713  0.79456506  1  0  0.14429  0  0.91648  0  0.131422  0  0.158294  0  0.972468  0  0  0.161721  0  0.970467  0  0  0.114928  0.155818  0  0.974015  0
H  H38  1  0.65358223  0.87824161  0.29456636  1  0  0.144302  0  0.916434  0  0.131414  0  0.158282  0  0.972454  0  0  0.16171  0  0.970452  0  0  0.114917  0.155801  0  0.974002  0
H  H39  1  0.84642189  0.37823436  0.20543318  1  0  0.14428  0  0.916451  0  0.131415  0  0.15828  0  0.972448  0  0  0.161707  0  0.970445  0  0  0.114923  0.155799  0  0.973996  0
C  C40  1  0.22593400  0.87492757  0.90120622  1  0  0.732118  0  3.81507  0  1.587358  0  0.683809  0  4.12672  0  0  0.71762  0  4.117866  0  0  0.205276  0.660646  0  4.13186  0
C  C41  1  0.27406485  0.37493431  0.59879334  1  0  0.732256  0  3.815037  0  1.587392  0  0.683933  0  4.12671  0  0  0.717741  0  4.117858  0  0  0.205353  0.660769  0  4.131849  0
C  C42  1  0.77407510  0.12506867  0.09879338  1  0  0.732158  0  3.815061  0  1.58734  0  0.683825  0  4.126741  0  0  0.717634  0  4.117887  0  0  0.205312  0.660667  0  4.131881  0
C  C43  1  0.72593087  0.62506928  0.40120361  1  0  0.732145  0  3.815109  0  1.587295  0  0.683907  0  4.126636  0  0  0.717717  0  4.11778  0  0  0.205358  0.660746  0  4.131777  0
C  C44  1  0.29277580  0.92022713  0.81982241  1  0  -0.345271  0  3.595268  0  -0.069563  0  -0.384717  0  3.831016  0  0  -0.391852  0  3.837112  0  0  -0.15848  -0.379869  0  3.827139  0
C  C45  1  0.20722337  0.42023229  0.68017888  1  0  -0.345393  0  3.595291  0  -0.069662  0  -0.384694  0  3.830873  0  0  -0.391832  0  3.836968  0  0  -0.158533  -0.379833  0  3.827002  0
C  C46  1  0.70723003  0.07977016  0.18017832  1  0  -0.345218  0  3.595248  0  -0.069541  0  -0.384575  0  3.830819  0  0  -0.391698  0  3.836921  0  0  -0.158465  -0.379737  0  3.826948  0
C  C47  1  0.79277575  0.57977025  0.31981993  1  0  -0.345426  0  3.595494  0  -0.069681  0  -0.384694  0  3.831047  0  0  -0.391827  0  3.837137  0  0  -0.158531  -0.379837  0  3.827177  0
C  C48  1  0.35759335  0.16266639  0.87292996  1  0  0.653107  0  3.82824  0  1.639671  0  0.604252  0  4.126387  0  0  0.637253  0  4.118292  0  0  0.226517  0.581699  0  4.131088  0
C  C49  1  0.14240612  0.66266915  0.62707172  1  0  0.653287  0  3.827737  0  1.639642  0  0.604302  0  4.126167  0  0  0.637301  0  4.11807  0  0  0.226511  0.581743  0  4.130885  0
C  C50  1  0.64240756  0.83733195  0.12707186  1  0  0.653342  0  3.827975  0  1.640404  0  0.604395  0  4.126287  0  0  0.637403  0  4.118189  0  0  0.226587  0.581844  0  4.130992  0
C  C51  1  0.85759805  0.33733339  0.37292897  1  0  0.653317  0  3.827914  0  1.640196  0  0.604394  0  4.126299  0  0  0.637396  0  4.118198  0  0  0.226549  0.581826  0  4.131027  0
C  C52  1  0.45662368  0.04435514  0.82433560  1  0  0.274545  0  3.583477  0  0.479237  0  0.273672  0  3.825197  0  0  0.277706  0  3.836337  0  0  0.075835  0.270686  0  3.817485  0
C  C53  1  0.04336855  0.54435850  0.67566613  1  0  0.274528  0  3.583508  0  0.479462  0  0.27359  0  3.825393  0  0  0.277624  0  3.836533  0  0  0.075855  0.270598  0  3.817692  0
C  C54  1  0.54337716  0.95564320  0.17566444  1  0  0.274435  0  3.583742  0  0.479197  0  0.273613  0  3.82543  0  0  0.277619  0  3.836618  0  0  0.075821  0.270627  0  3.817723  0
C  C55  1  0.95662729  0.45564194  0.32433321  1  0  0.274651  0  3.583313  0  0.479358  0  0.273572  0  3.825366  0  0  0.277604  0  3.836507  0  0  0.075851  0.270587  0  3.81766  0
C  C56  1  0.50116120  0.09279361  0.73994446  1  0  -0.371938  0  3.625522  0  -0.077244  0  -0.415657  0  3.868578  0  0  -0.422869  0  3.873582  0  0  -0.163118  -0.410486  0  3.865092  0
C  C57  1  0.99883786  0.59279863  0.76005497  1  0  -0.372007  0  3.625742  0  -0.077547  0  -0.415759  0  3.868846  0  0  -0.422966  0  3.873843  0  0  -0.163145  -0.410593  0  3.865366  0
C  C58  1  0.49884127  0.90720578  0.26005501  1  0  -0.371926  0  3.62557  0  -0.077505  0  -0.415657  0  3.868634  0  0  -0.42286  0  3.873644  0  0  -0.163109  -0.410488  0  3.865146  0
C  C59  1  0.00116460  0.40720286  0.23994449  1  0  -0.37198  0  3.625658  0  -0.077532  0  -0.415687  0  3.868762  0  0  -0.422895  0  3.873762  0  0  -0.163134  -0.410516  0  3.865278  0
C  C60  1  0.65654076  0.21781040  0.73884888  1  0  0.755276  0  3.789933  0  1.620257  0  0.702651  0  4.098383  0  0  0.736716  0  4.089104  0  0  0.230519  0.679447  0  4.10385  0
C  C61  1  0.84345401  0.71781192  0.76115088  1  0  0.755285  0  3.790019  0  1.62034  0  0.702773  0  4.09827  0  0  0.736841  0  4.088991  0  0  0.230623  0.679577  0  4.103732  0
C  C62  1  0.34345839  0.78219004  0.26115052  1  0  0.755236  0  3.789939  0  1.620318  0  0.702622  0  4.098367  0  0  0.736689  0  4.089089  0  0  0.230533  0.679428  0  4.103823  0
C  C63  1  0.15654686  0.28218852  0.23884975  1  0  0.755249  0  3.790158  0  1.620345  0  0.702739  0  4.098397  0  0  0.736806  0  4.089118  0  0  0.230565  0.679538  0  4.103863  0
O  O64  1  0.26829242  0.75323989  0.92743046  1  0  -0.636279  0  1.911824  0  -1.192547  0  -0.594899  0  2.137613  0  0  -0.61797  0  2.128088  0  0  -0.347678  -0.578697  0  2.144125  0
O  O65  1  0.23169762  0.25324561  0.57257150  1  0  -0.6363  0  1.91175  0  -1.192441  0  -0.594935  0  2.137547  0  0  -0.618006  0  2.128024  0  0  -0.347689  -0.578726  0  2.144052  0
O  O66  1  0.73171516  0.24675425  0.07257209  1  0  -0.636271  0  1.911771  0  -1.192401  0  -0.594877  0  2.137561  0  0  -0.617948  0  2.12804  0  0  -0.347655  -0.57867  0  2.144069  0
O  O67  1  0.76829485  0.74675798  0.42742658  1  0  -0.636248  0  1.911708  0  -1.192466  0  -0.594932  0  2.137489  0  0  -0.618002  0  2.127965  0  0  -0.347694  -0.578727  0  2.143996  0
O  O68  1  0.12479947  0.96396173  0.94476018  1  0  -0.799214  0  2.048424  0  -1.243937  0  -0.758506  0  2.312341  0  0  -0.785208  0  2.302456  0  0  -0.409988  -0.738778  0  2.318401  0
O  O69  1  0.37519662  0.46396785  0.55524098  1  0  -0.799239  0  2.048461  0  -1.244055  0  -0.758553  0  2.312412  0  0  -0.785252  0  2.302525  0  0  -0.410024  -0.738832  0  2.318477  0
O  O70  1  0.87520476  0.03603451  0.05524170  1  0  -0.79924  0  2.048547  0  -1.244093  0  -0.758546  0  2.312488  0  0  -0.78525  0  2.302605  0  0  -0.410029  -0.738826  0  2.318552  0
O  O71  1  0.62479585  0.53603469  0.44475710  1  0  -0.799172  0  2.048467  0  -1.243959  0  -0.758508  0  2.312364  0  0  -0.785213  0  2.302481  0  0  -0.41  -0.738791  0  2.318431  0
O  O72  1  0.47436107  0.20743237  0.93395072  1  0  -0.691172  0  2.146344  0  -1.210123  0  -0.641046  0  2.382764  0  0  -0.667002  0  2.372619  0  0  -0.367134  -0.622574  0  2.389333  0
O  O73  1  0.02563201  0.70743831  0.56605077  1  0  -0.691224  0  2.146132  0  -1.21014  0  -0.641043  0  2.382627  0  0  -0.666999  0  2.372481  0  0  -0.36711  -0.622562  0  2.389192  0
O  O74  1  0.52563990  0.79256282  0.06605229  1  0  -0.691294  0  2.146271  0  -1.21048  0  -0.641158  0  2.382764  0  0  -0.667112  0  2.372612  0  0  -0.367209  -0.62269  0  2.389334  0
O  O75  1  0.97435540  0.29256318  0.43394542  1  0  -0.691221  0  2.146463  0  -1.210471  0  -0.641058  0  2.382942  0  0  -0.667013  0  2.372795  0  0  -0.367133  -0.622581  0  2.389514  0
O  O76  1  0.66246358  0.00486981  0.86669812  1  0  -0.692758  0  2.134333  0  -1.20464  0  -0.650824  0  2.38001  0  0  -0.668772  0  2.363903  0  0  -0.451104  -0.63757  0  2.388796  0
O  O77  1  0.83753849  0.50486982  0.63330508  1  0  -0.692699  0  2.134472  0  -1.2046  0  -0.650773  0  2.38018  0  0  -0.668718  0  2.364073  0  0  -0.451091  -0.637517  0  2.388944  0
O  O78  1  0.33754228  0.99513168  0.13330320  1  0  -0.69268  0  2.134452  0  -1.204554  0  -0.650809  0  2.380155  0  0  -0.668751  0  2.364059  0  0  -0.45109  -0.637551  0  2.388943  0
O  O79  1  0.16245902  0.49512957  0.36669488  1  0  -0.692747  0  2.13442  0  -1.204554  0  -0.650803  0  2.380188  0  0  -0.668751  0  2.364079  0  0  -0.4511  -0.637549  0  2.388971  0
O  O80  1  0.72679949  0.27642331  0.80343588  1  0  -0.710238  0  2.030961  0  -1.23337  0  -0.665069  0  2.281934  0  0  -0.690044  0  2.270915  0  0  -0.364619  -0.64713  0  2.28915  0
O  O81  1  0.77318056  0.77642288  0.69656111  1  0  -0.71022  0  2.030813  0  -1.233473  0  -0.665125  0  2.281799  0  0  -0.690102  0  2.270783  0  0  -0.3647  -0.647182  0  2.289009  0
O  O82  1  0.27319142  0.72357818  0.19656455  1  0  -0.710172  0  2.031024  0  -1.233376  0  -0.66503  0  2.282013  0  0  -0.690006  0  2.270997  0  0  -0.36464  -0.647101  0  2.289222  0
O  O83  1  0.22681193  0.22357651  0.30343757  1  0  -0.710128  0  2.030991  0  -1.233443  0  -0.665052  0  2.281973  0  0  -0.690029  0  2.270957  0  0  -0.364637  -0.647111  0  2.289184  0
O  O84  1  0.70541128  0.26230156  0.67030390  1  0  -0.640259  0  2.043382  0  -1.233106  0  -0.569326  0  2.260948  0  0  -0.596556  0  2.250295  0  0  -0.303463  -0.550429  0  2.26733  0
O  O85  1  0.79459030  0.76230790  0.82969473  1  0  -0.640249  0  2.043503  0  -1.233118  0  -0.569321  0  2.260996  0  0  -0.596549  0  2.250341  0  0  -0.303466  -0.550428  0  2.267389  0
O  O86  1  0.29459459  0.73769573  0.32969742  1  0  -0.640215  0  2.043362  0  -1.233109  0  -0.569264  0  2.260914  0  0  -0.596495  0  2.250261  0  0  -0.303427  -0.550376  0  2.267303  0
O  O87  1  0.20541382  0.23769464  0.17030477  1  0  -0.640236  0  2.04345  0  -1.233148  0  -0.569302  0  2.260921  0  0  -0.596529  0  2.250267  0  0  -0.303443  -0.550412  0  2.267316  0
O  O88  1  0.16467468  0.20598349  0.85161193  1  0  -0.68556  0  2.017556  0  -1.23135  0  -0.649364  0  2.267054  0  0  -0.674148  0  2.257293  0  0  -0.385818  -0.631676  0  2.2736  0
O  O89  1  0.33531994  0.70598867  0.64838721  1  0  -0.685641  0  2.017387  0  -1.23148  0  -0.649387  0  2.266968  0  0  -0.674164  0  2.257201  0  0  -0.385862  -0.631701  0  2.273525  0
O  O90  1  0.83532621  0.79401485  0.14838929  1  0  -0.685609  0  2.017431  0  -1.231765  0  -0.649388  0  2.266981  0  0  -0.674169  0  2.257213  0  0  -0.385841  -0.631701  0  2.273527  0
O  O91  1  0.66466918  0.29401282  0.35161021  1  0  -0.68569  0  2.017297  0  -1.231703  0  -0.649465  0  2.266852  0  0  -0.67425  0  2.257088  0  0  -0.385867  -0.631771  0  2.273406  0
O  O92  1  0.20821045  0.56649220  0.06858092  1  0  -0.888055  0  1.861082  0  -1.256244  0  -0.847808  0  2.047456  0  0  -0.865932  0  2.017822  0  0  -0.640582  -0.834528  0  2.068516  0
O  O93  1  0.29179219  0.06649217  0.43142381  1  0  -0.888187  0  1.860964  0  -1.256706  0  -0.847972  0  2.047365  0  0  -0.866094  0  2.017727  0  0  -0.64055  -0.834706  0  2.068436  0
O  O94  1  0.79178552  0.43350719  0.93142140  1  0  -0.888119  0  1.861019  0  -1.256266  0  -0.8479  0  2.04744  0  0  -0.866024  0  2.017804  0  0  -0.640575  -0.83461  0  2.068489  0
O  O95  1  0.70821194  0.93350722  0.56857569  1  0  -0.888156  0  1.860996  0  -1.2567  0  -0.847943  0  2.047412  0  0  -0.866064  0  2.017774  0  0  -0.640551  -0.83467  0  2.068466  0
O  O96  1  0.83380672  0.69811801  0.98120053  1  0  -0.912943  0  1.901507  0  -1.289763  0  -0.861983  0  2.089179  0  0  -0.884258  0  2.055148  0  0  -0.620567  -0.845595  0  2.112921  0
O  O97  1  0.66619300  0.19811964  0.51880114  1  0  -0.912977  0  1.901456  0  -1.289736  0  -0.862027  0  2.089114  0  0  -0.884301  0  2.055083  0  0  -0.62057  -0.84563  0  2.112831  0
O  O98  1  0.16619745  0.30188348  0.01880017  1  0  -0.912962  0  1.901521  0  -1.289749  0  -0.861999  0  2.089212  0  0  -0.884275  0  2.05518  0  0  -0.620579  -0.845591  0  2.11293  0
O  O99  1  0.33380615  0.80187975  0.48119826  1  0  -0.912962  0  1.901493  0  -1.289744  0  -0.86199  0  2.089152  0  0  -0.884265  0  2.055118  0  0  -0.620564  -0.845585  0  2.112863  0
