# generated using pymatgen
data_Zn2H29C52Br3(NO4)2
_symmetry_space_group_name_H-M   'P 1'
_cell_length_a   13.61485361
_cell_length_b   18.31429141
_cell_length_c   19.64669019
_cell_angle_alpha   87.40852278
_cell_angle_beta   88.01642381
_cell_angle_gamma   68.17583376
_symmetry_Int_Tables_number   1
_chemical_formula_structural   Zn2H29C52Br3(NO4)2
_chemical_formula_sum   'Zn2 H29 C52 Br3 N2 O8'
_cell_volume   4542.23954491
_cell_formula_units_Z   1
loop_
 _symmetry_equiv_pos_site_id
 _symmetry_equiv_pos_as_xyz
  1  'x, y, z'
loop_
 _atom_site_type_symbol
 _atom_site_label
 _atom_site_symmetry_multiplicity
 _atom_site_fract_x
 _atom_site_fract_y
 _atom_site_fract_z
 _atom_site_occupancy
 _atom_site_pbe_bader_charge
 _atom_site_pbe_bader_spin_density
 _atom_site_pbe_cm5_charge
 _atom_site_pbe_ddec_charge
 _atom_site_pbe_ddec_spin_density
 _atom_site_pbe_ddec_sum_bond_order
 _atom_site_pbe_magmom
Zn  Zn0  1  0.48066246  0.58192774  0.49849188  1  1.298647  0  0.669384  0.827616  0  2.417401  0
Zn  Zn1  1  0.51188855  0.41953111  0.50853059  1  1.307882  0  0.666482  0.847753  0  2.383521  0
H  H2  1  0.84655715  0.31585704  0.55912940  1  0.099348  0  0.103428  0.108901  0  0.998356  0
H  H3  1  0.54041694  0.37221174  0.16184589  1  0.065474  0  0.098081  0.096348  0  1.007715  0
H  H4  1  0.46210900  0.62288677  0.15654869  1  0.037128  0  0.098638  0.096874  0  1.008149  0
H  H5  1  0.45710933  0.62062929  0.28365342  1  0.101979  0  0.101302  0.104935  0  1.006575  0
H  H6  1  0.36878896  0.60666878  0.06385942  1  0.069744  0  0.100437  0.098673  0  1.004169  0
H  H7  1  0.37346856  0.60935618  0.93824600  1  0.051264  0  0.100492  0.098875  0  1.005551  0
H  H8  1  0.64959903  0.39517654  0.94115025  1  0.043277  0  0.100446  0.099519  0  1.004646  0
H  H9  1  0.64382828  0.39194529  0.06683311  1  0.065485  0  0.100293  0.098982  0  1.003182  0
H  H10  1  0.56509221  0.37803078  0.84736719  1  0.049068  0  0.098055  0.096258  0  1.009716  0
H  H11  1  0.56365589  0.38166780  0.72045890  1  0.075602  0  0.095974  0.099438  0  1.024813  0
H  H12  1  0.46046897  0.63316531  0.71653612  1  0.077843  0  0.102933  0.107808  0  0.999612  0
H  H13  1  0.16769106  0.34919258  0.60227188  1  0.061787  0  0.089034  0.083134  0  1.033829  0
H  H14  1  0.46398139  0.63083357  0.84345029  1  0.062481  0  0.098617  0.096715  0  1.009141  0
H  H15  1  0.63295443  0.64898115  0.54243685  1  0.149325  0  0.130674  0.110511  0  0.971021  0
H  H16  1  0.65460250  0.77925488  0.53777950  1  0.084298  0  0.110824  0.124865  0  0.988681  0
H  H17  1  0.36810049  0.87206848  0.42119337  1  0.070267  0  0.113089  0.120434  0  0.988382  0
H  H18  1  0.35574083  0.96466589  0.51959023  1  0.073506  0  0.110832  0.112778  0  0.98483  0
H  H19  1  0.34997212  0.10078358  0.52587625  1  0.064072  0  0.110408  0.114713  0  0.986442  0
H  H20  1  0.66905491  0.02557283  0.44375991  1  0.105683  0  0.108594  0.121972  0  0.995091  0
H  H21  1  0.58798465  0.16118123  0.39642728  1  0.099911  0  0.116013  0.126044  0  0.983182  0
H  H22  1  0.42994836  0.16869778  0.59221419  1  0.099858  0  0.111703  0.127858  0  1.002853  0
H  H23  1  0.80636699  0.54082308  0.46847976  1  0.124941  0  0.083743  0.093965  0  1.104707  0
H  H24  1  0.16937834  0.67055936  0.42305114  1  0.090962  0  0.106245  0.112696  0  0.9924  0
H  H25  1  0.99461614  0.69072239  0.37328033  1  0.068081  0  0.096898  0.109339  0  1.002349  0
H  H26  1  0.24489766  0.44807312  0.57242505  1  0.114226  0  0.091906  0.10326  0  1.074114  0
H  H27  1  0.35833053  0.73779634  0.43180127  1  0.134112  0  0.129778  0.103096  0  0.966357  0
H  H28  1  0.03149144  0.29759997  0.59161024  1  0.063632  0  0.096095  0.09532  0  1.003857  0
H  H29  1  0.58146860  0.29686682  0.41647270  1  0.153443  0  0.130924  0.111969  0  0.991493  0
H  H30  1  0.53547977  0.37122439  0.28883258  1  0.076629  0  0.100036  0.10054  0  1.008843  0
C  C31  1  0.50624399  0.50904719  0.63485210  1  1.536591  0  0.211627  0.59319  0  4.173741  0
C  C32  1  0.01794542  0.52952085  0.47793194  1  0.010274  0  -0.003854  -0.016168  0  3.882915  0
C  C33  1  0.12142661  0.51748485  0.50357163  1  -0.038508  0  0.003299  0.079199  0  3.922265  0
C  C34  1  0.96710919  0.47512333  0.50229767  1  0.034546  0  -0.006228  0.040728  0  3.921303  0
C  C35  1  0.02651153  0.40658622  0.54262092  1  0.017945  0  -0.008617  0.083517  0  4.013805  0
C  C36  1  0.12697347  0.39874902  0.56754809  1  -0.146999  0  -0.099951  -0.136212  0  4.052337  0
C  C37  1  0.17003026  0.45343693  0.55111180  1  0.073322  0  -0.100217  -0.130039  0  4.020531  0
C  C38  1  0.86021803  0.48665195  0.49182394  1  -0.051806  0  -0.093641  -0.147393  0  3.956255  0
C  C39  1  0.88120037  0.35938253  0.54487426  1  0.011295  0  -0.088971  -0.094012  0  4.016046  0
C  C40  1  0.17597542  0.56795733  0.48236618  1  0.035333  0  -0.012492  -0.069659  0  3.907191  0
C  C41  1  0.52014600  0.42600305  0.25926478  1  -0.019367  0  -0.086867  -0.087428  0  4.000179  0
C  C42  1  0.28953577  0.55156770  0.49939636  1  1.590586  0  0.216446  0.602819  0  4.15121  0
C  C43  1  0.52349265  0.42679815  0.18836565  1  -0.126003  0  -0.09535  -0.141599  0  3.997488  0
C  C44  1  0.50219246  0.49763014  0.15008284  1  -0.042354  0  -0.005271  0.075845  0  4.004872  0
C  C45  1  0.47721519  0.56759931  0.18539076  1  -0.069418  0  -0.095266  -0.140814  0  3.999253  0
C  C46  1  0.47468134  0.56671982  0.25619864  1  -0.003318  0  -0.086567  -0.086591  0  3.997589  0
C  C47  1  0.49611614  0.49590661  0.29396761  1  0.012713  0  -0.0213  -0.037263  0  3.970309  0
C  C48  1  0.43152530  0.56065746  0.03706509  1  -0.047787  0  -0.093822  -0.12938  0  4.004469  0
C  C49  1  0.43436775  0.56227043  0.96620754  1  -0.038435  0  -0.093106  -0.128592  0  4.002891  0
C  C50  1  0.51202532  0.50257783  0.92996924  1  -0.037219  0  -0.010267  0.063459  0  4.010303  0
C  C51  1  0.58660944  0.44108837  0.96784040  1  0.037674  0  -0.093318  -0.130219  0  4.002912  0
C  C52  1  0.58335252  0.43925116  0.03874732  1  -0.174618  0  -0.093405  -0.129018  0  4.002739  0
C  C53  1  0.49357380  0.49589284  0.37025927  1  1.555101  0  0.214283  0.59639  0  4.168461  0
C  C54  1  0.50576616  0.49901989  0.07489744  1  0.043956  0  -0.010151  0.063788  0  4.010427  0
C  C55  1  0.54339215  0.43419505  0.81898159  1  0.05892  0  -0.096237  -0.138911  0  3.997079  0
C  C56  1  0.54194740  0.43581349  0.74819524  1  -0.113109  0  -0.0902  -0.091321  0  3.999113  0
C  C57  1  0.51113650  0.50761403  0.71093328  1  0.047244  0  -0.022058  -0.034501  0  3.968387  0
C  C58  1  0.48326880  0.57767726  0.74595287  1  -0.04914  0  -0.08566  -0.087822  0  3.993242  0
C  C59  1  0.48447700  0.57597460  0.81679473  1  -0.045444  0  -0.094816  -0.139869  0  3.996268  0
C  C60  1  0.51380822  0.50426929  0.85475844  1  -0.039989  0  -0.006209  0.073422  0  4.00613  0
C  C61  1  0.57641344  0.70052206  0.51643231  1  0.468525  0  0.062255  0.113682  0  3.902144  0
C  C62  1  0.58794111  0.77287234  0.51318343  1  -0.029218  0  -0.080646  -0.177206  0  3.954906  0
C  C63  1  0.51207125  0.83703859  0.47930158  1  0.050758  0  0.010909  0.118079  0  4.003903  0
C  C64  1  0.70312694  0.44755337  0.50190904  1  1.577253  0  0.21243  0.597929  0  4.163625  0
C  C65  1  0.42817064  0.82441351  0.44902364  1  -0.040627  0  -0.082145  -0.184946  0  3.95996  0
C  C66  1  0.42233660  0.75021696  0.45428500  1  0.487001  0  0.061082  0.105881  0  3.933867  0
C  C67  1  0.42426604  0.97846964  0.50279272  1  -0.004755  0  -0.080498  -0.106901  0  3.984202  0
C  C68  1  0.42147260  0.05470757  0.50703923  1  0.005149  0  -0.08616  -0.126694  0  3.982234  0
C  C69  1  0.50970112  0.07282758  0.48604389  1  -0.036083  0  -0.002282  0.078577  0  3.994472  0
C  C70  1  0.59955213  0.01295797  0.46013300  1  -0.017401  0  -0.090853  -0.17763  0  3.960301  0
C  C71  1  0.60199173  0.93637036  0.45709421  1  -0.108803  0  -0.010342  0.075872  0  3.942287  0
C  C72  1  0.51472450  0.91711208  0.47885606  1  0.021838  0  -0.007347  0.018125  0  3.973661  0
C  C73  1  0.55336726  0.18992657  0.44357664  1  -0.041105  0  -0.081463  -0.186414  0  3.943291  0
C  C74  1  0.55036737  0.26508701  0.45414412  1  0.464318  0  0.063312  0.12726  0  3.890854  0
C  C75  1  0.98295476  0.34936380  0.56167260  1  -0.177167  0  -0.097948  -0.144826  0  4.022583  0
C  C76  1  0.46546869  0.26957496  0.55814462  1  0.491903  0  0.126168  0.254459  0  3.976617  0
C  C77  1  0.46370786  0.19466449  0.55140322  1  0.018063  0  -0.087683  -0.233773  0  3.950799  0
C  C78  1  0.50893273  0.15294762  0.49303512  1  0.008746  0  0.018325  0.135716  0  3.983879  0
C  C79  1  0.81805488  0.43044658  0.51193789  1  -0.043262  0  -0.021067  -0.024457  0  3.981648  0
C  C80  1  0.12756362  0.63185254  0.43839233  1  -0.066179  0  -0.08677  -0.079878  0  4.014631  0
C  C81  1  0.02945347  0.64345653  0.41106128  1  0.059864  0  -0.109863  -0.15545  0  4.069786  0
C  C82  1  0.97733633  0.59280392  0.42902832  1  -0.18216  0  -0.010487  0.073563  0  3.905252  0
Br  Br83  1  0.72637192  0.85900859  0.41992699  1  -0.051701  0  0.02861  -0.070904  0  1.396467  0
Br  Br84  1  0.40820632  0.32162887  0.63973703  1  0.004106  0  0.099184  -0.001762  0  1.460267  0
Br  Br85  1  0.85225211  0.61486065  0.37639878  1  -0.078899  0  0.025721  -0.072412  0  1.43835  0
N  N86  1  0.49477191  0.68959899  0.48777289  1  -1.243581  0  -0.31684  -0.194406  0  3.515049  0
N  N87  1  0.50719385  0.30508085  0.51091725  1  -1.21591  0  -0.309376  -0.24105  0  3.451773  0
O  O88  1  0.48569388  0.57499524  0.60291323  1  -1.171965  0  -0.320609  -0.54607  0  2.312348  0
O  O89  1  0.52252356  0.44350100  0.60778528  1  -1.175082  0  -0.323768  -0.568273  0  2.406376  0
O  O90  1  0.31767918  0.61031946  0.50188378  1  -1.161347  0  -0.322983  -0.548062  0  2.276378  0
O  O91  1  0.35081490  0.47959778  0.50646274  1  -1.176547  0  -0.317149  -0.560283  0  2.387684  0
O  O92  1  0.47291591  0.56208583  0.39722022  1  -1.162645  0  -0.321521  -0.554943  0  2.340263  0
O  O93  1  0.51198142  0.43027274  0.40248691  1  -1.1784  0  -0.318076  -0.558367  0  2.336087  0
O  O94  1  0.64322327  0.51981781  0.49479584  1  -1.192414  0  -0.31875  -0.563118  0  2.350525  0
O  O95  1  0.67347569  0.38918349  0.50268772  1  -1.164212  0  -0.326542  -0.548055  0  2.28316  0
