# generated using pymatgen
data_CoH16(C4N)4
_symmetry_space_group_name_H-M   'P 1'
_cell_length_a   7.43070508
_cell_length_b   18.73451763
_cell_length_c   18.73417926
_cell_angle_alpha   89.99969709
_cell_angle_beta   89.99895888
_cell_angle_gamma   90.00219205
_symmetry_Int_Tables_number   1
_chemical_formula_structural   CoH16(C4N)4
_chemical_formula_sum   'Co4 H64 C64 N16'
_cell_volume   2607.99774245
_cell_formula_units_Z   4
loop_
 _symmetry_equiv_pos_site_id
 _symmetry_equiv_pos_as_xyz
  1  'x, y, z'
loop_
 _atom_site_type_symbol
 _atom_site_label
 _atom_site_symmetry_multiplicity
 _atom_site_fract_x
 _atom_site_fract_y
 _atom_site_fract_z
 _atom_site_occupancy
 _atom_site_pbe_bader_charge
 _atom_site_pbe_bader_spin_density
 _atom_site_pbe_cm5_charge
 _atom_site_pbe_ddec_charge
 _atom_site_pbe_ddec_spin_density
 _atom_site_pbe_ddec_sum_bond_order
 _atom_site_pbe_magmom
Co  Co0  1  0.25000284  0.25000073  0.25000726  1  1.117936  2.513577  0.687652  0.608407  2.743897  2.635349  2.446
Co  Co1  1  0.74998905  0.25000184  0.24999798  1  1.118088  2.513571  0.687554  0.608323  2.743898  2.635338  2.446
Co  Co2  1  0.75000315  0.75000111  0.75000148  1  1.117933  2.513546  0.687589  0.608423  2.743871  2.635739  2.446
Co  Co3  1  0.24999811  0.75000374  0.74999528  1  1.117771  2.513488  0.687742  0.608503  2.743799  2.636047  2.446
H  H4  1  0.07176175  0.12532280  0.96794147  1  0.046898  0.000147  0.098258  0.099086  4.6e-05  1.004314  0.0
H  H5  1  0.07174747  0.37468079  0.53205889  1  0.0468  0.000148  0.098267  0.099005  4.6e-05  1.004661  0.0
H  H6  1  0.42821241  0.37467539  0.96793792  1  0.046628  0.000147  0.098258  0.099034  4.6e-05  1.004362  0.0
H  H7  1  0.92826691  0.53204588  0.37468740  1  0.046752  0.000147  0.098317  0.099166  4.6e-05  1.004683  0.0
H  H8  1  0.57174387  0.53204971  0.12531454  1  0.047087  0.000147  0.098335  0.099151  4.6e-05  1.004501  0.0
H  H9  1  0.57175388  0.96795193  0.37467686  1  0.046778  0.000148  0.098256  0.09899  4.6e-05  1.00449  0.0
H  H10  1  0.92825604  0.96794941  0.12531050  1  0.046745  0.000147  0.098256  0.099012  4.6e-05  1.004871  0.0
H  H11  1  0.42819686  0.12531490  0.53207001  1  0.047154  0.000147  0.098233  0.099031  4.6e-05  1.004187  0.0
H  H12  1  0.92829673  0.87468705  0.03204966  1  0.046875  0.000148  0.098284  0.099056  4.6e-05  1.004608  0.0
H  H13  1  0.92824911  0.62531091  0.46794771  1  0.046869  0.000147  0.098254  0.099046  4.6e-05  1.004487  0.0
H  H14  1  0.57176667  0.62531097  0.03204733  1  0.046949  0.000148  0.098222  0.099034  4.6e-05  1.004363  0.0
H  H15  1  0.07174850  0.46794262  0.62532027  1  0.046763  0.000147  0.098265  0.098998  4.6e-05  1.00462  0.0
H  H16  1  0.42820560  0.46793131  0.87467979  1  0.047122  0.000147  0.098261  0.099073  4.6e-05  1.004422  0.0
H  H17  1  0.42817137  0.03203710  0.62532013  1  0.047077  0.000148  0.098213  0.099054  4.6e-05  1.004148  0.0
H  H18  1  0.07178494  0.03205563  0.87468329  1  0.046974  0.000147  0.098311  0.099158  4.6e-05  1.004384  0.0
H  H19  1  0.57177549  0.87468693  0.46792966  1  0.046952  0.000147  0.098274  0.099029  4.6e-05  1.004566  0.0
H  H20  1  0.30196103  0.19488630  0.03960782  1  0.051105  0.002336  0.09194  0.126091  0.000884  1.003357  0.001
H  H21  1  0.30191771  0.30511007  0.46038924  1  0.050809  0.00234  0.091922  0.125939  0.000885  1.003507  0.001
H  H22  1  0.19810947  0.30511306  0.03961858  1  0.050956  0.00234  0.091948  0.126047  0.000885  1.003533  0.001
H  H23  1  0.69804731  0.46038408  0.30511238  1  0.050858  0.002336  0.091961  0.126075  0.000883  1.003467  0.001
H  H24  1  0.80198748  0.46039957  0.19489154  1  0.050868  0.002336  0.09198  0.126147  0.000883  1.003145  0.001
H  H25  1  0.80188788  0.03962624  0.30510618  1  0.050928  0.002338  0.091968  0.126076  0.000884  1.00343  0.001
H  H26  1  0.69807388  0.03960973  0.19488769  1  0.051085  0.002338  0.091946  0.126067  0.000884  1.00337  0.001
H  H27  1  0.19804336  0.19488120  0.46040805  1  0.050438  0.002333  0.091991  0.126144  0.000882  1.003263  0.001
H  H28  1  0.69807592  0.80511341  0.96039558  1  0.051006  0.00234  0.091932  0.126041  0.000885  1.003332  0.001
H  H29  1  0.69810040  0.69489070  0.53961470  1  0.050837  0.002339  0.091886  0.125953  0.000885  1.003502  0.001
H  H30  1  0.80191672  0.69489091  0.96038642  1  0.050842  0.002339  0.091925  0.125974  0.000885  1.00351  0.001
H  H31  1  0.30193446  0.53960975  0.69487714  1  0.050916  0.002336  0.091931  0.126109  0.000884  1.003415  0.001
H  H32  1  0.19804004  0.53960547  0.80510385  1  0.050511  0.002334  0.091951  0.126093  0.000883  1.003159  0.001
H  H33  1  0.19808313  0.96039428  0.69487427  1  0.050782  0.002334  0.091917  0.12613  0.000883  1.003448  0.001
H  H34  1  0.30193616  0.96039104  0.80511144  1  0.050622  0.002333  0.091932  0.126066  0.000882  1.003403  0.001
H  H35  1  0.80193572  0.80510463  0.53960656  1  0.050947  0.002338  0.09203  0.126129  0.000884  1.003192  0.001
H  H36  1  0.41861129  0.18819290  0.12127419  1  0.062119  0.001329  0.096481  0.135468  0.000604  1.042547  0.0
H  H37  1  0.41858582  0.31180149  0.37872950  1  0.062573  0.001328  0.096431  0.135242  0.000604  1.042753  0.0
H  H38  1  0.08136530  0.31180656  0.12126547  1  0.062243  0.001327  0.096525  0.135558  0.000603  1.042406  0.0
H  H39  1  0.58139210  0.37871949  0.31180880  1  0.062211  0.001327  0.096484  0.135431  0.000603  1.042735  0.0
H  H40  1  0.91858500  0.37872396  0.18819769  1  0.062536  0.001328  0.096486  0.13535  0.000604  1.042747  0.0
H  H41  1  0.91861412  0.12127425  0.31180880  1  0.062308  0.001328  0.09649  0.135476  0.000603  1.042517  0.0
H  H42  1  0.58139054  0.12126936  0.18819104  1  0.062693  0.001328  0.096453  0.135356  0.000604  1.0425  0.0
H  H43  1  0.08139648  0.18818861  0.37873905  1  0.063016  0.001327  0.096444  0.135435  0.000604  1.04274  0.0
H  H44  1  0.58141085  0.81181214  0.87872814  1  0.062942  0.001327  0.096407  0.135276  0.000604  1.042582  0.0
H  H45  1  0.58139327  0.68819715  0.62127017  1  0.062614  0.001327  0.09647  0.135418  0.000604  1.042552  0.0
H  H46  1  0.91860571  0.68819528  0.87873312  1  0.062761  0.001327  0.096426  0.135314  0.000604  1.0426  0.0
H  H47  1  0.41862870  0.62126794  0.68818392  1  0.062368  0.001327  0.09646  0.135523  0.000603  1.042483  0.0
H  H48  1  0.08136851  0.62126827  0.81180144  1  0.062196  0.001326  0.096502  0.135481  0.000603  1.042433  0.0
H  H49  1  0.08137035  0.87874680  0.68817912  1  0.062475  0.001327  0.096455  0.135493  0.000603  1.042554  0.0
H  H50  1  0.41863295  0.87873995  0.81180595  1  0.062363  0.001327  0.096498  0.135472  0.000603  1.042598  0.0
H  H51  1  0.91860278  0.81180469  0.62127343  1  0.062582  0.001328  0.096493  0.135453  0.000604  1.042515  0.0
H  H52  1  0.36245380  0.10965256  0.07160229  1  0.030834  0.000543  0.094682  0.134933  0.000138  1.001535  0.0
H  H53  1  0.36247940  0.39034472  0.42840447  1  0.030843  0.000543  0.094663  0.134848  0.000138  1.00136  0.0
H  H54  1  0.13754122  0.39034610  0.07159435  1  0.030792  0.000543  0.094691  0.134995  0.000138  1.001409  0.0
H  H55  1  0.63752331  0.42839859  0.39035101  1  0.030497  0.000542  0.094686  0.134914  0.000138  1.001368  0.0
H  H56  1  0.86250704  0.42840637  0.10965789  1  0.030405  0.000542  0.0947  0.13493  0.000138  1.001397  0.0
H  H57  1  0.86247123  0.07159420  0.39034527  1  0.030841  0.000542  0.094683  0.134934  0.000138  1.001351  0.0
H  H58  1  0.63752323  0.07159431  0.10965110  1  0.030548  0.000543  0.094718  0.134963  0.000138  1.001333  0.0
H  H59  1  0.13753157  0.10964831  0.42840603  1  0.030423  0.000541  0.094752  0.13504  0.000138  1.00143  0.0
H  H60  1  0.63754413  0.89035302  0.92839951  1  0.030713  0.000543  0.094723  0.134907  0.000139  1.001294  0.0
H  H61  1  0.63752659  0.60965338  0.57159412  1  0.03081  0.000543  0.094679  0.134901  0.000138  1.001373  0.0
H  H62  1  0.86246881  0.60965467  0.92839197  1  0.030914  0.000543  0.094689  0.134856  0.000138  1.001527  0.0
H  H63  1  0.36244904  0.57159844  0.60963905  1  0.030288  0.000543  0.094835  0.135156  0.000138  1.001535  0.0
H  H64  1  0.13750030  0.57158800  0.89034177  1  0.030366  0.000541  0.094684  0.134942  0.000138  1.001489  0.0
H  H65  1  0.13755630  0.92839963  0.60964159  1  0.030506  0.000541  0.094846  0.135195  0.000138  1.001604  0.0
H  H66  1  0.36247738  0.92840273  0.89034909  1  0.030403  0.000541  0.094744  0.13506  0.000138  1.00169  0.0
H  H67  1  0.86249461  0.89034392  0.57159310  1  0.030467  0.000543  0.094665  0.134939  0.000138  1.001379  0.0
C  C68  1  0.04251926  0.07011696  0.98243715  1  -0.080148  0.001426  -0.097168  -0.14074  0.000729  4.012841  0.001
C  C69  1  0.04246658  0.42987925  0.51756449  1  -0.079708  0.001425  -0.097293  -0.140829  0.000728  4.012916  0.001
C  C70  1  0.45752287  0.42987315  0.98243524  1  0.045047  0.001401  -0.097225  -0.140768  0.000729  4.013506  0.001
C  C71  1  0.95750847  0.51755666  0.42988377  1  0.046335  0.001401  -0.097377  -0.141143  0.000729  4.012611  0.001
C  C72  1  0.54250225  0.51756301  0.07010917  1  -0.079394  0.001428  -0.097358  -0.140963  0.00073  4.012159  0.001
C  C73  1  0.54245597  0.98244940  0.42987924  1  0.045247  0.001401  -0.097061  -0.140567  0.000729  4.013399  0.001
C  C74  1  0.95754863  0.98243907  0.07011925  1  -0.047936  0.001421  -0.097258  -0.140727  0.00073  4.012311  0.001
C  C75  1  0.45746496  0.07010531  0.51757942  1  -0.079512  0.001427  -0.09713  -0.140669  0.00073  4.012223  0.001
C  C76  1  0.95755268  0.92988702  0.01755664  1  0.014824  0.001407  -0.097254  -0.140798  0.000729  4.012885  0.001
C  C77  1  0.95751789  0.57010978  0.48244479  1  -0.079743  0.001426  -0.097169  -0.140622  0.000729  4.013229  0.001
C  C78  1  0.54245486  0.57010787  0.01754735  1  0.045052  0.001402  -0.0972  -0.140771  0.000729  4.013454  0.001
C  C79  1  0.04246792  0.48243237  0.57012389  1  0.046549  0.001401  -0.09719  -0.14066  0.000729  4.01241  0.001
C  C80  1  0.45747817  0.48241534  0.92987875  1  -0.078323  0.001427  -0.09726  -0.140725  0.00073  4.012374  0.001
C  C81  1  0.45750697  0.01754657  0.57010815  1  0.044802  0.001401  -0.097232  -0.140801  0.000729  4.013787  0.001
C  C82  1  0.04251523  0.01756383  0.92988308  1  0.046255  0.001402  -0.097198  -0.140799  0.000729  4.012931  0.001
C  C83  1  0.54248855  0.92988052  0.48241437  1  -0.07853  0.001429  -0.097262  -0.140644  0.000731  4.011868  0.001
C  C84  1  0.00002290  0.05374023  0.05373587  1  -0.061476  0.002225  -0.010756  0.10465  0.001092  4.042918  0.001
C  C85  1  0.99999321  0.44625806  0.44626990  1  -0.061529  0.002225  -0.01061  0.104987  0.001092  4.042977  0.001
C  C86  1  0.49998504  0.44625585  0.05372182  1  -0.061375  0.002226  -0.010637  0.104765  0.001093  4.043235  0.001
C  C87  1  0.50001088  0.05373230  0.44626474  1  -0.061324  0.002227  -0.010843  0.104537  0.001093  4.04343  0.001
C  C88  1  0.00003491  0.94626953  0.94627114  1  -0.061973  0.002226  -0.010851  0.104739  0.001092  4.04379  0.001
C  C89  1  0.99999461  0.55372732  0.55372669  1  -0.062135  0.002225  -0.010831  0.104703  0.001092  4.043592  0.001
C  C90  1  0.49997520  0.55372303  0.94626931  1  -0.062058  0.002227  -0.010729  0.104898  0.001093  4.043291  0.001
C  C91  1  0.49999646  0.94626847  0.55372745  1  -0.061955  0.002226  -0.010769  0.10456  0.001093  4.043529  0.001
C  C92  1  0.00001490  0.10913089  0.10912592  1  0.002633  0.017337  -0.043471  -0.18195  0.009082  4.040599  0.01
C  C93  1  0.99997834  0.39087007  0.39087237  1  0.002447  0.017335  -0.043459  -0.182035  0.009082  4.040843  0.01
C  C94  1  0.50002820  0.39087718  0.10912391  1  0.002134  0.017347  -0.043478  -0.181905  0.009088  4.041096  0.01
C  C95  1  0.49998657  0.10913553  0.39088666  1  0.00277  0.017342  -0.04331  -0.181817  0.009086  4.041452  0.01
C  C96  1  0.00004023  0.89087994  0.89087948  1  0.002745  0.017358  -0.0435  -0.182098  0.009094  4.041078  0.01
C  C97  1  0.00001151  0.60912109  0.60912302  1  0.002642  0.01735  -0.043384  -0.181772  0.009088  4.04071  0.01
C  C98  1  0.49993743  0.60912039  0.89087789  1  0.003308  0.017355  -0.043432  -0.182228  0.009094  4.040922  0.01
C  C99  1  0.50001673  0.89087966  0.60911620  1  0.002606  0.017353  -0.043523  -0.181777  0.00909  4.041201  0.01
C  C100  1  0.13975591  0.15678138  0.12589838  1  0.405594  0.026145  0.091227  0.219688  0.014966  3.996734  0.019
C  C101  1  0.13974849  0.34322268  0.37410839  1  0.405458  0.026167  0.091253  0.219683  0.014975  3.996825  0.019
C  C102  1  0.36023796  0.34324101  0.12591364  1  0.406118  0.026173  0.091373  0.219801  0.01498  3.996619  0.019
C  C103  1  0.86025298  0.37410009  0.34322739  1  0.405418  0.026141  0.091298  0.219731  0.014961  3.997193  0.019
C  C104  1  0.63972771  0.37412294  0.15679194  1  0.405853  0.026144  0.091287  0.219869  0.014964  3.996669  0.019
C  C105  1  0.63976929  0.12591003  0.34324538  1  0.405642  0.026155  0.091314  0.219742  0.014969  3.996819  0.019
C  C106  1  0.86025600  0.12589564  0.15677525  1  0.405378  0.02616  0.091303  0.219671  0.014971  3.996974  0.019
C  C107  1  0.36029189  0.15679147  0.37412570  1  0.405485  0.026119  0.091012  0.219586  0.01495  3.996923  0.019
C  C108  1  0.86025546  0.84322419  0.87411089  1  0.405689  0.026167  0.091347  0.219915  0.014976  3.996871  0.019
C  C109  1  0.86025885  0.65677009  0.62589715  1  0.405864  0.026169  0.091251  0.219527  0.014978  3.997039  0.019
C  C110  1  0.63972093  0.65677471  0.87410898  1  0.405664  0.026159  0.091374  0.220039  0.014971  3.996759  0.019
C  C111  1  0.13974898  0.62590014  0.65676961  1  0.405759  0.026155  0.09119  0.219565  0.01497  3.996983  0.019
C  C112  1  0.36023657  0.62589865  0.84322427  1  0.40578  0.02612  0.091258  0.219738  0.014951  3.996968  0.019
C  C113  1  0.36028246  0.87410409  0.65676762  1  0.40621  0.026141  0.091362  0.219749  0.014962  3.996924  0.019
C  C114  1  0.13974327  0.87409713  0.84322815  1  0.406256  0.026121  0.091283  0.219707  0.014952  3.997023  0.019
C  C115  1  0.63975583  0.84322852  0.62588998  1  0.405533  0.026153  0.091282  0.219675  0.014967  3.996816  0.019
C  C116  1  0.31586551  0.16259188  0.08838661  1  -0.035921  0.001829  -0.237204  -0.426241  0.001116  3.97872  0.001
C  C117  1  0.31583697  0.33740951  0.41161248  1  -0.036089  0.001828  -0.237129  -0.425795  0.001115  3.97893  0.001
C  C118  1  0.18414892  0.33741310  0.08839303  1  -0.036228  0.001829  -0.23729  -0.426408  0.001116  3.978801  0.001
C  C119  1  0.68413302  0.41160708  0.33741021  1  -0.036113  0.001828  -0.237234  -0.426176  0.001115  3.978824  0.001
C  C120  1  0.81587553  0.41162189  0.16259343  1  -0.035484  0.001827  -0.237336  -0.426237  0.001115  3.97835  0.001
C  C121  1  0.81584511  0.08839720  0.33741433  1  -0.036283  0.001828  -0.237259  -0.42626  0.001115  3.978991  0.001
C  C122  1  0.68415501  0.08838545  0.16258729  1  -0.036028  0.001829  -0.237207  -0.426131  0.001116  3.978802  0.001
C  C123  1  0.18413037  0.16259056  0.41162729  1  -0.035519  0.00183  -0.237317  -0.426389  0.001117  3.978304  0.001
C  C124  1  0.68417009  0.83741423  0.91161625  1  -0.036166  0.001827  -0.237206  -0.426103  0.001115  3.979071  0.001
C  C125  1  0.68415422  0.66258913  0.58838932  1  -0.036124  0.001829  -0.237147  -0.425991  0.001116  3.978839  0.001
C  C126  1  0.81582747  0.66258927  0.91160930  1  -0.036199  0.001828  -0.237158  -0.425982  0.001115  3.979171  0.001
C  C127  1  0.31586356  0.58838621  0.66258091  1  -0.03578  0.001828  -0.237309  -0.426523  0.001115  3.978883  0.001
C  C128  1  0.18410490  0.58838155  0.83740623  1  -0.035728  0.001829  -0.237347  -0.426347  0.001115  3.978083  0.001
C  C129  1  0.18414877  0.91162012  0.66258106  1  -0.035656  0.00183  -0.237378  -0.426666  0.001117  3.978844  0.001
C  C130  1  0.31588463  0.91162012  0.83741184  1  -0.036184  0.001832  -0.23736  -0.426379  0.001117  3.978546  0.001
C  C131  1  0.81585813  0.83740914  0.58838411  1  -0.035749  0.001828  -0.237312  -0.42632  0.001115  3.978675  0.001
N  N132  1  0.08776835  0.19885078  0.18132602  1  -0.783199  0.078018  -0.282925  -0.26162  0.040455  3.56535  0.052
N  N133  1  0.08775535  0.30115409  0.31867738  1  -0.804053  0.07815  -0.283007  -0.261744  0.040463  3.565114  0.052
N  N134  1  0.41222030  0.30116491  0.18134273  1  -0.804577  0.078141  -0.283121  -0.261821  0.04046  3.565073  0.052
N  N135  1  0.91223691  0.31867830  0.30115451  1  -0.782728  0.078021  -0.28298  -0.261581  0.040463  3.565278  0.052
N  N136  1  0.58776398  0.31869160  0.19886777  1  -0.783191  0.078009  -0.282963  -0.261884  0.040454  3.564914  0.052
N  N137  1  0.58776845  0.18133578  0.30116832  1  -0.804373  0.078151  -0.283096  -0.261862  0.040464  3.565007  0.052
N  N138  1  0.91224337  0.18132622  0.19884668  1  -0.804358  0.078128  -0.283039  -0.261747  0.04045  3.565274  0.052
N  N139  1  0.41223508  0.19885821  0.31869837  1  -0.78305  0.077996  -0.282769  -0.261501  0.040446  3.564844  0.052
N  N140  1  0.91222285  0.80115106  0.81867204  1  -0.80439  0.078157  -0.282906  -0.261738  0.040467  3.564342  0.052
N  N141  1  0.91222238  0.69884881  0.68132762  1  -0.804916  0.078152  -0.28295  -0.261654  0.040461  3.56459  0.052
N  N142  1  0.58776282  0.69885240  0.81867615  1  -0.804989  0.078158  -0.282942  -0.261784  0.040462  3.564163  0.052
N  N143  1  0.08779062  0.68133101  0.69884996  1  -0.782609  0.07802  -0.283091  -0.261809  0.040469  3.564727  0.052
N  N144  1  0.41218549  0.68132625  0.80114897  1  -0.783111  0.078022  -0.283068  -0.261741  0.040472  3.564634  0.052
N  N145  1  0.41221736  0.81867780  0.69884789  1  -0.8046  0.078144  -0.283014  -0.261749  0.040461  3.564803  0.052
N  N146  1  0.08779628  0.81867722  0.80114764  1  -0.78312  0.07802  -0.28305  -0.261717  0.040466  3.564905  0.052
N  N147  1  0.58778841  0.80115164  0.68132318  1  -0.782764  0.078015  -0.282986  -0.261727  0.040462  3.564459  0.052
