# generated using pymatgen
data_CdH7C13NO4
_symmetry_space_group_name_H-M   'P 1'
_cell_length_a   7.79893179
_cell_length_b   17.37606933
_cell_length_c   17.38532106
_cell_angle_alpha   117.81774358
_cell_angle_beta   98.61819552
_cell_angle_gamma   98.58701659
_symmetry_Int_Tables_number   1
_chemical_formula_structural   CdH7C13NO4
_chemical_formula_sum   'Cd6 H42 C78 N6 O24'
_cell_volume   1994.37512746
_cell_formula_units_Z   6
loop_
 _symmetry_equiv_pos_site_id
 _symmetry_equiv_pos_as_xyz
  1  'x, y, z'
loop_
 _atom_site_type_symbol
 _atom_site_label
 _atom_site_symmetry_multiplicity
 _atom_site_fract_x
 _atom_site_fract_y
 _atom_site_fract_z
 _atom_site_occupancy
 _atom_site_pbe_bader_charge
 _atom_site_pbe_bader_spin_density
 _atom_site_pbe_cm5_charge
 _atom_site_pbe_ddec_charge
 _atom_site_pbe_ddec_spin_density
 _atom_site_pbe_ddec_sum_bond_order
 _atom_site_pbe_magmom
Cd  Cd0  1  0.49448483  0.75559092  0.09539367  1  1.279961  0  0.809977  0.975896  0  1.935119  0
Cd  Cd1  1  0.73902477  0.33954258  0.24440215  1  1.27891  0  0.810022  0.975755  0  1.934555  0
Cd  Cd2  1  0.39939425  0.90456367  0.66019617  1  1.279347  0  0.809636  0.975157  0  1.936314  0
Cd  Cd3  1  0.50551591  0.24440762  0.90460563  1  1.279968  0  0.809977  0.975907  0  1.935094  0
Cd  Cd4  1  0.26097405  0.66045731  0.75559766  1  1.27886  0  0.810025  0.975763  0  1.934584  0
Cd  Cd5  1  0.60060682  0.09543555  0.33980232  1  1.279341  0  0.809631  0.975161  0  1.93632  0
H  H6  1  0.95435286  0.86362049  0.18061301  1  0.121884  0  0.111663  0.121002  0  0.995666  0
H  H7  1  0.09108075  0.31685614  0.13644565  1  0.110656  0  0.111829  0.121483  0  0.995522  0
H  H8  1  0.77421885  0.81940426  0.68299176  1  0.133171  0  0.11158  0.121103  0  0.996238  0
H  H9  1  0.04565180  0.13638075  0.81938665  1  0.121868  0  0.111674  0.121  0  0.995679  0
H  H10  1  0.90891799  0.68314107  0.86355002  1  0.110795  0  0.111789  0.121462  0  0.995589  0
H  H11  1  0.22578164  0.18059899  0.31700915  1  0.13285  0  0.111599  0.121129  0  0.996255  0
H  H12  1  0.22066567  0.75362284  0.32489787  1  0.07035  0  0.107563  0.105801  0  1.019611  0
H  H13  1  0.46738523  0.57118316  0.24621585  1  0.074958  0  0.107355  0.105633  0  1.020053  0
H  H14  1  0.89558830  0.67496248  0.42861219  1  0.079749  0  0.107607  0.1055  0  1.01988  0
H  H15  1  0.77933703  0.24637705  0.67510104  1  0.070371  0  0.107579  0.105799  0  1.019582  0
H  H16  1  0.53261587  0.42881606  0.75378552  1  0.074914  0  0.107346  0.105629  0  1.020021  0
H  H17  1  0.10440793  0.32503741  0.57138745  1  0.079713  0  0.107605  0.105493  0  1.019875  0
H  H18  1  0.02806640  0.79856885  0.43057238  1  0.131031  0  0.09935  0.107313  0  1.074545  0
H  H19  1  0.22979999  0.63196989  0.20128206  1  0.130766  0  0.099428  0.107893  0  1.074557  0
H  H20  1  0.59724100  0.56933906  0.36788001  1  0.129561  0  0.099489  0.107852  0  1.074388  0
H  H21  1  0.97193399  0.20142902  0.56942544  1  0.130994  0  0.099337  0.107305  0  1.074599  0
H  H22  1  0.77019859  0.36803202  0.79872271  1  0.13078  0  0.099419  0.107862  0  1.07461  0
H  H23  1  0.40275268  0.43066352  0.63212072  1  0.129703  0  0.09947  0.10781  0  1.074412  0
H  H24  1  0.35376642  0.85245380  0.46820057  1  0.083971  0  0.113966  0.084087  0  1.036778  0
H  H25  1  0.50160718  0.61571485  0.14744792  1  0.097329  0  0.113829  0.084074  0  1.036078  0
H  H26  1  0.88547565  0.53148567  0.38429400  1  0.101812  0  0.113746  0.084272  0  1.037175  0
H  H27  1  0.64623467  0.14754811  0.53179746  1  0.083929  0  0.11393  0.084059  0  1.036839  0
H  H28  1  0.49838576  0.38428101  0.85255135  1  0.097377  0  0.113798  0.084084  0  1.036056  0
H  H29  1  0.11452088  0.46851221  0.61570529  1  0.101833  0  0.113731  0.08426  0  1.037199  0
H  H30  1  0.50562465  0.82112544  0.34408741  1  0.163269  0  0.104704  0.12457  0  1.053514  0
H  H31  1  0.68506088  0.52298958  0.17884101  1  0.127126  0  0.104829  0.124423  0  1.052899  0
H  H32  1  0.16146500  0.65573111  0.47701640  1  0.164718  0  0.104395  0.124159  0  1.053837  0
H  H33  1  0.49437904  0.17887647  0.65591136  1  0.163274  0  0.104683  0.124481  0  1.05358  0
H  H34  1  0.31493466  0.47700628  0.82115843  1  0.126988  0  0.104841  0.124428  0  1.052941  0
H  H35  1  0.83852832  0.34426811  0.52298389  1  0.16438  0  0.104404  0.124172  0  1.05384  0
H  H36  1  0.00867211  0.94957005  0.54732004  1  0.086534  0  0.107691  0.122955  0  1.030004  0
H  H37  1  0.05928960  0.59775881  0.05034498  1  0.116073  0  0.107546  0.122282  0  1.030886  0
H  H38  1  0.46157125  0.45253509  0.40199531  1  0.119068  0  0.107794  0.123152  0  1.0301  0
H  H39  1  0.99132992  0.05042850  0.45267877  1  0.086565  0  0.107705  0.122975  0  1.030021  0
H  H40  1  0.94071054  0.40224108  0.94965606  1  0.116008  0  0.107545  0.122282  0  1.030882  0
H  H41  1  0.53842924  0.54746816  0.59800503  1  0.118996  0  0.107784  0.123117  0  1.03012  0
H  H42  1  0.83699414  0.97265301  0.66152677  1  0.116116  0  0.119309  0.09344  0  0.986881  0
H  H43  1  0.86437745  0.68891208  0.02728722  1  0.10434  0  0.119401  0.093746  0  0.985515  0
H  H44  1  0.17568227  0.33822801  0.31090864  1  0.096254  0  0.119613  0.093976  0  0.986562  0
H  H45  1  0.16301022  0.02734756  0.33847486  1  0.116224  0  0.119356  0.093468  0  0.986907  0
H  H46  1  0.13562011  0.31108781  0.97271539  1  0.104301  0  0.119425  0.093786  0  0.985476  0
H  H47  1  0.82432049  0.66177457  0.68909326  1  0.096222  0  0.119602  0.093937  0  0.98654  0
C  C48  1  0.87630003  0.85578523  0.36561193  1  -0.078275  0  0.005873  0.058941  0  3.923585  0
C  C49  1  0.02090393  0.50975275  0.14409434  1  -0.031426  0  0.006241  0.05952  0  3.924201  0
C  C50  1  0.51074824  0.63429974  0.49012350  1  -0.031798  0  0.006025  0.058842  0  3.924997  0
C  C51  1  0.12370010  0.14421466  0.63438854  1  -0.078363  0  0.005872  0.058973  0  3.923568  0
C  C52  1  0.97909555  0.49024579  0.85590718  1  -0.031456  0  0.006279  0.059621  0  3.924075  0
C  C53  1  0.48924866  0.36570150  0.50987739  1  -0.031874  0  0.006006  0.058794  0  3.924989  0
C  C54  1  0.85147304  0.87015794  0.29135136  1  0.012676  0  -0.015708  -0.09116  0  3.949296  0
C  C55  1  0.98172494  0.42110889  0.12979350  1  -0.047233  0  -0.015941  -0.090804  0  3.948401  0
C  C56  1  0.56049261  0.70859323  0.57879161  1  -0.01385  0  -0.015572  -0.089476  0  3.948505  0
C  C57  1  0.14853003  0.12984262  0.70865019  1  0.012931  0  -0.015657  -0.091085  0  3.949199  0
C  C58  1  0.01827681  0.57889167  0.87020681  1  -0.047193  0  -0.015968  -0.090921  0  3.948457  0
C  C59  1  0.43950462  0.29140867  0.42120904  1  -0.013702  0  -0.01553  -0.08933  0  3.948366  0
C  C60  1  0.96781404  0.84791491  0.23471807  1  -0.057584  0  -0.078097  -0.120757  0  3.973654  0
C  C61  1  0.12026316  0.38668038  0.15208103  1  0.012884  0  -0.078556  -0.12201  0  3.974132  0
C  C62  1  0.73351270  0.76523846  0.61317096  1  -0.070202  0  -0.07812  -0.121536  0  3.974195  0
C  C63  1  0.03218901  0.15208565  0.76528232  1  -0.05759  0  -0.078165  -0.120805  0  3.973669  0
C  C64  1  0.87973526  0.61331615  0.84791545  1  0.012771  0  -0.078523  -0.122003  0  3.974393  0
C  C65  1  0.26648550  0.23476278  0.38682944  1  -0.070003  0  -0.078165  -0.121622  0  3.974274  0
C  C66  1  0.10565981  0.80903172  0.24794327  1  -0.016319  0  -0.01752  -0.02743  0  3.984001  0
C  C67  1  0.29700181  0.43879909  0.19093444  1  -0.0538  0  -0.017265  -0.026597  0  3.982488  0
C  C68  1  0.85801373  0.75196875  0.56103108  1  -0.069786  0  -0.017646  -0.027458  0  3.982879  0
C  C69  1  0.89434322  0.19096884  0.75205540  1  -0.016388  0  -0.017517  -0.027468  0  3.984141  0
C  C70  1  0.70299863  0.56120147  0.80906464  1  -0.053831  0  -0.017228  -0.02654  0  3.982534  0
C  C71  1  0.14198544  0.24803182  0.43896964  1  -0.069813  0  -0.017672  -0.027511  0  3.982882  0
C  C72  1  0.11988871  0.78805586  0.31665686  1  -0.053653  0  -0.080285  -0.080981  0  3.969449  0
C  C73  1  0.33218761  0.52850486  0.21179675  1  -0.063147  0  -0.079593  -0.080166  0  3.969251  0
C  C74  1  0.80318036  0.68322696  0.47131868  1  0.019357  0  -0.079538  -0.079133  0  3.968107  0
C  C75  1  0.88011433  0.21194470  0.68334296  1  -0.053541  0  -0.080218  -0.080796  0  3.969462  0
C  C76  1  0.66781410  0.47149301  0.78820230  1  -0.063129  0  -0.079604  -0.080147  0  3.969211  0
C  C77  1  0.19681620  0.31677360  0.52868073  1  0.019566  0  -0.079525  -0.079127  0  3.968069  0
C  C78  1  0.00922293  0.81240328  0.37523466  1  -0.029181  0  -0.090514  -0.133407  0  3.958947  0
C  C79  1  0.19717784  0.56275549  0.18742493  1  -0.009738  0  -0.090924  -0.134486  0  3.959786  0
C  C80  1  0.63385578  0.62467865  0.43708008  1  -0.074534  0  -0.091091  -0.134697  0  3.961004  0
C  C81  1  0.99077846  0.18759661  0.62476360  1  -0.029326  0  -0.09054  -0.133505  0  3.959033  0
C  C82  1  0.80282264  0.43724507  0.81257702  1  -0.00978  0  -0.090898  -0.134473  0  3.959892  0
C  C83  1  0.36614209  0.37532192  0.56292056  1  -0.074832  0  -0.091038  -0.134583  0  3.960963  0
C  C84  1  0.72012994  0.91921801  0.27535539  1  1.574867  0  0.212192  0.593997  0  4.1923  0
C  C85  1  0.80124650  0.35611120  0.08078251  1  1.564529  0  0.212667  0.59391  0  4.192091  0
C  C86  1  0.44530496  0.72465840  0.64388696  1  1.572064  0  0.212006  0.591871  0  4.194892  0
C  C87  1  0.27987309  0.08078255  0.72464385  1  1.574661  0  0.212173  0.59402  0  4.192377  0
C  C88  1  0.19875327  0.64388801  0.91921590  1  1.564589  0  0.212586  0.593821  0  4.192102  0
C  C89  1  0.55469424  0.27534485  0.35611387  1  1.572229  0  0.211971  0.591716  0  4.194942  0
C  C90  1  0.23712043  0.79146371  0.19074890  1  1.537205  0  0.188371  0.547567  0  4.238225  0
C  C91  1  0.44599748  0.39914612  0.20857994  1  1.545087  0  0.187725  0.546855  0  4.237167  0
C  C92  1  0.04677077  0.80910723  0.60061229  1  1.561811  0  0.187394  0.546501  0  4.238626  0
C  C93  1  0.76288358  0.20853618  0.80925124  1  1.537194  0  0.188385  0.547466  0  4.238205  0
C  C94  1  0.55399707  0.60085041  0.79141745  1  1.545381  0  0.187737  0.546897  0  4.237145  0
C  C95  1  0.95322902  0.19089199  0.39938727  1  1.561843  0  0.187381  0.546474  0  4.238618  0
C  C96  1  0.49905020  0.87268859  0.48249776  1  0.439569  0  0.040153  0.095454  0  3.943553  0
C  C97  1  0.62666866  0.60979804  0.12721920  1  0.463547  0  0.040238  0.094913  0  3.943917  0
C  C98  1  0.01650591  0.51723188  0.39020928  1  0.468312  0  0.040393  0.094618  0  3.946341  0
C  C99  1  0.50095446  0.12731264  0.51750075  1  0.439542  0  0.040209  0.095475  0  3.943726  0
C  C100  1  0.37332625  0.39019916  0.87278082  1  0.463577  0  0.040227  0.0948  0  3.94393  0
C  C101  1  0.98349257  0.48276734  0.60979020  1  0.468301  0  0.040404  0.094628  0  3.94625  0
C  C102  1  0.58441591  0.85614265  0.41374490  1  -0.045846  0  -0.082715  -0.160417  0  3.89909  0
C  C103  1  0.72871870  0.55761090  0.14380250  1  -0.003011  0  -0.082711  -0.159217  0  3.898974  0
C  C104  1  0.17063976  0.58605476  0.44236733  1  -0.063269  0  -0.082403  -0.159269  0  3.900305  0
C  C105  1  0.41558745  0.14385858  0.58625411  1  -0.045846  0  -0.082681  -0.16023  0  3.89912  0
C  C106  1  0.27127881  0.44238630  0.85619827  1  -0.002876  0  -0.082737  -0.159185  0  3.899056  0
C  C107  1  0.82935422  0.41394580  0.55763306  1  -0.062952  0  -0.082416  -0.159287  0  3.90044  0
C  C108  1  0.77206958  0.88160870  0.43480692  1  0.006521  0  0.020326  0.128346  0  3.945646  0
C  C109  1  0.89083159  0.55315509  0.11827765  1  -0.001284  0  0.020543  0.127527  0  3.947319  0
C  C110  1  0.33731938  0.56504093  0.44673292  1  0.040433  0  0.020609  0.127962  0  3.946246  0
C  C111  1  0.22793280  0.11839052  0.56519280  1  0.006626  0  0.020321  0.128272  0  3.945763  0
C  C112  1  0.10916692  0.44684413  0.88172355  1  -0.001249  0  0.02046  0.127386  0  3.947376  0
C  C113  1  0.66267751  0.43496031  0.55326682  1  0.040559  0  0.02061  0.127924  0  3.946462  0
C  C114  1  0.86293573  0.92692293  0.52609788  1  0.031525  0  -0.081524  -0.170452  0  3.905275  0
C  C115  1  0.93621740  0.59917425  0.07299740  1  0.000112  0  -0.081409  -0.169711  0  3.907058  0
C  C116  1  0.33700401  0.47373743  0.40065674  1  -0.061408  0  -0.082049  -0.17063  0  3.907611  0
C  C117  1  0.13706796  0.07307629  0.47390308  1  0.032318  0  -0.081554  -0.170474  0  3.905303  0
C  C118  1  0.06378016  0.40082564  0.92700463  1  0.000158  0  -0.08133  -0.169538  0  3.907066  0
C  C119  1  0.66299486  0.52626515  0.59934491  1  -0.061239  0  -0.08204  -0.170582  0  3.907643  0
C  C120  1  0.76712915  0.94054055  0.59082384  1  0.487777  0  0.047268  0.103596  0  3.959637  0
C  C121  1  0.82672491  0.65031249  0.05938860  1  0.447174  0  0.047013  0.10372  0  3.959527  0
C  C122  1  0.17645593  0.40894387  0.34957478  1  0.497257  0  0.046696  0.102273  0  3.961367  0
C  C123  1  0.23287258  0.05946001  0.40917532  1  0.486828  0  0.047219  0.103604  0  3.959674  0
C  C124  1  0.17327168  0.34968807  0.94061310  1  0.447162  0  0.046991  0.103613  0  3.959582  0
C  C125  1  0.82354324  0.59105669  0.65042595  1  0.497127  0  0.046705  0.102302  0  3.961224  0
N  N126  1  0.58752643  0.91236260  0.56982753  1  -1.251694  0  -0.332707  -0.271902  0  3.529391  0
N  N127  1  0.67527639  0.65745730  0.08753310  1  -1.250438  0  -0.332863  -0.272753  0  3.530165  0
N  N128  1  0.01775018  0.42988068  0.34249882  1  -1.247429  0  -0.332527  -0.270978  0  3.530087  0
N  N129  1  0.41247824  0.08763863  0.43017213  1  -1.25173  0  -0.332714  -0.271978  0  3.529499  0
N  N130  1  0.32472112  0.34253990  0.91246766  1  -1.250476  0  -0.332847  -0.272689  0  3.530013  0
N  N131  1  0.98224961  0.57011853  0.65750074  1  -1.247382  0  -0.332517  -0.270959  0  3.529999  0
O  O132  1  0.69779976  0.98395109  0.34523707  1  -1.145763  0  -0.311781  -0.530678  0  2.309238  0
O  O133  1  0.71427683  0.36125773  0.01604225  1  -1.139583  0  -0.311724  -0.530296  0  2.309021  0
O  O134  1  0.35297295  0.65478326  0.63869301  1  -1.142912  0  -0.311428  -0.529683  0  2.310225  0
O  O135  1  0.30220164  0.01604880  0.65476175  1  -1.145603  0  -0.311752  -0.530659  0  2.309241  0
O  O136  1  0.28572552  0.63874149  0.98395517  1  -1.139639  0  -0.311704  -0.530239  0  2.309002  0
O  O137  1  0.64702242  0.34522268  0.36130999  1  -1.142805  0  -0.311392  -0.529632  0  2.310181  0
O  O138  1  0.64619479  0.89842366  0.19524644  1  -1.153654  0  -0.331119  -0.561694  0  2.231947  0
O  O139  1  0.74795266  0.29687417  0.10165627  1  -1.153722  0  -0.33137  -0.562056  0  2.233163  0
O  O140  1  0.45167149  0.80483065  0.70324977  1  -1.153219  0  -0.331335  -0.561421  0  2.232639  0
O  O141  1  0.35380790  0.10157623  0.80475247  1  -1.153643  0  -0.331146  -0.561767  0  2.232035  0
O  O142  1  0.25204355  0.70312572  0.89834222  1  -1.153743  0  -0.331323  -0.562  0  2.23314  0
O  O143  1  0.54833617  0.19517394  0.29675281  1  -1.153479  0  -0.331367  -0.561397  0  2.232759  0
O  O144  1  0.22707165  0.81431899  0.13138053  1  -1.139333  0  -0.328974  -0.53683  0  2.109956  0
O  O145  1  0.41303910  0.31688727  0.18580868  1  -1.140693  0  -0.329032  -0.53706  0  2.108807  0
O  O146  1  0.09626444  0.86856900  0.68283930  1  -1.147463  0  -0.328797  -0.536551  0  2.109508  0
O  O147  1  0.77293332  0.18568023  0.86861936  1  -1.139343  0  -0.328997  -0.536795  0  2.109982  0
O  O148  1  0.58695742  0.68311060  0.81418946  1  -1.140884  0  -0.32906  -0.537124  0  2.108717  0
O  O149  1  0.90373664  0.13143022  0.31716034  1  -1.147493  0  -0.32874  -0.536469  0  2.109478  0
O  O150  1  0.35812668  0.75342576  0.20586367  1  -1.171547  0  -0.337464  -0.577213  0  2.23426  0
O  O151  1  0.60499115  0.45229130  0.24659207  1  -1.179734  0  -0.337188  -0.57673  0  2.233999  0
O  O152  1  0.15254056  0.79389434  0.54745548  1  -1.187125  0  -0.336556  -0.576305  0  2.234254  0
O  O153  1  0.64187146  0.24657279  0.79413489  1  -1.171499  0  -0.337468  -0.577177  0  2.234155  0
O  O154  1  0.39500766  0.54770859  0.75340658  1  -1.179791  0  -0.337187  -0.57673  0  2.234109  0
O  O155  1  0.84745987  0.20610353  0.45254522  1  -1.18713  0  -0.336577  -0.576319  0  2.234247  0
