# generated using pymatgen
data_CuH13C20N5O6
_symmetry_space_group_name_H-M   'P 1'
_cell_length_a   10.35432022
_cell_length_b   11.24216157
_cell_length_c   21.52526981
_cell_angle_alpha   94.94414361
_cell_angle_beta   89.99987938
_cell_angle_gamma   90.00003383
_symmetry_Int_Tables_number   1
_chemical_formula_structural   CuH13C20N5O6
_chemical_formula_sum   'Cu4 H52 C80 N20 O24'
_cell_volume   2496.32472109
_cell_formula_units_Z   4
loop_
 _symmetry_equiv_pos_site_id
 _symmetry_equiv_pos_as_xyz
  1  'x, y, z'
loop_
 _atom_site_type_symbol
 _atom_site_label
 _atom_site_symmetry_multiplicity
 _atom_site_fract_x
 _atom_site_fract_y
 _atom_site_fract_z
 _atom_site_occupancy
 _atom_site_pbe_bader_charge
 _atom_site_pbe_bader_spin_density
 _atom_site_pbe_cm5_charge
 _atom_site_pbe_ddec_charge
 _atom_site_pbe_ddec_spin_density
 _atom_site_pbe_ddec_sum_bond_order
 _atom_site_pbe_magmom
Cu  Cu0  1  0.83523022  0.41398308  0.45098597  1  1.086375  0.564942  0.746934  0.795074  0.752702  2.197099  0.564
Cu  Cu1  1  0.33521861  0.58602281  0.04901311  1  1.086389  0.564938  0.746931  0.795176  0.752694  2.197072  0.564
Cu  Cu2  1  0.16478045  0.58601925  0.54901160  1  1.086211  -0.564935  0.746885  0.795152  -0.752689  2.197059  -0.564
Cu  Cu3  1  0.66476985  0.41398398  0.95098700  1  1.086344  -0.564943  0.746901  0.794944  -0.752704  2.197246  -0.564
H  H4  1  0.91001910  0.19251744  0.50855151  1  0.135567  0.001694  0.119909  0.091616  0.00076  1.017617  0.001
H  H5  1  0.41001535  0.80749035  0.99144705  1  0.135458  0.001694  0.119899  0.091641  0.000761  1.017599  0.001
H  H6  1  0.08999061  0.80748936  0.49144720  1  0.13555  -0.001694  0.119895  0.091614  -0.00076  1.017622  -0.001
H  H7  1  0.58998180  0.19251912  0.00855225  1  0.13555  -0.001694  0.119898  0.091619  -0.000761  1.017607  -0.001
H  H8  1  0.10011076  0.05338430  0.50095660  1  0.099156  0.001059  0.111501  0.114941  0.000556  1.024577  0.001
H  H9  1  0.60011284  0.94661622  0.99904333  1  0.09911  0.001059  0.111494  0.114929  0.000556  1.024572  0.001
H  H10  1  0.89989508  0.94661981  0.49904385  1  0.098978  -0.001059  0.111515  0.114953  -0.000556  1.024585  -0.001
H  H11  1  0.39988913  0.05338610  0.00095703  1  0.099345  -0.001059  0.11152  0.114983  -0.000556  1.02455  -0.001
H  H12  1  0.23245109  0.23641804  0.34418027  1  0.125603  0.001092  0.110587  0.124899  0.000586  1.01326  0.001
H  H13  1  0.73244103  0.76357085  0.15581907  1  0.12572  0.001092  0.110533  0.12485  0.000586  1.013352  0.001
H  H14  1  0.76755958  0.76357179  0.65581906  1  0.125749  -0.001092  0.110536  0.124845  -0.000586  1.01334  -0.001
H  H15  1  0.26755418  0.23641720  0.84417878  1  0.125622  -0.001092  0.110566  0.124837  -0.000586  1.013427  -0.001
H  H16  1  0.04066352  0.37002994  0.36005714  1  0.124498  0.002067  0.122737  0.099265  0.000988  1.008807  0.002
H  H17  1  0.54064669  0.62997228  0.13994068  1  0.124772  0.002066  0.122706  0.099193  0.000988  1.00872  0.002
H  H18  1  0.95935198  0.62996973  0.63993846  1  0.124768  -0.002067  0.122699  0.099173  -0.000989  1.008731  -0.002
H  H19  1  0.45934080  0.37002738  0.86005631  1  0.124514  -0.002067  0.122742  0.09924  -0.000988  1.008813  -0.002
H  H20  1  0.60936630  0.78517649  0.38872643  1  0.098552  0.00109  0.113916  0.121506  0.000584  0.991006  0.001
H  H21  1  0.10937446  0.21482306  0.11127352  1  0.098558  0.00109  0.113866  0.12143  0.000584  0.990981  0.001
H  H22  1  0.39062602  0.21482405  0.61127385  1  0.098565  -0.00109  0.113861  0.121435  -0.000584  0.990987  -0.001
H  H23  1  0.89063041  0.78517747  0.88872954  1  0.098471  -0.00109  0.113904  0.121476  -0.000583  0.990992  -0.001
H  H24  1  0.76497667  0.61316466  0.38062126  1  0.116262  0.001894  0.121936  0.10012  0.000902  1.011342  0.002
H  H25  1  0.26497525  0.38684299  0.11937704  1  0.116291  0.001894  0.121956  0.1001  0.000901  1.011449  0.002
H  H26  1  0.23502434  0.38684482  0.61937571  1  0.116328  -0.001894  0.121947  0.10011  -0.000902  1.011373  -0.002
H  H27  1  0.73502673  0.61316291  0.88062255  1  0.116317  -0.001894  0.121941  0.100114  -0.000901  1.011441  -0.002
H  H28  1  0.65140338  0.50636713  0.55144847  1  0.135818  0.001671  0.117164  0.095187  0.000791  1.039396  0.002
H  H29  1  0.15138707  0.49363431  0.94855145  1  0.136071  0.00167  0.117139  0.095169  0.000791  1.039365  0.002
H  H30  1  0.34861308  0.49363163  0.44854987  1  0.13611  -0.00167  0.117131  0.095154  -0.000791  1.039343  -0.002
H  H31  1  0.84859753  0.50636534  0.05145018  1  0.135912  -0.001671  0.117169  0.095179  -0.000791  1.039432  -0.002
H  H32  1  0.49011227  0.67258942  0.56688110  1  0.176611  0.000953  0.107666  0.129081  0.000553  1.053877  0.001
H  H33  1  0.99010556  0.32740500  0.93312001  1  0.176575  0.000953  0.107666  0.129109  0.000553  1.053762  0.001
H  H34  1  0.50989936  0.32740576  0.43311986  1  0.176547  -0.000953  0.107695  0.129189  -0.000553  1.053712  -0.001
H  H35  1  0.00988580  0.67259018  0.06688374  1  0.176555  -0.000953  0.107702  0.12912  -0.000553  1.053828  -0.001
H  H36  1  0.67579877  0.31730108  0.62693438  1  0.104739  0.000351  0.104917  0.108973  0.000339  1.026123  0.0
H  H37  1  0.17579256  0.68269948  0.87306362  1  0.104559  0.000351  0.104895  0.108961  0.000339  1.026118  0.0
H  H38  1  0.32420514  0.68269143  0.37306321  1  0.104611  -0.000351  0.104898  0.108932  -0.000339  1.026161  0.0
H  H39  1  0.82420169  0.31729929  0.12693333  1  0.104709  -0.000351  0.104925  0.108962  -0.000339  1.026143  0.0
H  H40  1  0.62669341  0.29632611  0.73855577  1  0.08049  -5.3e-05  0.10901  0.114937  -2.1e-05  0.976326  0.0
H  H41  1  0.12670026  0.70367711  0.76144008  1  0.080544  -5.3e-05  0.10901  0.115038  -2e-05  0.976277  0.0
H  H42  1  0.37329987  0.70367176  0.26143928  1  0.080572  5.3e-05  0.109005  0.115054  2.1e-05  0.976267  0.0
H  H43  1  0.87330654  0.29632523  0.23855517  1  0.080483  5.3e-05  0.109013  0.114974  2.1e-05  0.976295  0.0
H  H44  1  0.06273865  0.42843572  0.67653531  1  0.174818  -0.000181  0.113108  0.129174  -0.000166  1.038841  0.0
H  H45  1  0.56273837  0.57156567  0.82347028  1  0.174743  -0.000181  0.113044  0.129082  -0.000167  1.038957  0.0
H  H46  1  0.93725560  0.57157910  0.32346981  1  0.174785  0.000181  0.113086  0.129075  0.000167  1.039041  0.0
H  H47  1  0.43725588  0.42842504  0.17653281  1  0.174802  0.000181  0.113077  0.129139  0.000167  1.038832  0.0
H  H48  1  0.37773323  0.83884331  0.52802076  1  0.148568  1.7e-05  0.124294  0.101144  3.2e-05  0.980537  0.0
H  H49  1  0.87773396  0.16115374  0.97198291  1  0.14867  1.7e-05  0.124305  0.101058  3.2e-05  0.980692  0.0
H  H50  1  0.62226875  0.16115187  0.47198252  1  0.148637  -1.7e-05  0.124302  0.101096  -3.2e-05  0.980649  0.0
H  H51  1  0.12226994  0.83884321  0.02802185  1  0.148509  -1.7e-05  0.12429  0.101125  -3.2e-05  0.980572  0.0
H  H52  1  0.36519072  0.06542734  0.37921182  1  0.115497  3e-06  0.122603  0.093536  1.9e-05  0.964498  0.0
H  H53  1  0.86519058  0.93455892  0.12078866  1  0.115784  3e-06  0.122639  0.093588  1.9e-05  0.964535  0.0
H  H54  1  0.63481512  0.93456338  0.62078801  1  0.115583  -3e-06  0.122639  0.093578  -1.9e-05  0.964525  0.0
H  H55  1  0.13481429  0.06542823  0.87921008  1  0.115758  -3e-06  0.122633  0.093556  -1.9e-05  0.964518  0.0
C  C56  1  0.98457260  0.19896356  0.47333480  1  0.450969  -0.001247  0.05037  0.102976  -0.000194  3.928281  -0.001
C  C57  1  0.48456895  0.80103971  0.02666308  1  0.450911  -0.001246  0.050311  0.102904  -0.000193  3.928348  -0.001
C  C58  1  0.01543807  0.80104056  0.52666332  1  0.450725  0.001246  0.050408  0.103026  0.000194  3.928082  0.001
C  C59  1  0.51542820  0.19896441  0.97333504  1  0.450957  0.001247  0.050358  0.102891  0.000193  3.928344  0.001
C  C60  1  0.08852631  0.12147447  0.46842634  1  -0.000845  0.005527  -0.074699  -0.15242  0.003883  3.909321  0.004
C  C61  1  0.58852653  0.87852240  0.03157211  1  -0.000812  0.005527  -0.074631  -0.152357  0.003883  3.909283  0.004
C  C62  1  0.91148049  0.87852518  0.53157297  1  -0.00067  -0.005527  -0.074666  -0.152358  -0.003883  3.909324  -0.004
C  C63  1  0.41147448  0.12147547  0.96842665  1  -0.001  -0.005528  -0.074709  -0.152438  -0.003883  3.909272  -0.004
C  C64  1  0.18116022  0.13228338  0.42152038  1  0.002261  -0.003734  0.010543  0.110493  -0.002519  4.016527  -0.002
C  C65  1  0.68116023  0.86770995  0.07847828  1  0.000943  -0.003734  0.010499  0.110533  -0.002519  4.016472  -0.002
C  C66  1  0.81884369  0.86771092  0.57847682  1  0.002203  0.003734  0.010431  0.110411  0.002519  4.016499  0.002
C  C67  1  0.31883982  0.13228523  0.92152036  1  0.002241  0.003734  0.010552  0.110531  0.002519  4.016369  0.002
C  C68  1  0.16385065  0.22282306  0.38135439  1  -0.050283  0.006129  -0.073892  -0.160696  0.004244  3.908745  0.005
C  C69  1  0.66384463  0.77717028  0.11864290  1  -0.050111  0.006128  -0.073793  -0.16061  0.004244  3.908739  0.005
C  C70  1  0.83615712  0.77717035  0.61864185  1  -0.050081  -0.006128  -0.073754  -0.160551  -0.004244  3.908654  -0.005
C  C71  1  0.33615348  0.22282224  0.88135422  1  -0.050267  -0.006128  -0.073855  -0.160606  -0.004244  3.908987  -0.005
C  C72  1  0.05756942  0.29813806  0.38984306  1  0.490902  -0.001408  0.052096  0.107175  -0.000126  3.905476  -0.001
C  C73  1  0.55755856  0.70186237  0.11015420  1  0.490639  -0.001408  0.052153  0.10732  -0.000127  3.905269  -0.001
C  C74  1  0.94244029  0.70186070  0.61015296  1  0.49064  0.001408  0.052136  0.107311  0.000127  3.905324  0.001
C  C75  1  0.44243376  0.29813728  0.88984279  1  0.490896  0.001408  0.052091  0.10715  0.000127  3.90553  0.001
C  C76  1  0.29116936  0.05130692  0.41449891  1  0.599946  0.000296  0.079741  0.04526  0.000187  3.908288  0.0
C  C77  1  0.79117132  0.94868199  0.08550083  1  0.600893  0.000296  0.079717  0.045183  0.000187  3.90823  0.0
C  C78  1  0.70883358  0.94868469  0.58549956  1  0.599881  -0.000296  0.079767  0.045265  -0.000187  3.908253  0.0
C  C79  1  0.20883066  0.05130962  0.91449997  1  0.599819  -0.000296  0.07966  0.045197  -0.000187  3.90825  0.0
C  C80  1  0.43278088  0.82950461  0.48420530  1  0.620151  6.9e-05  0.086274  0.06354  2.1e-05  3.887223  0.0
C  C81  1  0.93278265  0.17049238  0.01579745  1  0.620189  6.9e-05  0.086327  0.063732  2.1e-05  3.887167  0.0
C  C82  1  0.56721917  0.17049145  0.51579709  1  0.620168  -6.9e-05  0.086376  0.063718  -2.1e-05  3.887335  0.0
C  C83  1  0.06721933  0.82950726  0.98420743  1  0.621171  -6.9e-05  0.086317  0.063549  -2e-05  3.887173  0.0
C  C84  1  0.53523858  0.74064302  0.47814861  1  -0.060225  -0.003281  0.010302  0.107874  -0.002218  4.00698  -0.002
C  C85  1  0.03523943  0.25935472  0.02185180  1  -0.060234  -0.003281  0.010361  0.10787  -0.002218  4.007021  -0.002
C  C86  1  0.46476436  0.25935574  0.52185205  1  -0.060262  0.003281  0.010307  0.107837  0.002218  4.007085  0.002
C  C87  1  0.96476061  0.74064491  0.97815216  1  -0.060647  0.003281  0.010304  0.107993  0.002218  4.006896  0.002
C  C88  1  0.61602139  0.72500405  0.42559695  1  -0.010522  0.006035  -0.072362  -0.150678  0.004169  3.906323  0.005
C  C89  1  0.11602492  0.27499551  0.07440346  1  -0.010551  0.006034  -0.072384  -0.150593  0.004168  3.906248  0.005
C  C90  1  0.38397672  0.27499649  0.57440334  1  -0.0105  -0.006035  -0.072304  -0.15054  -0.004169  3.906178  -0.005
C  C91  1  0.88397802  0.72500592  0.92559965  1  -0.010395  -0.006035  -0.072363  -0.150614  -0.004169  3.906205  -0.005
C  C92  1  0.70232255  0.63059045  0.42084338  1  0.511025  -0.000395  0.050923  0.109644  0.00055  3.911765  0.0
C  C93  1  0.20232129  0.36941183  0.07915521  1  0.511039  -0.000396  0.050907  0.109637  0.00055  3.911778  0.0
C  C94  1  0.29767943  0.36941189  0.57915420  1  0.51099  0.000396  0.0509  0.109619  -0.00055  3.911793  0.0
C  C95  1  0.79767682  0.63059050  0.92084562  1  0.510975  0.000396  0.050937  0.109558  -0.00055  3.911945  0.0
C  C96  1  0.63880777  0.57007710  0.51670252  1  0.49494  -0.000749  0.045538  0.091942  0.00022  3.931677  0.0
C  C97  1  0.13879995  0.42992254  0.98329641  1  0.495076  -0.000751  0.045615  0.09214  0.00022  3.931503  0.0
C  C98  1  0.36120193  0.42991987  0.48329528  1  0.494828  0.00075  0.045616  0.092155  -0.00022  3.931493  0.0
C  C99  1  0.86119236  0.57007621  0.01670472  1  0.494775  0.000749  0.045518  0.091943  -0.00022  3.931812  0.0
C  C100  1  0.55018487  0.66287823  0.52511822  1  -0.054944  0.00624  -0.078088  -0.165109  0.004331  3.90405  0.005
C  C101  1  0.05018089  0.33711870  0.97488299  1  -0.054948  0.00624  -0.078146  -0.165182  0.004332  3.904093  0.005
C  C102  1  0.44982290  0.33711874  0.47488236  1  -0.054715  -0.00624  -0.078171  -0.165255  -0.004331  3.904095  -0.005
C  C103  1  0.94981336  0.66287915  0.02512042  1  -0.05482  -0.006239  -0.078205  -0.165311  -0.004331  3.904247  -0.005
C  C104  1  0.87216026  0.37445346  0.64429028  1  -0.040432  0.006817  -0.015931  -0.02113  0.004962  3.951736  0.006
C  C105  1  0.37215603  0.62554448  0.85571018  1  -0.040527  0.006816  -0.015914  -0.021178  0.004961  3.951745  0.006
C  C106  1  0.12783688  0.62555244  0.35570978  1  -0.040649  -0.006816  -0.015979  -0.02127  -0.004961  3.951757  -0.006
C  C107  1  0.62783822  0.37444981  0.14428981  1  -0.040755  -0.006817  -0.016004  -0.02128  -0.004962  3.951805  -0.006
C  C108  1  0.74986054  0.33618961  0.66226375  1  0.033687  -0.000531  -0.073252  -0.0685  -0.000278  3.944421  0.0
C  C109  1  0.24985737  0.66381008  0.83773460  1  0.033969  -0.000531  -0.073251  -0.068426  -0.000278  3.944439  0.0
C  C110  1  0.25013951  0.66381093  0.33773468  1  0.033864  0.000531  -0.073204  -0.068267  0.000278  3.944381  0.0
C  C111  1  0.75013881  0.33618600  0.16226315  1  0.033921  0.000531  -0.073231  -0.068412  0.000278  3.944377  0.0
C  C112  1  0.72253267  0.32458101  0.72481552  1  -0.003675  -0.001763  -0.082433  -0.096326  -0.001246  3.950495  -0.001
C  C113  1  0.22253752  0.67541867  0.77518239  1  -0.003596  -0.001763  -0.082455  -0.096571  -0.001246  3.950736  -0.001
C  C114  1  0.27746061  0.67541864  0.27518286  1  -0.003516  0.001763  -0.08247  -0.09661  0.001246  3.950777  0.001
C  C115  1  0.77746639  0.32457920  0.22481498  1  -0.003638  0.001763  -0.082462  -0.096398  0.001246  3.950555  0.001
C  C116  1  0.81598729  0.34986373  0.77113064  1  0.012017  -0.00877  0.006552  -0.025744  -0.006353  3.909512  -0.007
C  C117  1  0.31599618  0.65013509  0.72886853  1  0.011979  -0.00877  0.006641  -0.025599  -0.006353  3.909383  -0.007
C  C118  1  0.18400116  0.65014128  0.22886938  1  0.012486  0.008769  0.006607  -0.02569  0.006353  3.909717  0.007
C  C119  1  0.68400869  0.34986010  0.27112965  1  0.012593  0.00877  0.0066  -0.025769  0.006353  3.909576  0.007
C  C120  1  0.93888580  0.38346959  0.75154059  1  0.141371  -0.001923  0.077847  0.037392  -0.00126  3.936988  -0.001
C  C121  1  0.43889459  0.61653016  0.74846129  1  0.141244  -0.001924  0.077836  0.037409  -0.001261  3.936987  -0.001
C  C122  1  0.06109879  0.61654434  0.24846170  1  0.140219  0.001924  0.07787  0.037209  0.00126  3.937295  0.001
C  C123  1  0.56110835  0.38346056  0.25153900  1  0.140659  0.001923  0.077882  0.037476  0.00126  3.937071  0.001
C  C124  1  0.96802547  0.39635904  0.68945218  1  0.010589  6.2e-05  -0.074313  -0.139229  -7e-06  3.942826  0.0
C  C125  1  0.46802625  0.60364251  0.81055067  1  0.010579  6.2e-05  -0.074267  -0.139145  -7e-06  3.942826  0.0
C  C126  1  0.03196781  0.60365667  0.31055065  1  0.010619  -6.2e-05  -0.074313  -0.139007  7e-06  3.942979  0.0
C  C127  1  0.53197186  0.39634910  0.18945059  1  0.010654  -6.2e-05  -0.074263  -0.139152  7e-06  3.94292  0.0
C  C128  1  0.78363832  0.33786815  0.83866206  1  1.614257  0.000897  0.195308  0.560464  -0.000474  4.285748  0.003
C  C129  1  0.28364945  0.66213781  0.66133607  1  1.614258  0.000897  0.195285  0.560428  -0.000473  4.285817  0.003
C  C130  1  0.21634917  0.66213954  0.16133715  1  1.614238  -0.000897  0.195331  0.560538  0.000473  4.285658  -0.003
C  C131  1  0.71636122  0.33786542  0.33866108  1  1.614229  -0.000897  0.195268  0.5604  0.000474  4.285872  -0.003
C  C132  1  0.90327303  0.39659188  0.57799097  1  1.584285  -0.001245  0.202825  0.565252  0.000176  4.21784  -0.003
C  C133  1  0.40326753  0.60340608  0.92200992  1  1.584387  -0.001245  0.202762  0.565217  0.000175  4.217916  -0.003
C  C134  1  0.09672991  0.60340866  0.42200838  1  1.584436  0.001245  0.202784  0.565289  -0.000175  4.217898  0.003
C  C135  1  0.59672865  0.39659000  0.07799015  1  1.584371  0.001245  0.202784  0.565321  -0.000175  4.217687  0.003
N  N136  1  0.97015071  0.28727858  0.43527257  1  -1.199991  0.087324  -0.338721  -0.214338  0.06058  3.589234  0.076
N  N137  1  0.47014008  0.71272469  0.06472486  1  -1.20013  0.087321  -0.338772  -0.214476  0.06058  3.589185  0.076
N  N138  1  0.02986092  0.71272375  0.56472501  1  -1.200143  -0.087324  -0.338804  -0.214542  -0.060583  3.589169  -0.076
N  N139  1  0.52985224  0.28727854  0.93527275  1  -1.200061  -0.087324  -0.338738  -0.214254  -0.060581  3.589252  -0.076
N  N140  1  0.29946273  0.96420705  0.44983539  1  -0.744957  -0.001597  -0.199206  -0.151754  -0.001055  3.358565  -0.001
N  N141  1  0.79947006  0.03578365  0.05016443  1  -0.745265  -0.001597  -0.199153  -0.151764  -0.001055  3.358345  -0.001
N  N142  1  0.70053635  0.03578545  0.55016406  1  -0.745342  0.001597  -0.199156  -0.151737  0.001054  3.35836  0.001
N  N143  1  0.20053192  0.96421421  0.94983898  1  -0.745408  0.001596  -0.199086  -0.151732  0.001054  3.358345  0.001
N  N144  1  0.40494238  0.89155188  0.43799648  1  -0.76439  -0.00137  -0.207665  -0.173267  -0.000885  3.339231  -0.001
N  N145  1  0.90494873  0.10843974  0.06200513  1  -0.764196  -0.001369  -0.207779  -0.17336  -0.000885  3.339017  -0.001
N  N146  1  0.59505767  0.10844330  0.56200495  1  -0.764117  0.001369  -0.207846  -0.173455  0.000885  3.339092  0.001
N  N147  1  0.09505228  0.89155721  0.93799917  1  -0.764603  0.001369  -0.207763  -0.173292  0.000885  3.339068  0.001
N  N148  1  0.71212317  0.55286348  0.46513044  1  -1.198172  0.087135  -0.338201  -0.211108  0.060425  3.552302  0.075
N  N149  1  0.21211636  0.44714059  0.03486776  1  -1.198533  0.087142  -0.338212  -0.211289  0.060428  3.552348  0.075
N  N150  1  0.28788364  0.44713797  0.53486663  1  -1.198351  -0.08714  -0.338233  -0.211316  -0.060427  3.55245  -0.075
N  N151  1  0.78787596  0.55286263  0.96513265  1  -1.198168  -0.087135  -0.338115  -0.210986  -0.060425  3.552437  -0.075
N  N152  1  0.04184372  0.41099093  0.79722949  1  0.363772  -0.000472  0.059394  0.522393  -0.000263  4.191575  0.0
N  N153  1  0.54185846  0.58901581  0.70277543  1  0.363296  -0.000472  0.059535  0.522602  -0.000263  4.191391  0.0
N  N154  1  0.95813604  0.58902388  0.20277656  1  0.364623  0.000473  0.059516  0.522708  0.000263  4.191319  0.0
N  N155  1  0.45814931  0.41098384  0.29722620  1  0.363278  0.000472  0.05945  0.522556  0.000263  4.191316  0.0
O  O156  1  0.80954316  0.37713400  0.53853149  1  -1.132651  0.10641  -0.325034  -0.552677  0.071062  2.381687  0.096
O  O157  1  0.30953459  0.62286303  0.96146853  1  -1.132824  0.106408  -0.325055  -0.552727  0.071062  2.381664  0.096
O  O158  1  0.19046365  0.62286119  0.46146715  1  -1.132745  -0.106409  -0.325021  -0.55274  -0.071063  2.381688  -0.096
O  O159  1  0.69045966  0.37713036  0.03853189  1  -1.13274  -0.106409  -0.324966  -0.552659  -0.071061  2.381704  -0.096
O  O160  1  0.01403942  0.43082487  0.56484730  1  -1.179826  0.001291  -0.320197  -0.584199  0.000423  2.334873  0.001
O  O161  1  0.51403188  0.56917562  0.93515411  1  -1.179798  0.00129  -0.320142  -0.584106  0.000422  2.335052  0.001
O  O162  1  0.98596545  0.56917746  0.43515213  1  -1.179882  -0.001289  -0.320129  -0.584167  -0.000422  2.335032  -0.001
O  O163  1  0.48596333  0.43082938  0.06484638  1  -1.179869  -0.001292  -0.32019  -0.584212  -0.000423  2.334747  -0.001
O  O164  1  0.69402160  0.41126530  0.85912304  1  -1.104344  -0.10058  -0.318564  -0.546957  -0.066961  2.385967  -0.091
O  O165  1  0.19403277  0.58873616  0.64087451  1  -1.104038  -0.100586  -0.318641  -0.547159  -0.066965  2.385975  -0.091
O  O166  1  0.30596685  0.58873614  0.14087542  1  -1.104  0.100587  -0.318674  -0.547229  0.066966  2.385841  0.091
O  O167  1  0.80597597  0.41126440  0.35912066  1  -1.10429  0.100577  -0.318599  -0.547016  0.06696  2.386144  0.091
O  O168  1  0.83978678  0.26257501  0.86816052  1  -1.172897  -0.001394  -0.334079  -0.565022  -0.000616  2.132232  -0.002
O  O169  1  0.33979132  0.73743541  0.63184334  1  -1.173123  -0.001393  -0.334002  -0.564887  -0.000615  2.132356  -0.002
O  O170  1  0.16020844  0.73743445  0.13184342  1  -1.173146  0.001392  -0.333993  -0.564866  0.000615  2.132388  0.002
O  O171  1  0.66021548  0.26257137  0.36816048  1  -1.172926  0.001395  -0.334032  -0.56495  0.000616  2.132183  0.002
O  O172  1  0.01244141  0.46732217  0.84742135  1  -0.466688  -0.000239  -0.113227  -0.321868  -0.000137  1.977888  0.0
O  O173  1  0.51245827  0.53269082  0.65258063  1  -0.46641  -0.00024  -0.113389  -0.322043  -0.000138  1.977726  0.0
O  O174  1  0.98753932  0.53269711  0.15258304  1  -0.467729  0.00024  -0.113369  -0.322015  0.000138  1.977666  0.0
O  O175  1  0.48755337  0.46731330  0.34741934  1  -0.466563  0.00024  -0.113359  -0.322099  0.000137  1.977882  0.0
O  O176  1  0.15317312  0.37783885  0.78266455  1  -0.467826  -0.000853  -0.134103  -0.34277  -0.000553  1.905929  -0.001
O  O177  1  0.65318685  0.62216792  0.71734305  1  -0.467546  -0.000854  -0.134059  -0.342786  -0.000554  1.905739  -0.001
O  O178  1  0.84680471  0.62216970  0.21734493  1  -0.467096  0.000854  -0.134099  -0.342854  0.000554  1.905671  0.001
O  O179  1  0.34681899  0.37783618  0.28266018  1  -0.467309  0.000853  -0.134036  -0.342733  0.000553  1.905639  0.001
