# generated using pymatgen
data_LiH7(C4O)3
_symmetry_space_group_name_H-M   'P 1'
_cell_length_a   4.88220995
_cell_length_b   12.28731501
_cell_length_c   15.00170124
_cell_angle_alpha   99.69510328
_cell_angle_beta   90.00073271
_cell_angle_gamma   90.00006547
_symmetry_Int_Tables_number   1
_chemical_formula_structural   LiH7(C4O)3
_chemical_formula_sum   'Li4 H28 C48 O12'
_cell_volume   887.08775330
_cell_formula_units_Z   4
loop_
 _symmetry_equiv_pos_site_id
 _symmetry_equiv_pos_as_xyz
  1  'x, y, z'
loop_
 _atom_site_type_symbol
 _atom_site_label
 _atom_site_symmetry_multiplicity
 _atom_site_fract_x
 _atom_site_fract_y
 _atom_site_fract_z
 _atom_site_occupancy
 _atom_site_hle17_bader_spin_density
 _atom_site_hle17_ddec_charge
 _atom_site_hle17_ddec_spin_density
 _atom_site_hle17_ddec_sum_bond_order
 _atom_site_hle17_magmom
 _atom_site_hse06_10hf_bader_spin_density
 _atom_site_hse06_10hf_ddec_charge
 _atom_site_hse06_10hf_ddec_spin_density
 _atom_site_hse06_10hf_ddec_sum_bond_order
 _atom_site_hse06_10hf_magmom
 _atom_site_hse06_bader_spin_density
 _atom_site_hse06_ddec_charge
 _atom_site_hse06_ddec_spin_density
 _atom_site_hse06_ddec_sum_bond_order
 _atom_site_hse06_magmom
 _atom_site_pbe_bader_spin_density
 _atom_site_pbe_cm5_charge
 _atom_site_pbe_ddec_charge
 _atom_site_pbe_ddec_spin_density
 _atom_site_pbe_ddec_sum_bond_order
 _atom_site_pbe_magmom
Li  Li0  1  0.92193483  0.82870460  0.49755724  1  0  0.856462  0  0.401718  0  0  0.817305  0  0.507463  0  0  0.826947  0  0.490477  0  0  0.520911  0.810322  0  0.51964  0
Li  Li1  1  0.42194383  0.67129329  0.50243825  1  0  0.856463  0  0.401703  0  0  0.817303  0  0.50746  0  0  0.826946  0  0.490472  0  0  0.520922  0.810323  0  0.519641  0
Li  Li2  1  0.07806373  0.17129724  0.50243923  1  0  0.856467  0  0.401709  0  0  0.817311  0  0.507461  0  0  0.826955  0  0.490472  0  0  0.520917  0.810325  0  0.519641  0
Li  Li3  1  0.57806906  0.32870769  0.49756209  1  0  0.856485  0  0.401725  0  0  0.817313  0  0.507493  0  0  0.826958  0  0.490504  0  0  0.520931  0.810335  0  0.51967  0
H  H4  1  0.96852163  0.28137452  0.70948942  1  0  0.10358  0  0.950431  0  0  0.111788  0  1.014819  0  0  0.114975  0  1.012953  0  0  0.114077  0.109449  0  1.016255  0
H  H5  1  0.46852596  0.21863164  0.29051624  1  0  0.103559  0  0.950441  0  0  0.111777  0  1.014834  0  0  0.114964  0  1.012967  0  0  0.114089  0.109443  0  1.016263  0
H  H6  1  0.03147078  0.71863141  0.29051230  1  0  0.103536  0  0.950484  0  0  0.111753  0  1.014879  0  0  0.114939  0  1.013009  0  0  0.114057  0.109413  0  1.016315  0
H  H7  1  0.53148898  0.78136604  0.70948296  1  0  0.103487  0  0.950552  0  0  0.111682  0  1.014969  0  0  0.114866  0  1.013107  0  0  0.114024  0.109343  0  1.0164  0
H  H8  1  0.05114350  0.30881594  0.87531200  1  0  0.077342  0  0.983648  0  0  0.088108  0  1.049087  0  0  0.090191  0  1.04943  0  0  0.093319  0.086615  0  1.048931  0
H  H9  1  0.55114687  0.19118398  0.12469183  1  0  0.077383  0  0.983637  0  0  0.088141  0  1.049075  0  0  0.090224  0  1.049418  0  0  0.093324  0.086654  0  1.048915  0
H  H10  1  0.94884481  0.69118173  0.12468920  1  0  0.077428  0  0.983525  0  0  0.088164  0  1.049013  0  0  0.090246  0  1.049357  0  0  0.093321  0.086677  0  1.048849  0
H  H11  1  0.44886807  0.80881455  0.87530549  1  0  0.077431  0  0.983659  0  0  0.088191  0  1.049077  0  0  0.090273  0  1.049421  0  0  0.093357  0.086699  0  1.048918  0
H  H12  1  0.75417331  0.21196435  0.97268325  1  0  0.085497  0  0.963612  0  0  0.097551  0  1.027498  0  0  0.099992  0  1.026603  0  0  0.097957  0.095744  0  1.028221  0
H  H13  1  0.25416064  0.28803085  0.02731935  1  0  0.085501  0  0.963755  0  0  0.097567  0  1.027615  0  0  0.100012  0  1.026726  0  0  0.097981  0.095772  0  1.028312  0
H  H14  1  0.24581705  0.78803334  0.02731529  1  0  0.085587  0  0.963509  0  0  0.097667  0  1.027362  0  0  0.100111  0  1.026471  0  0  0.097976  0.095861  0  1.028084  0
H  H15  1  0.74582767  0.71196432  0.97268349  1  0  0.085444  0  0.963696  0  0  0.097546  0  1.027543  0  0  0.099988  0  1.026651  0  0  0.097967  0.095743  0  1.028243  0
H  H16  1  0.39465998  0.08374442  0.98909396  1  0  0.082363  0  0.981792  0  0  0.093023  0  1.049775  0  0  0.095395  0  1.049057  0  0  0.096701  0.091262  0  1.050429  0
H  H17  1  0.89464509  0.41624849  0.01090551  1  0  0.082353  0  0.981771  0  0  0.092968  0  1.049812  0  0  0.095343  0  1.049086  0  0  0.096682  0.091212  0  1.050456  0
H  H18  1  0.60532833  0.91625164  0.01090167  1  0  0.082283  0  0.981867  0  0  0.092979  0  1.049819  0  0  0.095358  0  1.049079  0  0  0.096658  0.09122  0  1.050467  0
H  H19  1  0.10533298  0.58374008  0.98909571  1  0  0.082365  0  0.981824  0  0  0.093054  0  1.049748  0  0  0.095425  0  1.049028  0  0  0.096708  0.091298  0  1.050392  0
H  H20  1  0.03349189  0.95054463  0.92289682  1  0  0.084992  0  0.958871  0  0  0.098224  0  1.018527  0  0  0.100284  0  1.018699  0  0  0.098209  0.096646  0  1.01864  0
H  H21  1  0.53349473  0.54945529  0.07709947  1  0  0.085013  0  0.958906  0  0  0.098222  0  1.018582  0  0  0.100292  0  1.018745  0  0  0.098218  0.096649  0  1.018687  0
H  H22  1  0.96649847  0.04945062  0.07709803  1  0  0.085058  0  0.959022  0  0  0.098274  0  1.018675  0  0  0.100347  0  1.018836  0  0  0.098249  0.096702  0  1.018779  0
H  H23  1  0.46650792  0.45054649  0.92290299  1  0  0.085074  0  0.95895  0  0  0.098248  0  1.018652  0  0  0.100353  0  1.018779  0  0  0.098244  0.096675  0  1.018755  0
H  H24  1  0.97889415  0.90800408  0.75529749  1  0  0.097139  0  0.967939  0  0  0.104996  0  1.033534  0  0  0.10748  0  1.033539  0  0  0.104733  0.103181  0  1.033586  0
H  H25  1  0.47890423  0.59199882  0.24470027  1  0  0.097126  0  0.967956  0  0  0.105011  0  1.033485  0  0  0.107498  0  1.033486  0  0  0.104749  0.103192  0  1.033542  0
H  H26  1  0.02110441  0.09199447  0.24469783  1  0  0.097116  0  0.967935  0  0  0.105014  0  1.033469  0  0  0.107501  0  1.03347  0  0  0.10476  0.103185  0  1.033537  0
H  H27  1  0.52111890  0.40800793  0.75530290  1  0  0.097132  0  0.967864  0  0  0.105003  0  1.033425  0  0  0.10749  0  1.033425  0  0  0.104759  0.103175  0  1.033497  0
H  H28  1  0.45329273  0.95291432  0.59160390  1  0  0.048079  0  0.915626  0  0  0.05255  0  0.985577  0  0  0.055803  0  0.97935  0  0  0.129225  0.049955  0  0.990343  0
H  H29  1  0.95329523  0.54709263  0.40839967  1  0  0.048074  0  0.915487  0  0  0.052483  0  0.985487  0  0  0.055733  0  0.979275  0  0  0.129218  0.049963  0  0.990175  0
H  H30  1  0.54669148  0.04709659  0.40839587  1  0  0.048089  0  0.915435  0  0  0.052476  0  0.985479  0  0  0.055725  0  0.979263  0  0  0.129175  0.049973  0  0.990149  0
H  H31  1  0.04670333  0.45290585  0.59160364  1  0  0.048135  0  0.915464  0  0  0.052514  0  0.98546  0  0  0.055769  0  0.979236  0  0  0.129211  0.050008  0  0.990136  0
C  C32  1  0.64859868  0.16396703  0.71050131  1  0  -0.10844  0  3.678361  0  0  -0.09324  0  3.916601  0  0  -0.102007  0  3.938487  0  0  -0.005787  -0.087643  0  3.901964  0
C  C33  1  0.14859523  0.33603795  0.28950362  1  0  -0.108505  0  3.678416  0  0  -0.093261  0  3.916639  0  0  -0.102031  0  3.938524  0  0  -0.005696  -0.087658  0  3.902003  0
C  C34  1  0.35138759  0.83603643  0.28949872  1  0  -0.108395  0  3.678238  0  0  -0.093176  0  3.916528  0  0  -0.101945  0  3.938411  0  0  -0.005716  -0.087578  0  3.901901  0
C  C35  1  0.85141766  0.66395975  0.71049425  1  0  -0.108564  0  3.6783  0  0  -0.093306  0  3.916513  0  0  -0.102076  0  3.938399  0  0  -0.005692  -0.087704  0  3.901874  0
C  C36  1  0.84963979  0.23498986  0.75177826  1  0  -0.041202  0  3.709478  0  0  -0.067365  0  3.962255  0  0  -0.064901  0  3.980408  0  0  -0.069899  -0.068806  0  3.949861  0
C  C37  1  0.34964662  0.26501124  0.24822488  1  0  -0.041065  0  3.70968  0  0  -0.067263  0  3.962459  0  0  -0.064799  0  3.980617  0  0  -0.069921  -0.068702  0  3.950059  0
C  C38  1  0.15034033  0.76501193  0.24822486  1  0  -0.041044  0  3.709513  0  0  -0.067213  0  3.962263  0  0  -0.064745  0  3.980416  0  0  -0.069879  -0.068648  0  3.949864  0
C  C39  1  0.65035604  0.73498971  0.75177879  1  0  -0.04092  0  3.709535  0  0  -0.067095  0  3.962301  0  0  -0.06463  0  3.980454  0  0  -0.069806  -0.06854  0  3.949902  0
C  C40  1  0.89261006  0.25148722  0.84582157  1  0  -0.07322  0  3.794364  0  0  -0.088279  0  4.048693  0  0  -0.092087  0  4.07127  0  0  -0.09334  -0.085776  0  4.033151  0
C  C41  1  0.39260875  0.24851884  0.15418579  1  0  -0.073347  0  3.794514  0  0  -0.0884  0  4.04887  0  0  -0.092209  0  4.071452  0  0  -0.093343  -0.085905  0  4.03333  0
C  C42  1  0.10737825  0.74851539  0.15418168  1  0  -0.073446  0  3.794445  0  0  -0.088517  0  4.04882  0  0  -0.092327  0  4.071403  0  0  -0.093376  -0.086016  0  4.033271  0
C  C43  1  0.60738776  0.75148133  0.84581243  1  0  -0.073464  0  3.794688  0  0  -0.088529  0  4.049072  0  0  -0.092341  0  4.071653  0  0  -0.093427  -0.086022  0  4.033516  0
C  C44  1  0.72938582  0.19758798  0.89927524  1  0  -0.109576  0  3.753871  0  0  -0.127881  0  3.999503  0  0  -0.128905  0  4.020581  0  0  -0.087191  -0.126715  0  3.984872  0
C  C45  1  0.22937017  0.30241384  0.10072421  1  0  -0.10964  0  3.754206  0  0  -0.127991  0  3.999812  0  0  -0.129021  0  4.020896  0  0  -0.087324  -0.126812  0  3.985172  0
C  C46  1  0.27059635  0.80241550  0.10072413  1  0  -0.109596  0  3.753825  0  0  -0.127926  0  3.999402  0  0  -0.128956  0  4.020489  0  0  -0.087181  -0.126755  0  3.984758  0
C  C47  1  0.77061814  0.69757975  0.89927106  1  0  -0.109589  0  3.754124  0  0  -0.127958  0  3.999749  0  0  -0.128982  0  4.020832  0  0  -0.087335  -0.126777  0  3.985101  0
C  C48  1  0.52756231  0.12114234  0.86016616  1  0  0.048602  0  3.794798  0  0  0.067129  0  4.020118  0  0  0.065088  0  4.045475  0  0  -0.009931  0.068286  0  4.00262  0
C  C49  1  0.02756500  0.37885514  0.13983056  1  0  0.048676  0  3.794785  0  0  0.067274  0  4.02  0  0  0.065233  0  4.045358  0  0  -0.009822  0.068425  0  4.002507  0
C  C50  1  0.47243830  0.87885951  0.13982964  1  0  0.048593  0  3.794602  0  0  0.06718  0  4.019858  0  0  0.065139  0  4.045217  0  0  -0.009839  0.068338  0  4.002357  0
C  C51  1  0.97244790  0.62113837  0.86017337  1  0  0.048814  0  3.794717  0  0  0.067387  0  4.019989  0  0  0.065347  0  4.045343  0  0  -0.009677  0.068535  0  4.002503  0
C  C52  1  0.36187202  0.06589379  0.91619888  1  0  -0.116398  0  3.758553  0  0  -0.139129  0  4.009625  0  0  -0.14029  0  4.030026  0  0  -0.091682  -0.137998  0  3.995642  0
C  C53  1  0.86186438  0.43410737  0.08379832  1  0  -0.116376  0  3.758376  0  0  -0.139092  0  4.009421  0  0  -0.140248  0  4.029822  0  0  -0.091682  -0.137958  0  3.995435  0
C  C54  1  0.63812448  0.93411138  0.08379540  1  0  -0.116352  0  3.758443  0  0  -0.13914  0  4.009498  0  0  -0.140295  0  4.029902  0  0  -0.091688  -0.138003  0  3.995505  0
C  C55  1  0.13813622  0.56589111  0.91620499  1  0  -0.116511  0  3.75856  0  0  -0.139268  0  4.00961  0  0  -0.140426  0  4.030021  0  0  -0.091744  -0.138139  0  3.995633  0
C  C56  1  0.16299185  0.99214679  0.87979622  1  0  -0.077435  0  3.811525  0  0  -0.089751  0  4.064361  0  0  -0.092535  0  4.085433  0  0  -0.095792  -0.087961  0  4.050007  0
C  C57  1  0.66299429  0.50785571  0.12020493  1  0  -0.077452  0  3.81154  0  0  -0.089736  0  4.064328  0  0  -0.092531  0  4.085397  0  0  -0.095781  -0.087945  0  4.04997  0
C  C58  1  0.83700671  0.00785668  0.12020248  1  0  -0.077557  0  3.811696  0  0  -0.089863  0  4.064556  0  0  -0.092659  0  4.085628  0  0  -0.095843  -0.088071  0  4.050198  0
C  C59  1  0.33700836  0.49214275  0.87979905  1  0  -0.077572  0  3.811766  0  0  -0.089859  0  4.064606  0  0  -0.092685  0  4.085669  0  0  -0.095889  -0.088065  0  4.050252  0
C  C60  1  0.12956846  0.96865075  0.78537839  1  0  -0.062661  0  3.714693  0  0  -0.087312  0  3.96168  0  0  -0.087003  0  3.982283  0  0  -0.075074  -0.087217  0  3.947379  0
C  C61  1  0.62957295  0.53134592  0.21462313  1  0  -0.062684  0  3.714815  0  0  -0.087265  0  3.961832  0  0  -0.086956  0  3.982436  0  0  -0.075048  -0.087172  0  3.947545  0
C  C62  1  0.87042190  0.03134695  0.21461881  1  0  -0.062535  0  3.714775  0  0  -0.087241  0  3.961742  0  0  -0.086933  0  3.982349  0  0  -0.075098  -0.087139  0  3.94746  0
C  C63  1  0.37043380  0.46865500  0.78538320  1  0  -0.062629  0  3.714953  0  0  -0.087226  0  3.961928  0  0  -0.086917  0  3.982541  0  0  -0.075055  -0.087126  0  3.94765  0
C  C64  1  0.29131588  0.01883261  0.72787456  1  0  -0.045551  0  3.725254  0  0  -0.026843  0  3.959797  0  0  -0.033731  0  3.982499  0  0  -0.007788  -0.022249  0  3.944367  0
C  C65  1  0.79131434  0.48117173  0.27212750  1  0  -0.045335  0  3.72527  0  0  -0.026856  0  3.960096  0  0  -0.033743  0  3.982795  0  0  -0.007816  -0.022273  0  3.944698  0
C  C66  1  0.70867243  0.98116841  0.27212112  1  0  -0.045572  0  3.725637  0  0  -0.026785  0  3.960081  0  0  -0.033672  0  3.982783  0  0  -0.007744  -0.022197  0  3.944686  0
C  C67  1  0.20869650  0.51882428  0.72787479  1  0  -0.045276  0  3.725456  0  0  -0.026745  0  3.960111  0  0  -0.033635  0  3.982811  0  0  -0.007693  -0.022158  0  3.944712  0
C  C68  1  0.49025949  0.10019112  0.76361251  1  0  0.040158  0  3.686934  0  0  0.041401  0  3.9103  0  0  0.043557  0  3.934948  0  0  0.01305  0.03999  0  3.893447  0
C  C69  1  0.99026022  0.39981427  0.23639045  1  0  0.040084  0  3.686692  0  0  0.041375  0  3.910068  0  0  0.043532  0  3.934713  0  0  0.013068  0.039964  0  3.893226  0
C  C70  1  0.50973701  0.89981313  0.23639296  1  0  0.040143  0  3.686943  0  0  0.041338  0  3.910299  0  0  0.043497  0  3.934946  0  0  0.013011  0.039921  0  3.893462  0
C  C71  1  0.00974039  0.60018671  0.76360989  1  0  0.040174  0  3.686462  0  0  0.041414  0  3.909871  0  0  0.043571  0  3.934519  0  0  0.013009  0.040003  0  3.893026  0
C  C72  1  0.57997814  0.17171638  0.61408610  1  0  0.700633  0  3.884631  0  0  0.652947  0  4.178701  0  0  0.686774  0  4.170589  0  0  0.241213  0.629991  0  4.183353  0
C  C73  1  0.07998489  0.32828775  0.38591311  1  0  0.700577  0  3.884726  0  0  0.65284  0  4.178858  0  0  0.686669  0  4.170743  0  0  0.241158  0.629868  0  4.183521  0
C  C74  1  0.42001632  0.82828713  0.38590927  1  0  0.700686  0  3.884548  0  0  0.6529  0  4.178769  0  0  0.68673  0  4.170652  0  0  0.241135  0.629935  0  4.183428  0
C  C75  1  0.92003825  0.67171239  0.61408911  1  0  0.700728  0  3.884559  0  0  0.652989  0  4.178697  0  0  0.686812  0  4.170585  0  0  0.241199  0.630027  0  4.183363  0
C  C76  1  0.26173894  0.97337903  0.63013818  1  0  0.401662  0  3.653875  0  0  0.350749  0  3.938163  0  0  0.376755  0  3.931528  0  0  0.124425  0.332773  0  3.942975  0
C  C77  1  0.76173153  0.52661950  0.36985745  1  0  0.401633  0  3.653916  0  0  0.35083  0  3.938259  0  0  0.376834  0  3.931621  0  0  0.124395  0.33282  0  3.943071  0
C  C78  1  0.73825961  0.02662116  0.36985738  1  0  0.40168  0  3.653754  0  0  0.350787  0  3.938081  0  0  0.376793  0  3.931445  0  0  0.124432  0.332757  0  3.942896  0
C  C79  1  0.23828545  0.47338059  0.63015009  1  0  0.401379  0  3.65441  0  0  0.350739  0  3.938413  0  0  0.376744  0  3.931777  0  0  0.124329  0.332713  0  3.943232  0
O  O80  1  0.74437619  0.22155431  0.56875761  1  0  -0.780239  0  1.985032  0  0  -0.738942  0  2.236017  0  0  -0.7597  0  2.220217  0  0  -0.424038  -0.724206  0  2.246301  0
O  O81  1  0.24437851  0.27845246  0.43124395  1  0  -0.780111  0  1.985101  0  0  -0.738796  0  2.236095  0  0  -0.759554  0  2.220294  0  0  -0.42403  -0.724096  0  2.246479  0
O  O82  1  0.25562851  0.77844914  0.43124375  1  0  -0.780226  0  1.984994  0  0  -0.738914  0  2.236027  0  0  -0.759673  0  2.220228  0  0  -0.424034  -0.72421  0  2.246395  0
O  O83  1  0.75565281  0.72154275  0.56875490  1  0  -0.780247  0  1.985029  0  0  -0.738935  0  2.236033  0  0  -0.759689  0  2.22023  0  0  -0.42405  -0.724198  0  2.246322  0
O  O84  1  0.34745978  0.13526502  0.58423698  1  0  -0.675707  0  1.985071  0  0  -0.622372  0  2.223812  0  0  -0.650815  0  2.215994  0  0  -0.344487  -0.601941  0  2.228238  0
O  O85  1  0.84745975  0.36474272  0.41576177  1  0  -0.675762  0  1.984892  0  0  -0.622411  0  2.22367  0  0  -0.650857  0  2.21585  0  0  -0.344485  -0.60198  0  2.22812  0
O  O86  1  0.65253468  0.86474423  0.41576255  1  0  -0.675791  0  1.984915  0  0  -0.622374  0  2.223661  0  0  -0.650819  0  2.21584  0  0  -0.344453  -0.601941  0  2.228102  0
O  O87  1  0.15255314  0.63525990  0.58423947  1  0  -0.675756  0  1.984827  0  0  -0.622439  0  2.22361  0  0  -0.650882  0  2.215788  0  0  -0.344522  -0.602017  0  2.228061  0
O  O88  1  0.03788874  0.93914923  0.59769948  1  0  -0.536081  0  1.999596  0  0  -0.494646  0  2.237936  0  0  -0.51126  0  2.229231  0  0  -0.328833  -0.483708  0  2.244047  0
O  O89  1  0.53788284  0.56084736  0.40230034  1  0  -0.536164  0  1.999665  0  0  -0.494695  0  2.237896  0  0  -0.511311  0  2.22919  0  0  -0.328844  -0.483754  0  2.244029  0
O  O90  1  0.96210777  0.06085508  0.40229800  1  0  -0.536137  0  1.999495  0  0  -0.494695  0  2.237812  0  0  -0.511309  0  2.229105  0  0  -0.328837  -0.48376  0  2.243974  0
O  O91  1  0.46212186  0.43914204  0.59770100  1  0  -0.536135  0  1.999823  0  0  -0.494751  0  2.238012  0  0  -0.51137  0  2.229304  0  0  -0.328839  -0.483822  0  2.244179  0
