# generated using pymatgen
data_CuH8C6O5
_symmetry_space_group_name_H-M   'P 1'
_cell_length_a   5.49039969
_cell_length_b   7.06021385
_cell_length_c   18.21418664
_cell_angle_alpha   89.99992805
_cell_angle_beta   89.99912674
_cell_angle_gamma   90.00000989
_symmetry_Int_Tables_number   1
_chemical_formula_structural   CuH8C6O5
_chemical_formula_sum   'Cu4 H32 C24 O20'
_cell_volume   706.04372842
_cell_formula_units_Z   4
loop_
 _symmetry_equiv_pos_site_id
 _symmetry_equiv_pos_as_xyz
  1  'x, y, z'
loop_
 _atom_site_type_symbol
 _atom_site_label
 _atom_site_symmetry_multiplicity
 _atom_site_fract_x
 _atom_site_fract_y
 _atom_site_fract_z
 _atom_site_occupancy
 _atom_site_hle17_ddec_charge
 _atom_site_hle17_ddec_spin_density
 _atom_site_hle17_ddec_sum_bond_order
 _atom_site_hle17_magmom
 _atom_site_hse06_10hf_ddec_charge
 _atom_site_hse06_10hf_ddec_spin_density
 _atom_site_hse06_10hf_ddec_sum_bond_order
 _atom_site_hse06_10hf_magmom
 _atom_site_hse06_ddec_charge
 _atom_site_hse06_ddec_spin_density
 _atom_site_hse06_ddec_sum_bond_order
 _atom_site_hse06_magmom
 _atom_site_pbe_cm5_charge
 _atom_site_pbe_ddec_charge
 _atom_site_pbe_ddec_spin_density
 _atom_site_pbe_ddec_sum_bond_order
 _atom_site_pbe_magmom
Cu  Cu0  1  0.83413746  0.75000323  0.80133225  1  1.011979  -0.707638  1.633504  -0.523  1.01882  -0.803209  2.0099  -0.649  1.104945  -0.872079  1.952031  -0.737  0.724799  0.956173  -0.752965  2.06353  -0.591
Cu  Cu1  1  0.33415061  0.24999997  0.69865443  1  1.011687  -0.707621  1.633823  -0.523  1.018592  -0.803175  2.010075  -0.649  1.104657  -0.872051  1.952328  -0.737  0.724842  0.956067  -0.75294  2.063573  -0.591
Cu  Cu2  1  0.16600014  0.24999501  0.19864574  1  1.014482  -0.707164  1.633449  -0.524  1.020414  -0.803049  2.010316  -0.65  1.106143  -0.872931  1.952572  -0.738  0.725735  0.957618  -0.746414  2.063622  -0.587
Cu  Cu3  1  0.66599426  0.74999544  0.30136473  1  1.014464  0.755564  1.633292  0.524  1.020383  0.844547  2.010222  0.65  1.106125  0.931497  1.952486  0.738  0.725767  0.957423  0.774448  2.06378  0.587
H  H4  1  0.34485079  0.75000863  0.88392140  1  0.42749  0.000372  0.844966  0.0  0.404678  0.000257  0.909193  0.0  0.414442  0.000219  0.89497  0.0  0.303856  0.397755  0.000274  0.919273  0.0
H  H5  1  0.84488927  0.25002291  0.61606962  1  0.427472  0.000365  0.844798  0.0  0.404542  0.000249  0.909388  0.0  0.414309  0.000214  0.895159  0.0  0.30379  0.397616  0.000263  0.919476  0.0
H  H6  1  0.65519938  0.25003919  0.11602914  1  0.427171  0.000188  0.845541  0.0  0.404465  0.000143  0.909399  0.0  0.414219  0.000139  0.895192  0.0  0.303661  0.397519  0.000135  0.919504  0.0
H  H7  1  0.15518093  0.75001782  0.38397426  1  0.427139  -0.000167  0.84546  0.0  0.404451  -0.000127  0.909393  0.0  0.414207  -0.000125  0.895182  0.0  0.303641  0.397503  -0.000117  0.9195  0.0
H  H8  1  0.13436220  0.75000564  0.94131405  1  0.401853  2.6e-05  0.873319  0.0  0.380502  4.6e-05  0.943442  0.0  0.388636  3.1e-05  0.9314  0.0  0.303897  0.374556  5.7e-05  0.952237  0.0
H  H9  1  0.63439212  0.25000735  0.55868305  1  0.401798  -3e-06  0.873337  0.0  0.38044  1.7e-05  0.943542  0.0  0.388574  1.1e-05  0.931499  0.0  0.303859  0.374501  1.9e-05  0.952325  0.0
H  H10  1  0.86558233  0.25002093  0.05860739  1  0.402321  4.1e-05  0.872543  0.0  0.38073  6.5e-05  0.943193  0.0  0.388865  4.3e-05  0.931162  0.0  0.303825  0.374767  8.2e-05  0.952  0.0
H  H11  1  0.36555969  0.75001072  0.44139431  1  0.402349  7e-06  0.872617  0.0  0.380724  -1.7e-05  0.943231  0.0  0.38886  -9e-06  0.931199  0.0  0.303846  0.374759  -2.3e-05  0.952039  0.0
H  H12  1  0.08878639  0.12352474  0.85620211  1  0.101379  -0.000281  0.971421  -0.001  0.10931  -0.000135  1.045525  0.0  0.111493  -2.1e-05  1.044105  0.0  0.091825  0.107895  -0.000261  1.046231  -0.001
H  H13  1  0.58881245  0.87648115  0.64378975  1  0.101363  -0.000275  0.971499  -0.001  0.10929  -0.000129  1.045622  0.0  0.111475  -1.8e-05  1.044201  0.0  0.091816  0.107872  -0.000253  1.046337  -0.001
H  H14  1  0.91122742  0.62351658  0.14376167  1  0.101429  -0.000187  0.971375  0.0  0.109268  -0.000161  1.045533  0.0  0.11146  -8.8e-05  1.044117  0.0  0.091818  0.107802  -0.000228  1.046299  0.0
H  H15  1  0.41120850  0.37648393  0.35625296  1  0.101588  0.000198  0.971338  0.0  0.109447  0.000166  1.045449  0.0  0.11164  9.3e-05  1.044027  0.0  0.091907  0.10798  0.000232  1.046204  0.0
H  H16  1  0.91122189  0.87648342  0.14376106  1  0.101456  -0.000188  0.971378  0.0  0.109305  -0.000161  1.045508  0.0  0.111498  -8.9e-05  1.04409  0.0  0.091838  0.107834  -0.000228  1.046274  0.0
H  H17  1  0.41121222  0.12351426  0.35625138  1  0.101554  0.000197  0.971371  0.0  0.109422  0.000166  1.045482  0.0  0.111615  9.3e-05  1.044059  0.0  0.091894  0.107951  0.000232  1.046249  0.0
H  H18  1  0.08878996  0.37648591  0.85620369  1  0.101387  -0.000277  0.97136  -0.001  0.109299  -0.000135  1.045512  0.0  0.111477  -2.1e-05  1.044103  0.0  0.091817  0.107883  -0.000261  1.046225  -0.001
H  H19  1  0.58881252  0.62351856  0.64379146  1  0.10135  -0.000274  0.971491  -0.001  0.109285  -0.000129  1.045612  0.0  0.111471  -1.8e-05  1.044187  0.0  0.091799  0.107865  -0.000252  1.04632  -0.001
H  H20  1  0.15323787  0.37650556  0.99039232  1  0.062724  -2e-06  0.961115  0.0  0.079424  1.3e-05  1.025338  0.0  0.080472  1.8e-05  1.025056  0.0  0.08621  0.078514  1e-06  1.02585  0.0
H  H21  1  0.65325504  0.62349329  0.50959809  1  0.062825  -4.5e-05  0.961033  0.0  0.079487  -3.5e-05  1.025253  0.0  0.080562  -2.2e-05  1.024938  0.0  0.086186  0.078572  -5.3e-05  1.025764  0.0
H  H22  1  0.84676305  0.87650627  0.00957572  1  0.062672  -6e-06  0.961028  0.0  0.079366  -1.2e-05  1.025263  0.0  0.080424  -5e-06  1.024961  0.0  0.086139  0.078464  -1.8e-05  1.02577  0.0
H  H23  1  0.34672598  0.12348996  0.49043871  1  0.062783  -4.5e-05  0.960902  0.0  0.079351  -4.1e-05  1.0253  0.0  0.080446  -1.8e-05  1.024965  0.0  0.086078  0.078459  -7.1e-05  1.025806  0.0
H  H24  1  0.84676312  0.62349835  0.00957414  1  0.062669  -6e-06  0.961096  0.0  0.079365  -1.2e-05  1.025322  0.0  0.080423  -5e-06  1.02502  0.0  0.08614  0.078462  -1.8e-05  1.025835  0.0
H  H25  1  0.34672955  0.37649504  0.49043920  1  0.062757  -4.4e-05  0.961076  0.0  0.079394  -4.1e-05  1.025389  0.0  0.080494  -1.8e-05  1.025046  0.0  0.086095  0.078485  -7.1e-05  1.025907  0.0
H  H26  1  0.15323430  0.12350047  0.99039349  1  0.062736  -1e-06  0.961098  0.0  0.079431  1.3e-05  1.025328  0.0  0.080479  1.8e-05  1.025048  0.0  0.086193  0.07852  1e-06  1.025839  0.0
H  H27  1  0.65325497  0.87649979  0.50959802  1  0.06278  -4.7e-05  0.961046  0.0  0.079458  -3.5e-05  1.025256  0.0  0.08052  -2.2e-05  1.024956  0.0  0.086177  0.078537  -5.3e-05  1.025785  0.0
H  H28  1  0.59511878  0.12294400  0.96920825  1  0.08092  -0.000578  0.971145  -0.001  0.09564  -0.000395  1.036089  0.0  0.096985  -0.000223  1.035797  0.0  0.091885  0.09458  -0.000577  1.036568  -0.001
H  H29  1  0.09513670  0.87706048  0.53077809  1  0.080815  -0.000584  0.971014  -0.001  0.095503  -0.0004  1.035963  0.0  0.096855  -0.000225  1.035657  0.0  0.0918  0.094432  -0.000583  1.036456  -0.001
H  H30  1  0.40487136  0.62294013  0.03076102  1  0.080736  0.00014  0.970886  0.001  0.095443  -1e-05  1.035824  0.0  0.096801  -4.2e-05  1.035519  0.0  0.091773  0.094323  4.5e-05  1.036338  0.001
H  H31  1  0.90484236  0.37706180  0.46924760  1  0.080633  -9.9e-05  0.970857  -0.001  0.095354  3.5e-05  1.03581  0.0  0.09672  6e-05  1.035493  0.0  0.091726  0.094227  -2.1e-05  1.036326  -0.001
H  H32  1  0.40487311  0.87706133  0.03076260  1  0.080727  0.00014  0.970924  0.001  0.095435  -1e-05  1.035861  0.0  0.096793  -4.2e-05  1.035554  0.0  0.091774  0.094314  4.5e-05  1.03637  0.001
H  H33  1  0.90483697  0.12293777  0.46924932  1  0.080632  -9.8e-05  0.970913  -0.001  0.095331  3.5e-05  1.035882  0.0  0.096688  6e-05  1.035577  0.0  0.091709  0.094244  -2.1e-05  1.036358  -0.001
H  H34  1  0.59511689  0.37706378  0.96920709  1  0.080918  -0.000579  0.971094  -0.001  0.095636  -0.000395  1.036051  0.0  0.096985  -0.000223  1.035751  0.0  0.091887  0.094571  -0.000577  1.036537  -0.001
H  H35  1  0.09514041  0.62293928  0.53077870  1  0.080844  -0.000583  0.971031  -0.001  0.095546  -0.0004  1.035963  0.0  0.096898  -0.000225  1.035658  0.0  0.091818  0.094464  -0.000583  1.03646  -0.001
C  C36  1  0.46314506  0.25000259  0.86569476  1  -0.141946  -0.016164  3.541975  -0.019  -0.10546  -0.00957  3.755985  -0.012  -0.12052  -0.006345  3.771695  -0.009  -0.012775  -0.095612  -0.012147  3.745651  -0.014
C  C37  1  0.96316612  0.75000069  0.63429232  1  -0.142336  -0.016169  3.54221  -0.019  -0.10586  -0.009573  3.756214  -0.012  -0.120923  -0.006346  3.771918  -0.009  -0.01282  -0.096015  -0.012149  3.745859  -0.015
C  C38  1  0.53684865  0.74999707  0.13427390  1  -0.143301  -0.011509  3.542854  -0.012  -0.106597  -0.007766  3.756614  -0.008  -0.121563  -0.005671  3.772268  -0.006  -0.013058  -0.09692  -0.009328  3.746307  -0.01
C  C39  1  0.03683851  0.24999613  0.36573728  1  -0.142858  0.012224  3.542434  0.012  -0.10619  0.008136  3.756248  0.008  -0.121157  0.006013  3.771883  0.006  -0.013204  -0.096534  0.009659  3.745965  0.01
C  C40  1  0.17771385  0.25000390  0.87812321  1  -0.148475  0.001503  3.509625  0.002  -0.196653  0.000868  3.764161  0.001  -0.196271  0.001009  3.773368  0.001  -0.164501  -0.196395  0.000621  3.757293  0.001
C  C41  1  0.67773725  0.74999779  0.62186872  1  -0.148048  0.001485  3.509563  0.002  -0.196486  0.000842  3.764487  0.001  -0.196101  0.000996  3.77369  0.001  -0.164371  -0.196217  0.000586  3.757616  0.001
C  C42  1  0.82229260  0.74999859  0.12184545  1  -0.148331  -0.000557  3.509574  0.0  -0.196403  -0.000332  3.764199  0.0  -0.196043  -0.000151  3.773414  0.0  -0.164389  -0.196109  -0.000514  3.757397  0.0
C  C43  1  0.32227831  0.24999620  0.37816802  1  -0.148718  0.000598  3.509633  0.0  -0.196817  0.000353  3.764383  0.0  -0.196446  0.000184  3.773586  0.0  -0.164453  -0.196528  0.000521  3.75759  0.0
C  C44  1  0.22112608  0.25000237  0.96194017  1  -0.096611  -0.000171  3.58435  0.0  -0.133511  1.5e-05  3.83932  0.0  -0.134354  2.9e-05  3.851593  0.0  -0.167359  -0.132736  -1.8e-05  3.830889  0.0
C  C45  1  0.72114383  0.74999793  0.53804932  1  -0.09687  -0.000203  3.583974  0.0  -0.133622  -5.6e-05  3.838746  0.0  -0.134503  -3.6e-05  3.851023  0.0  -0.167363  -0.132834  -8.7e-05  3.830297  0.0
C  C46  1  0.77886944  0.75000012  0.03802793  1  -0.096532  -0.000226  3.583512  0.0  -0.133491  -0.000161  3.838469  0.0  -0.134342  -8.7e-05  3.850734  0.0  -0.167315  -0.132723  -0.000232  3.830005  0.0
C  C47  1  0.27883712  0.24999465  0.46198522  1  -0.096636  0.000147  3.583574  0.0  -0.133467  6.4e-05  3.838657  0.0  -0.134405  5.5e-05  3.850949  0.0  -0.167233  -0.132721  6.1e-05  3.830206  0.0
C  C48  1  0.50052494  0.25000247  0.94979998  1  -0.135709  0.000293  3.571823  0.001  -0.180417  -0.000713  3.812657  0.0  -0.179551  -0.000324  3.823567  0.0  -0.167344  -0.180757  -0.001127  3.805322  -0.001
C  C49  1  0.00054395  0.74999911  0.55018633  1  -0.135466  0.000293  3.5711  0.001  -0.180064  -0.000712  3.81179  0.0  -0.179221  -0.000327  3.822733  0.0  -0.1672  -0.180388  -0.001123  3.804466  -0.001
C  C50  1  0.49947059  0.75000144  0.05017143  1  -0.135044  -0.000216  3.570745  0.0  -0.179717  -0.000429  3.811462  0.0  -0.178846  -0.000422  3.822317  0.0  -0.167196  -0.179979  -0.000333  3.804245  0.0
C  C51  1  0.99944247  0.24999630  0.44983943  1  -0.134994  0.000259  3.570597  0.0  -0.179597  0.000461  3.811291  0.0  -0.178753  0.000463  3.822187  0.0  -0.167061  -0.17987  0.000345  3.804035  0.0
C  C52  1  0.54837281  0.42563192  0.82442226  1  0.665319  0.008569  3.788138  0.014  0.623122  0.000314  4.087136  0.004  0.664386  0.001057  4.079036  0.004  0.225204  0.594785  -0.000456  4.091164  0.004
C  C53  1  0.04839038  0.57437961  0.67556159  1  0.665583  0.008572  3.7878  0.014  0.623421  0.000321  4.086717  0.004  0.664691  0.001059  4.078608  0.004  0.225273  0.595086  -0.000449  4.090749  0.004
C  C54  1  0.45162262  0.92557240  0.17556937  1  0.666323  -0.002409  3.787598  -0.003  0.623916  -0.00118  4.086702  -0.001  0.665109  -0.000639  4.078623  0.0  0.225402  0.595555  -0.001725  4.090749  -0.002
C  C55  1  0.95161981  0.07441681  0.32444888  1  0.665959  0.002863  3.787718  0.003  0.623641  0.00145  4.086751  0.001  0.664845  0.000917  4.078662  0.0  0.225393  0.595289  0.001956  4.090781  0.002
C  C56  1  0.45162818  0.57442015  0.17556891  1  0.666163  -0.002406  3.787943  -0.003  0.623829  -0.001179  4.086932  -0.001  0.665019  -0.00064  4.078857  0.0  0.225372  0.595482  -0.001725  4.09095  -0.002
C  C57  1  0.95161243  0.42557047  0.32444660  1  0.665839  0.002872  3.787873  0.003  0.623538  0.00145  4.086872  0.001  0.664746  0.000917  4.078779  0.0  0.225336  0.595199  0.001956  4.090866  0.002
C  C58  1  0.54837291  0.07437202  0.82442509  1  0.665344  0.008565  3.788073  0.014  0.623118  0.000313  4.08712  0.004  0.664382  0.001056  4.079019  0.004  0.225173  0.594769  -0.000456  4.091172  0.004
C  C59  1  0.04839211  0.92562393  0.67556095  1  0.665528  0.00857  3.788036  0.014  0.623349  0.000321  4.086975  0.004  0.664622  0.00106  4.078866  0.004  0.225244  0.595006  -0.000449  4.091032  0.004
O  O60  1  0.66567315  0.55209691  0.86005127  1  -0.583002  -0.080472  2.048461  -0.109  -0.549979  -0.053794  2.318634  -0.079  -0.590328  -0.040546  2.308057  -0.063  -0.308275  -0.522012  -0.062557  2.3256  -0.088
O  O61  1  0.16570320  0.44790620  0.63993468  1  -0.583046  -0.080449  2.04823  -0.109  -0.550015  -0.053787  2.318407  -0.079  -0.590349  -0.040539  2.307833  -0.063  -0.308401  -0.522056  -0.062549  2.325325  -0.088
O  O62  1  0.33427695  0.05209463  0.13997404  1  -0.58396  -0.056205  2.048445  -0.077  -0.550506  -0.039452  2.318665  -0.059  -0.590823  -0.032204  2.308078  -0.051  -0.308306  -0.522128  -0.042587  2.325429  -0.061
O  O63  1  0.83429040  0.94788884  0.36003882  1  -0.58387  0.06039  2.048554  0.077  -0.550489  0.0417  2.318794  0.059  -0.5908  0.034639  2.3082  0.051  -0.308363  -0.522103  0.04435  2.32562  0.061
O  O64  1  0.33429687  0.44788859  0.13997119  1  -0.58401  -0.056198  2.048531  -0.077  -0.550574  -0.039448  2.318693  -0.059  -0.59089  -0.0322  2.308106  -0.051  -0.30835  -0.522208  -0.042583  2.325466  -0.061
O  O65  1  0.83427047  0.55209205  0.36003672  1  -0.583724  0.060395  2.048658  0.077  -0.550321  0.041706  2.318865  0.059  -0.590636  0.034643  2.308276  0.051  -0.308249  -0.521931  0.044359  2.325662  0.061
O  O66  1  0.66566940  0.94791070  0.86005172  1  -0.582989  -0.080457  2.048408  -0.109  -0.54994  -0.05379  2.318567  -0.079  -0.590285  -0.040543  2.30799  -0.063  -0.308234  -0.521983  -0.062551  2.325568  -0.088
O  O67  1  0.16571241  0.05208957  0.63993478  1  -0.582926  -0.080458  2.048339  -0.109  -0.549862  -0.053791  2.31848  -0.079  -0.590199  -0.040543  2.30791  -0.063  -0.308317  -0.521905  -0.06255  2.325414  -0.088
O  O68  1  0.49723585  0.44514558  0.75682124  1  -0.584866  -0.084324  2.142791  -0.117  -0.568248  -0.053378  2.438471  -0.08  -0.610255  -0.039562  2.428601  -0.063  -0.307347  -0.538408  -0.063007  2.444356  -0.091
O  O69  1  0.99723977  0.55485914  0.74316895  1  -0.585145  -0.084333  2.1427  -0.117  -0.5685  -0.053382  2.43833  -0.08  -0.610516  -0.039568  2.428441  -0.063  -0.307322  -0.538642  -0.063014  2.444224  -0.091
O  O70  1  0.50269765  0.94498816  0.24317202  1  -0.585731  0.086855  2.142932  0.11  -0.569011  0.05458  2.43877  0.076  -0.610849  0.042561  2.428864  0.062  -0.307843  -0.539244  0.06186  2.444737  0.084
O  O71  1  0.00270305  0.05500361  0.25683549  1  -0.585669  -0.081201  2.142689  -0.11  -0.568929  -0.051814  2.438421  -0.076  -0.61077  -0.039713  2.428517  -0.062  -0.307804  -0.539189  -0.059586  2.444341  -0.084
O  O72  1  0.50268865  0.55500564  0.24317158  1  -0.585604  0.086846  2.142996  0.11  -0.568892  0.05458  2.438781  0.076  -0.61073  0.04256  2.428881  0.062  -0.307791  -0.539126  0.061862  2.444733  0.084
O  O73  1  0.00269930  0.44498613  0.25683429  1  -0.585692  -0.081195  2.142775  -0.11  -0.568981  -0.051809  2.438547  -0.076  -0.610817  -0.03971  2.428629  -0.062  -0.307842  -0.539255  -0.059583  2.444474  -0.084
O  O74  1  0.49723231  0.05485712  0.75682189  1  -0.584882  -0.084344  2.142725  -0.117  -0.568258  -0.053386  2.438415  -0.08  -0.610272  -0.039567  2.428549  -0.063  -0.307351  -0.53841  -0.063014  2.444308  -0.091
O  O75  1  0.99723420  0.94514619  0.74316830  1  -0.585214  -0.084331  2.14282  -0.117  -0.568584  -0.053382  2.438484  -0.08  -0.610593  -0.039568  2.428577  -0.063  -0.3074  -0.538719  -0.063012  2.444383  -0.091
O  O76  1  0.16746287  0.75000148  0.88891415  1  -0.803316  0.001089  1.827232  0.0  -0.766237  0.000909  2.01212  0.0  -0.78256  0.000994  1.980742  0.001  -0.579466  -0.753481  0.000751  2.034674  0.0
O  O77  1  0.66749427  0.24998179  0.61108058  1  -0.803279  0.001073  1.827  0.0  -0.766114  0.000892  2.012216  0.0  -0.782426  0.000986  1.980843  0.001  -0.579413  -0.753389  0.000727  2.034743  0.0
O  O78  1  0.83257455  0.24998260  0.11101224  1  -0.803563  0.001155  1.826643  0.0  -0.766344  0.000975  2.011871  0.0  -0.782688  0.001042  1.980473  0.001  -0.579251  -0.753596  0.00087  2.034527  0.0
O  O79  1  0.33256500  0.74997821  0.38899239  1  -0.803574  -0.001065  1.826607  0.0  -0.766327  -0.000907  2.011892  0.0  -0.782671  -0.000965  1.980493  -0.001  -0.579251  -0.753556  -0.000815  2.034561  0.0
