# generated using pymatgen
data_AlH15C16(NO3)2
_symmetry_space_group_name_H-M   'P 1'
_cell_length_a   6.61872748
_cell_length_b   21.69847472
_cell_length_c   23.09757494
_cell_angle_alpha   78.02096680
_cell_angle_beta   90.23409968
_cell_angle_gamma   90.00110506
_symmetry_Int_Tables_number   1
_chemical_formula_structural   AlH15C16(NO3)2
_chemical_formula_sum   'Al4 H60 C64 N8 O24'
_cell_volume   3244.92343666
_cell_formula_units_Z   4
loop_
 _symmetry_equiv_pos_site_id
 _symmetry_equiv_pos_as_xyz
  1  'x, y, z'
loop_
 _atom_site_type_symbol
 _atom_site_label
 _atom_site_symmetry_multiplicity
 _atom_site_fract_x
 _atom_site_fract_y
 _atom_site_fract_z
 _atom_site_occupancy
 _atom_site_pbe_bader_charge
 _atom_site_pbe_bader_spin_density
 _atom_site_pbe_cm5_charge
 _atom_site_pbe_ddec_charge
 _atom_site_pbe_ddec_spin_density
 _atom_site_pbe_ddec_sum_bond_order
 _atom_site_pbe_magmom
Al  Al0  1  0.74060117  0.74681780  0.24956866  1  2.500343  0  0.399855  1.636268  0  2.582747  0
Al  Al1  1  0.23663688  0.25118205  0.74798424  1  2.501569  0  0.398673  1.63531  0  2.576442  0
Al  Al2  1  0.24061588  0.75315383  0.25066290  1  2.499614  0  0.399535  1.637089  0  2.582105  0
Al  Al3  1  0.73659647  0.24892974  0.75231091  1  2.499568  0  0.398975  1.637135  0  2.576133  0
H  H4  1  0.29546204  0.39754249  0.97388830  1  0.052142  0  0.102252  0.114189  0  1.007629  0
H  H5  1  0.78690277  0.62349943  0.00126748  1  0.051933  0  0.099392  0.108039  0  1.009879  0
H  H6  1  0.80090170  0.10183020  0.52836669  1  0.069319  0  0.101739  0.113124  0  1.014333  0
H  H7  1  0.29076109  0.87714009  0.49836988  1  0.054123  0  0.099952  0.108472  0  1.009655  0
H  H8  1  0.70605340  0.50167066  0.95030893  1  0.415304  0  0.29097  0.230117  0  0.993656  0
H  H9  1  0.42444325  0.53563916  0.89841468  1  0.026504  0  0.101206  0.109184  0  0.984496  0
H  H10  1  0.42706771  0.47267696  0.86033288  1  0.049781  0  0.099879  0.110091  0  1.031357  0
H  H11  1  0.59409520  0.53800727  0.83807969  1  0.017656  0  0.086554  0.082962  0  1.005574  0
H  H12  1  0.24987831  0.47626575  0.08431609  1  0.41417  0  0.29119  0.234399  0  0.979997  0
H  H13  1  0.57468285  0.46852984  0.12623633  1  0.030907  0  0.100749  0.109349  0  0.980152  0
H  H14  1  0.53533077  0.53900957  0.15288130  1  0.076267  0  0.103372  0.114902  0  1.019781  0
H  H15  1  0.56485641  0.54310628  0.07592828  1  0.029575  0  0.081495  0.083396  0  1.030503  0
H  H16  1  0.20138568  0.00480865  0.54313730  1  0.422672  0  0.290498  0.231455  0  0.992626  0
H  H17  1  0.12275680  0.95333031  0.65173862  1  0.011421  0  0.084382  0.079993  0  1.001478  0
H  H18  1  0.92613252  0.96554073  0.59721952  1  0.04642  0  0.099982  0.1087  0  0.987791  0
H  H19  1  0.95360533  0.01883768  0.64532251  1  0.061807  0  0.101569  0.112701  0  1.035301  0
H  H20  1  0.74957185  0.02482837  0.41476534  1  0.409355  0  0.291269  0.234727  0  0.978857  0
H  H21  1  0.07496532  0.03213953  0.37334378  1  0.017144  0  0.100066  0.107881  0  0.980241  0
H  H22  1  0.03641231  0.96051425  0.34852202  1  0.09468  0  0.102595  0.114204  0  1.018288  0
H  H23  1  0.06527645  0.95857896  0.42523213  1  0.048621  0  0.080793  0.081694  0  1.030466  0
H  H24  1  0.81953314  0.41321188  0.75077903  1  0.014348  0  0.096034  0.056241  0  1.003858  0
H  H25  1  0.77574876  0.48342369  0.77773930  1  0.030783  0  0.088471  0.035358  0  0.999836  0
H  H26  1  0.40015248  0.47194714  0.76096767  1  0.003566  0  0.087919  0.118251  0  1.012466  0
H  H27  1  0.54103409  0.47716695  0.69456210  1  0.051842  0  0.093923  0.127229  0  0.991444  0
H  H28  1  0.44861529  0.40316964  0.73207399  1  0.049822  0  0.100532  0.149338  0  1.010227  0
H  H29  1  0.21564389  0.50052170  0.21754611  1  0.056832  0  0.094013  0.051743  0  1.014342  0
H  H30  1  0.07681248  0.55391444  0.25194935  1  0.044468  0  0.094266  0.053066  0  0.976326  0
H  H31  1  0.39972726  0.58524501  0.29666901  1  0.069618  0  0.095811  0.140816  0  1.012546  0
H  H32  1  0.35737032  0.50271084  0.31845795  1  0.036139  0  0.093039  0.125449  0  0.995406  0
H  H33  1  0.53785097  0.53183069  0.26264325  1  0.034874  0  0.089777  0.120983  0  1.003647  0
H  H34  1  0.31826886  0.08577849  0.74737862  1  0.060786  0  0.096766  0.057369  0  1.000635  0
H  H35  1  0.26851414  0.01622596  0.71978564  1  0.029741  0  0.089265  0.037515  0  0.998853  0
H  H36  1  0.89291866  0.03152130  0.73532648  1  0.017521  0  0.088131  0.117564  0  1.013041  0
H  H37  1  0.03543156  0.02237452  0.80214118  1  0.015867  0  0.094277  0.126907  0  0.990479  0
H  H38  1  0.95045450  0.09815826  0.76657999  1  0.070759  0  0.100589  0.148652  0  1.012468  0
H  H39  1  0.71516351  0.99956130  0.28229148  1  0.062091  0  0.094069  0.051639  0  1.015047  0
H  H40  1  0.57688584  0.94593045  0.24776632  1  0.045805  0  0.093986  0.052492  0  0.976516  0
H  H41  1  0.89984846  0.91480774  0.20365721  1  0.069754  0  0.095479  0.140457  0  1.013409  0
H  H42  1  0.85666997  0.99731737  0.18176684  1  0.0392  0  0.093087  0.125505  0  0.995538  0
H  H43  1  0.03762762  0.96829842  0.23794546  1  0.032291  0  0.089597  0.120777  0  1.00318  0
H  H44  1  0.44436702  0.32743545  0.93184272  1  0.405938  0  0.301699  0.24315  0  0.944935  0
H  H45  1  0.44459317  0.22092850  0.93024282  1  0.044954  0  0.10076  0.110135  0  0.990677  0
H  H46  1  0.19717768  0.22542102  0.90060306  1  0.062038  0  0.104195  0.118603  0  1.009572  0
H  H47  1  0.23508541  0.23181184  0.97577901  1  0.020417  0  0.081618  0.075533  0  1.003686  0
H  H48  1  0.67100040  0.71220033  0.02260577  1  0.406351  0  0.304462  0.24139  0  0.950876  0
H  H49  1  0.71340964  0.81190103  0.03240805  1  0.02519  0  0.101955  0.107387  0  0.989365  0
H  H50  1  0.97262128  0.78852549  0.04011145  1  0.053563  0  0.089476  0.089576  0  0.992284  0
H  H51  1  0.82016888  0.78926212  0.10366139  1  0.083927  0  0.103527  0.119322  0  1.02862  0
H  H52  1  0.94760838  0.17132842  0.57104198  1  0.404051  0  0.302224  0.24441  0  0.946167  0
H  H53  1  0.95051027  0.27790176  0.57178405  1  0.059132  0  0.101463  0.111411  0  0.99172  0
H  H54  1  0.70227737  0.27460318  0.60022918  1  0.072161  0  0.103721  0.117372  0  1.013363  0
H  H55  1  0.74167399  0.26757214  0.52537546  1  0.00374  0  0.082063  0.076513  0  1.00337  0
H  H56  1  0.17601218  0.78795065  0.47738600  1  0.411126  0  0.304478  0.240758  0  0.952089  0
H  H57  1  0.21875788  0.68824364  0.46772253  1  0.053837  0  0.101436  0.106553  0  0.991129  0
H  H58  1  0.47775569  0.71159911  0.45997481  1  0.036107  0  0.089509  0.089056  0  0.992912  0
H  H59  1  0.32335848  0.71084902  0.39645782  1  0.084589  0  0.103439  0.118879  0  1.02925  0
H  H60  1  0.47445441  0.68308449  0.22000017  1  0.620874  0  0.350437  0.432177  0  0.862389  0
H  H61  1  0.48479642  0.31043211  0.78673994  1  0.656963  0  0.349898  0.426711  0  0.875436  0
H  H62  1  0.97535433  0.81684028  0.28028977  1  0.620349  0  0.350627  0.43291  0  0.862714  0
H  H63  1  0.98363417  0.19030839  0.71304394  1  0.612856  0  0.349428  0.42585  0  0.875591  0
C  C64  1  0.49217106  0.84335442  0.17036326  1  1.705751  0  0.271736  0.678943  0  4.208122  0
C  C65  1  0.48427851  0.15785202  0.83165032  1  1.70022  0  0.267766  0.669441  0  4.225597  0
C  C66  1  0.99421423  0.65666334  0.32992279  1  1.690262  0  0.272177  0.679229  0  4.20933  0
C  C67  1  0.98353611  0.34230805  0.66865019  1  1.702734  0  0.267397  0.667709  0  4.228236  0
C  C68  1  0.50076207  0.80479365  0.33084909  1  1.574995  0  0.272151  0.679169  0  4.084826  0
C  C69  1  0.48496899  0.18931681  0.67319833  1  1.542327  0  0.268977  0.668566  0  4.082293  0
C  C70  1  0.99865110  0.69520935  0.16938283  1  1.585408  0  0.271871  0.678474  0  4.085159  0
C  C71  1  0.98579101  0.31080236  0.82697271  1  1.555823  0  0.268983  0.668359  0  4.084009  0
C  C72  1  0.83011883  0.43823398  0.91060500  1  0.389591  0  0.085812  0.06596  0  4.046344  0
C  C73  1  0.15353775  0.55776716  0.10087301  1  0.46926  0  0.078691  0.059382  0  4.030767  0
C  C74  1  0.33030533  0.06331874  0.58743753  1  0.494189  0  0.082398  0.059216  0  4.039104  0
C  C75  1  0.65487488  0.94280828  0.39885964  1  0.432509  0  0.078255  0.058283  0  4.031228  0
C  C76  1  0.83150551  0.39698914  0.87051760  1  0.57161  0  0.076116  0.14271  0  4.018603  0
C  C77  1  0.14760937  0.60293586  0.13689776  1  0.529666  0  0.08339  0.157245  0  4.01827  0
C  C78  1  0.33124683  0.10376336  0.62818387  1  0.455397  0  0.079806  0.151398  0  4.017326  0
C  C79  1  0.64928170  0.89737273  0.36310871  1  0.525055  0  0.083813  0.158654  0  4.019728  0
C  C80  1  0.99205508  0.35366111  0.86970520  1  -0.00538  0  -0.027345  -0.233831  0  3.911181  0
C  C81  1  0.01236133  0.65460466  0.12496524  1  -0.045604  0  -0.028282  -0.234236  0  3.923626  0
C  C82  1  0.49225496  0.14665424  0.63032881  1  0.016549  0  -0.027981  -0.238324  0  3.906787  0
C  C83  1  0.51512930  0.84552134  0.37518689  1  0.004744  0  -0.027851  -0.234462  0  3.924945  0
C  C84  1  0.16168452  0.35297031  0.90822231  1  0.398748  0  0.087651  0.211552  0  4.06292  0
C  C85  1  0.88155939  0.66334167  0.07497762  1  0.422532  0  0.091642  0.218634  0  4.101605  0
C  C86  1  0.66361240  0.14694128  0.59281131  1  0.400233  0  0.090753  0.218486  0  4.056573  0
C  C87  1  0.38512725  0.83690315  0.42504289  1  0.395759  0  0.091588  0.217652  0  4.103511  0
C  C88  1  0.16494685  0.39638785  0.94511880  1  -0.005454  0  -0.103422  -0.244428  0  3.996746  0
C  C89  1  0.88399007  0.61762186  0.04033853  1  0.011187  0  -0.110678  -0.265386  0  4.020811  0
C  C90  1  0.66822279  0.10356352  0.55585280  1  0.016198  0  -0.103922  -0.244221  0  3.992962  0
C  C91  1  0.38726063  0.88289431  0.45941589  1  0.024535  0  -0.110409  -0.263881  0  4.016896  0
C  C92  1  0.00607030  0.43862650  0.94666190  1  0.108642  0  -0.018629  0.057052  0  4.170036  0
C  C93  1  0.01474726  0.56555171  0.05263429  1  0.043534  0  -0.016968  0.063383  0  4.174831  0
C  C94  1  0.50800437  0.06223927  0.55276759  1  0.044141  0  -0.017992  0.061142  0  4.170626  0
C  C95  1  0.51701686  0.93511667  0.44695498  1  0.034705  0  -0.017163  0.063398  0  4.173783  0
C  C96  1  0.01588566  0.48184846  0.98455638  1  -0.319  0  -0.047783  -0.108104  0  4.150183  0
C  C97  1  0.01286685  0.52107462  0.01583632  1  -0.107232  0  -0.046741  -0.110147  0  4.146944  0
C  C98  1  0.51802543  0.01917953  0.51468011  1  -0.291911  0  -0.046367  -0.107978  0  4.148224  0
C  C99  1  0.51523910  0.97988658  0.48347384  1  -0.125157  0  -0.046736  -0.109157  0  4.146481  0
C  C100  1  0.97728112  0.39319257  0.61730669  1  0.09578  0  0.002999  -0.128033  0  3.838665  0
C  C101  1  0.99663886  0.60693306  0.38222516  1  0.267186  0  0.004981  -0.126417  0  3.829489  0
C  C102  1  0.47899702  0.10707067  0.88307991  1  0.096061  0  0.002779  -0.128627  0  3.837463  0
C  C103  1  0.49365720  0.89321746  0.11816791  1  0.205408  0  0.004824  -0.126819  0  3.827732  0
C  C104  1  0.97948781  0.43498526  0.57248583  1  -0.236572  0  -0.013361  0.018021  0  4.258395  0
C  C105  1  0.99345196  0.56591691  0.42761388  1  -0.351279  0  -0.0139  0.014629  0  4.265698  0
C  C106  1  0.47990305  0.06532971  0.92795506  1  -0.169799  0  -0.01339  0.018454  0  4.259566  0
C  C107  1  0.49061980  0.93438328  0.07286219  1  -0.294744  0  -0.013264  0.015516  0  4.26493  0
C  C108  1  0.98360430  0.48015508  0.52311330  1  0.100365  0  -0.005261  -0.008221  0  4.206256  0
C  C109  1  0.98896583  0.52122964  0.47733081  1  -0.142945  0  -0.00579  -0.010901  0  4.210184  0
C  C110  1  0.48260086  0.02020737  0.97737462  1  -0.163292  0  -0.006019  -0.01012  0  4.210388  0
C  C111  1  0.48678728  0.97914094  0.02317995  1  0.060609  0  -0.00518  -0.009733  0  4.213528  0
C  C112  1  0.52233144  0.50679034  0.87639293  1  0.336285  0  -0.14294  -0.216099  0  3.98898  0
C  C113  1  0.50045161  0.51477692  0.11692285  1  0.263485  0  -0.147904  -0.218871  0  3.96531  0
C  C114  1  0.03671707  0.98949968  0.62041971  1  0.296232  0  -0.144671  -0.219509  0  3.985882  0
C  C115  1  0.00104492  0.98589633  0.38355609  1  0.236828  0  -0.146009  -0.215218  0  3.964389  0
C  C116  1  0.70872443  0.43805881  0.77313381  1  0.420219  0  -0.066734  0.092525  0  3.897147  0
C  C117  1  0.51233728  0.44787419  0.73860390  1  -0.03102  0  -0.245219  -0.399168  0  3.944183  0
C  C118  1  0.22574563  0.54440436  0.23429188  1  0.388324  0  -0.068667  0.08655  0  3.893835  0
C  C119  1  0.39008602  0.54116259  0.28057372  1  -0.086842  0  -0.245761  -0.399676  0  3.966392  0
C  C120  1  0.20511389  0.06197270  0.72458754  1  0.364427  0  -0.067193  0.089158  0  3.900315  0
C  C121  1  0.00877650  0.05335259  0.75870857  1  -0.015358  0  -0.244438  -0.394722  0  3.943114  0
C  C122  1  0.72574943  0.95563029  0.26567639  1  0.378578  0  -0.06834  0.087761  0  3.892459  0
C  C123  1  0.88988753  0.95889049  0.21972479  1  -0.084344  0  -0.245485  -0.399302  0  3.96637  0
C  C124  1  0.29754163  0.24428259  0.93047566  1  0.27944  0  -0.144906  -0.216458  0  3.973542  0
C  C125  1  0.82017407  0.77906234  0.05918213  1  0.253383  0  -0.144601  -0.219297  0  3.969254  0
C  C126  1  0.80270604  0.25515157  0.57099193  1  0.249724  0  -0.14436  -0.216661  0  3.976624  0
C  C127  1  0.32474623  0.72107693  0.44092473  1  0.246077  0  -0.143493  -0.216636  0  3.969423  0
N  N128  1  0.66812666  0.47543011  0.92014027  1  -1.172791  0  -0.450396  -0.277132  0  3.581092  0
N  N129  1  0.28201391  0.50543972  0.11250817  1  -1.143235  0  -0.459265  -0.304043  0  3.538275  0
N  N130  1  0.16484644  0.02799135  0.57578079  1  -1.175079  0  -0.45417  -0.286669  0  3.559285  0
N  N131  1  0.78246237  0.99530038  0.38702211  1  -1.125873  0  -0.459728  -0.305354  0  3.536319  0
N  N132  1  0.32693094  0.31205628  0.91007320  1  -1.122986  0  -0.458483  -0.306511  0  3.498724  0
N  N133  1  0.75275816  0.71486973  0.05923809  1  -1.140091  0  -0.454163  -0.301413  0  3.522225  0
N  N134  1  0.82953758  0.18732777  0.59185420  1  -1.086413  0  -0.458154  -0.305883  0  3.501918  0
N  N135  1  0.25736858  0.78526377  0.44088088  1  -1.13842  0  -0.453454  -0.299932  0  3.525804  0
O  O136  1  0.32530713  0.79507481  0.31126871  1  -1.260152  0  -0.233503  -0.595472  0  2.333349  0
O  O137  1  0.65190563  0.20333315  0.69489282  1  -1.259301  0  -0.232208  -0.600727  0  2.417841  0
O  O138  1  0.82365992  0.70486078  0.18892853  1  -1.264533  0  -0.233086  -0.594305  0  2.332331  0
O  O139  1  0.15227897  0.29792953  0.80464071  1  -1.255744  0  -0.231856  -0.599817  0  2.409352  0
O  O140  1  0.66359560  0.82110453  0.18931918  1  -1.231123  0  -0.219484  -0.566889  0  2.315922  0
O  O141  1  0.31386275  0.17786412  0.80966181  1  -1.221122  0  -0.223331  -0.568547  0  2.301326  0
O  O142  1  0.16515401  0.67882082  0.31096315  1  -1.219103  0  -0.219625  -0.567213  0  2.316652  0
O  O143  1  0.81396781  0.32290241  0.69124019  1  -1.224529  0  -0.223618  -0.569075  0  2.303018  0
O  O144  1  0.66382063  0.78371571  0.31382145  1  -1.259049  0  -0.230869  -0.596768  0  2.399203  0
O  O145  1  0.31473499  0.20977680  0.68659097  1  -1.254951  0  -0.234767  -0.595723  0  2.379578  0
O  O146  1  0.16207496  0.71631308  0.18646780  1  -1.256657  0  -0.23074  -0.597531  0  2.400464  0
O  O147  1  0.81594750  0.28919939  0.81436113  1  -1.260205  0  -0.234863  -0.596914  0  2.379886  0
O  O148  1  0.82080025  0.67286674  0.30834160  1  -1.209493  0  -0.22001  -0.557149  0  2.292659  0
O  O149  1  0.15931925  0.32261785  0.68556309  1  -1.213379  0  -0.220348  -0.555277  0  2.293295  0
O  O150  1  0.31928297  0.82711871  0.19187048  1  -1.214582  0  -0.220092  -0.55765  0  2.291702  0
O  O151  1  0.65954293  0.17684813  0.81403464  1  -1.212114  0  -0.22067  -0.556162  0  2.291581  0
O  O152  1  0.48659780  0.71316700  0.24580963  1  -1.420513  0  -0.448087  -0.991561  0  2.195223  0
O  O153  1  0.48730134  0.28669050  0.75517403  1  -1.458267  0  -0.448681  -0.988076  0  2.196607  0
O  O154  1  0.98672598  0.78677971  0.25446416  1  -1.420166  0  -0.447969  -0.992683  0  2.196838  0
O  O155  1  0.98709536  0.21352263  0.74500828  1  -1.414623  0  -0.448273  -0.988263  0  2.197523  0
O  O156  1  0.66959822  0.40084801  0.83193961  1  -1.063251  0  -0.198237  -0.225562  0  2.528164  0
O  O157  1  0.27380248  0.59643337  0.18547916  1  -1.062444  0  -0.193454  -0.222972  0  2.518328  0
O  O158  1  0.16783390  0.09982837  0.66580397  1  -1.060015  0  -0.198503  -0.227363  0  2.5311  0
O  O159  1  0.77469602  0.90374317  0.31467874  1  -1.063745  0  -0.193703  -0.2238  0  2.520301  0
