# generated using pymatgen
data_Cu2H40W6C48N12O19
_symmetry_space_group_name_H-M   'P 1'
_cell_length_a   10.56198840
_cell_length_b   11.12560168
_cell_length_c   13.02670000
_cell_angle_alpha   98.06976837
_cell_angle_beta   108.08573364
_cell_angle_gamma   98.16415079
_symmetry_Int_Tables_number   1
_chemical_formula_structural   Cu2H40W6C48N12O19
_chemical_formula_sum   'Cu2 H40 W6 C48 N12 O19'
_cell_volume   1412.42219858
_cell_formula_units_Z   1
loop_
 _symmetry_equiv_pos_site_id
 _symmetry_equiv_pos_as_xyz
  1  'x, y, z'
loop_
 _atom_site_type_symbol
 _atom_site_label
 _atom_site_symmetry_multiplicity
 _atom_site_fract_x
 _atom_site_fract_y
 _atom_site_fract_z
 _atom_site_occupancy
 _atom_site_hle17_bader_spin_density
 _atom_site_hle17_ddec_charge
 _atom_site_hle17_ddec_spin_density
 _atom_site_hle17_ddec_sum_bond_order
 _atom_site_hle17_magmom
 _atom_site_hse06_10hf_bader_spin_density
 _atom_site_hse06_10hf_ddec_charge
 _atom_site_hse06_10hf_ddec_spin_density
 _atom_site_hse06_10hf_ddec_sum_bond_order
 _atom_site_hse06_10hf_magmom
 _atom_site_hse06_bader_spin_density
 _atom_site_hse06_ddec_charge
 _atom_site_hse06_ddec_spin_density
 _atom_site_hse06_ddec_sum_bond_order
 _atom_site_hse06_magmom
 _atom_site_pbe_bader_charge
 _atom_site_pbe_bader_spin_density
 _atom_site_pbe_cm5_charge
 _atom_site_pbe_ddec_charge
 _atom_site_pbe_ddec_spin_density
 _atom_site_pbe_ddec_sum_bond_order
 _atom_site_pbe_magmom
Cu  Cu0  1  0.25704584  0.37623868  0.24111224  1  0  0.42699  0  2.008966  0  0  0.285525  0  2.522789  0  0  0.271337  0  2.488917  0  0.756464  0  0.603634  0.298352  0  2.542169  0
Cu  Cu1  1  0.74295595  0.62375988  0.75888651  1  0  0.426962  0  2.008864  0  0  0.28547  0  2.522719  0  0  0.271287  0  2.488813  0  0.756472  0  0.603598  0.298307  0  2.542092  0
H  H2  1  0.41396269  0.18974632  0.35890223  1  0  0.088057  0  0.966607  0  0  0.097535  0  1.030271  0  0  0.100795  0  1.026362  0  0.113457  0  0.110515  0.095197  0  1.033077  0
H  H3  1  0.58604109  0.81025687  0.64109910  1  0  0.088041  0  0.966556  0  0  0.097482  0  1.030264  0  0  0.100741  0  1.026357  0  0.113419  0  0.11049  0.095143  0  1.033072  0
H  H4  1  0.65393547  0.20256491  0.47771110  1  0  0.109576  0  0.957275  0  0  0.118299  0  1.018154  0  0  0.121742  0  1.016728  0  0.08499  0  0.104519  0.115787  0  1.019471  0
H  H5  1  0.34606154  0.79743457  0.52229346  1  0  0.109617  0  0.957231  0  0  0.118332  0  1.018118  0  0  0.121776  0  1.01669  0  0.084976  0  0.104488  0.115818  0  1.019439  0
H  H6  1  0.81809208  0.40655494  0.52899563  1  0  0.09187  0  0.950838  0  0  0.102587  0  1.01423  0  0  0.105503  0  1.010917  0  0.11144  0  0.103731  0.100479  0  1.016502  0
H  H7  1  0.18190034  0.59344640  0.47100954  1  0  0.091896  0  0.950841  0  0  0.1026  0  1.014273  0  0  0.10551  0  1.010974  0  0.111378  0  0.103719  0.10049  0  1.016548  0
H  H8  1  0.73125365  0.59109899  0.46514673  1  0  0.115244  0  0.970318  0  0  0.124189  0  1.034339  0  0  0.127822  0  1.032361  0  0.119323  0  0.104285  0.121661  0  1.035804  0
H  H9  1  0.26873918  0.40890419  0.53485952  1  0  0.115193  0  0.97027  0  0  0.124144  0  1.034304  0  0  0.127777  0  1.032324  0  0.11937  0  0.104241  0.121613  0  1.035772  0
H  H10  1  0.62398191  0.76378657  0.38992232  1  0  0.140838  0  0.991873  0  0  0.146848  0  1.056424  0  0  0.150601  0  1.054832  0  0.140664  0  0.1052  0.144072  0  1.057927  0
H  H11  1  0.37601389  0.23621199  0.61008183  1  0  0.140782  0  0.991932  0  0  0.146784  0  1.05648  0  0  0.150537  0  1.054887  0  0.140646  0  0.105159  0.144008  0  1.057981  0
H  H12  1  0.40259138  0.85530854  0.27936478  1  0  0.117729  0  0.933185  0  0  0.131472  0  0.989505  0  0  0.134255  0  0.986749  0  0.137192  0  0.128992  0.129567  0  0.991265  0
H  H13  1  0.59740801  0.14469279  0.72063523  1  0  0.117727  0  0.93324  0  0  0.131462  0  0.989565  0  0  0.134245  0  0.986808  0  0.137184  0  0.129001  0.129557  0  0.991324  0
H  H14  1  0.16111187  0.77079082  0.18653870  1  0  0.091231  0  0.915264  0  0  0.10893  0  0.976795  0  0  0.108722  0  0.977068  0  0.096814  0  0.116884  0.108997  0  0.976673  0
H  H15  1  0.83888474  0.22920681  0.81346092  1  0  0.091257  0  0.915338  0  0  0.108972  0  0.976831  0  0  0.108764  0  0.977103  0  0.096738  0  0.116903  0.109039  0  0.976709  0
H  H16  1  0.11071610  0.66753553  0.26370217  1  0  0.094734  0  0.929881  0  0  0.108912  0  0.99565  0  0  0.109496  0  0.994766  0  0.089728  0  0.112728  0.108355  0  0.996495  0
H  H17  1  0.88928350  0.33246211  0.73629745  1  0  0.094777  0  0.929864  0  0  0.108949  0  0.995633  0  0  0.109531  0  0.994753  0  0.089654  0  0.112723  0.108392  0  0.996479  0
H  H18  1  0.89511295  0.57565427  0.13645107  1  0  0.090985  0  0.952306  0  0  0.102807  0  1.013752  0  0  0.10478  0  1.01413  0  0.058603  0  0.098848  0.101248  0  1.013872  0
H  H19  1  0.10488664  0.42434336  0.86354931  1  0  0.090899  0  0.952385  0  0  0.102775  0  1.013771  0  0  0.104749  0  1.014148  0  0.058601  0  0.098823  0.101217  0  1.013892  0
H  H20  1  0.24736352  0.56886670  0.03677494  1  0  0.09121  0  0.958321  0  0  0.09972  0  1.024273  0  0  0.10177  0  1.024801  0  0.074108  0  0.098025  0.09837  0  1.023864  0
H  H21  1  0.75263567  0.43113371  0.96322338  1  0  0.091164  0  0.958391  0  0  0.09967  0  1.024333  0  0  0.101721  0  1.02486  0  0.074041  0  0.098007  0.098319  0  1.023925  0
H  H22  1  0.03712252  0.41570102  0.34873614  1  0  0.077811  0  0.930982  0  0  0.08967  0  0.991984  0  0  0.092089  0  0.988892  0  0.110661  0  0.114938  0.08788  0  0.994254  0
H  H23  1  0.96288623  0.58429754  0.65126666  1  0  0.077843  0  0.930962  0  0  0.08967  0  0.992012  0  0  0.092092  0  0.988911  0  0.111129  0  0.114941  0.087879  0  0.99428  0
H  H24  1  0.78788750  0.34360279  0.28962225  1  0  0.103039  0  0.955604  0  0  0.114957  0  1.013577  0  0  0.11707  0  1.014159  0  0.073072  0  0.104664  0.113675  0  1.013091  0
H  H25  1  0.21212165  0.65639299  0.71038339  1  0  0.102999  0  0.955673  0  0  0.114974  0  1.013583  0  0  0.117098  0  1.014167  0  0.072912  0  0.104681  0.113691  0  1.013096  0
H  H26  1  0.67002716  0.18993800  0.11083627  1  0  0.084679  0  0.960054  0  0  0.098531  0  1.017526  0  0  0.101063  0  1.015216  0  0.066801  0  0.102502  0.096583  0  1.019311  0
H  H27  1  0.32997762  0.81006519  0.88916378  1  0  0.084803  0  0.960092  0  0  0.098655  0  1.017535  0  0  0.101184  0  1.015232  0  0.066692  0  0.102567  0.096708  0  1.019318  0
H  H28  1  0.80871141  0.12500607  0.99552586  1  0  0.102175  0  0.938716  0  0  0.117424  0  0.989458  0  0  0.120408  0  0.98892  0  0.076347  0  0.107518  0.1154  0  0.989921  0
H  H29  1  0.19129477  0.87500360  0.00447149  1  0  0.102198  0  0.938685  0  0  0.117439  0  0.989433  0  0  0.120421  0  0.988896  0  0.076357  0  0.107527  0.115412  0  0.989898  0
H  H30  1  0.96791439  0.05951762  0.89760963  1  0  0.133268  0  0.963271  0  0  0.141128  0  1.027042  0  0  0.144246  0  1.026097  0  0.125387  0  0.109288  0.138931  0  1.027675  0
H  H31  1  0.03208720  0.94048927  0.10239007  1  0  0.133354  0  0.963243  0  0  0.141164  0  1.027071  0  0  0.144283  0  1.026125  0  0.127256  0  0.109335  0.138967  0  1.027702  0
H  H32  1  0.21940684  0.08491682  0.87493130  1  0  0.110092  0  0.978391  0  0  0.116466  0  1.050139  0  0  0.119352  0  1.047122  0  0.153801  0  0.119631  0.114444  0  1.052091  0
H  H33  1  0.78059355  0.91507988  0.12506687  1  0  0.110116  0  0.978318  0  0  0.116477  0  1.050083  0  0  0.11936  0  1.047072  0  0.153695  0  0.119649  0.114456  0  1.052035  0
H  H34  1  0.59853028  0.45918868  0.18812577  1  0  0.089743  0  0.965639  0  0  0.101789  0  1.026362  0  0  0.10337  0  1.027259  0  0.086266  0  0.099447  0.100168  0  1.026707  0
H  H35  1  0.40146175  0.54081543  0.81187348  1  0  0.089678  0  0.965728  0  0  0.10173  0  1.026447  0  0  0.103308  0  1.02734  0  0.086201  0  0.099441  0.100109  0  1.026792  0
H  H36  1  0.45016997  0.18572100  0.99663795  1  0  0.090158  0  0.905518  0  0  0.112157  0  0.958492  0  0  0.112166  0  0.958308  0  0.068586  0  0.122842  0.112209  0  0.958573  0
H  H37  1  0.54983282  0.81428218  0.00335392  1  0  0.090189  0  0.905502  0  0  0.112203  0  0.958498  0  0  0.112215  0  0.95831  0  0.06856  0  0.122842  0.112251  0  0.95858  0
H  H38  1  0.47368617  0.25597372  0.13463046  1  0  0.095105  0  0.912317  0  0  0.110818  0  0.974886  0  0  0.111798  0  0.974063  0  0.059047  0  0.119978  0.109883  0  0.975878  0
H  H39  1  0.52632180  0.74402577  0.86536150  1  0  0.095071  0  0.912354  0  0  0.110845  0  0.974882  0  0  0.111828  0  0.974053  0  0.059023  0  0.12  0.109908  0  0.975877  0
H  H40  1  0.33317324  0.33506694  0.85077233  1  0  0.105076  0  0.946949  0  0  0.11707  0  1.006214  0  0  0.119875  0  1.005016  0  0.082498  0  0.102643  0.114839  0  1.007493  0
H  H41  1  0.66681640  0.66493532  0.14922226  1  0  0.105094  0  0.946929  0  0  0.117073  0  1.006203  0  0  0.119878  0  1.005008  0  0.082247  0  0.102644  0.114843  0  1.007482  0
W  W42  1  0.87305726  0.96297344  0.61636902  1  0  2.403911  0  4.190559  0  0  2.418388  0  4.718607  0  0  2.525837  0  4.662981  0  2.841527  0  1.620708  2.346627  0  4.754741  0
W  W43  1  0.12693934  0.03702419  0.38362984  1  0  2.403829  0  4.190541  0  0  2.418318  0  4.718583  0  0  2.525766  0  4.662961  0  2.841476  0  1.620705  2.346562  0  4.754712  0
W  W44  1  0.04002874  0.21353244  0.56845505  1  0  2.393294  0  4.221531  0  0  2.407422  0  4.749288  0  0  2.514892  0  4.69409  0  2.833105  0  1.61837  2.33536  0  4.785071  0
W  W45  1  0.95996827  0.78646705  0.43154413  1  0  2.393136  0  4.221626  0  0  2.40726  0  4.749387  0  0  2.51473  0  4.694193  0  2.833127  0  1.618314  2.335199  0  4.785168  0
W  W46  1  0.19828982  0.98478718  0.63884517  1  0  2.399029  0  4.203703  0  0  2.415974  0  4.72675  0  0  2.523273  0  4.672474  0  2.838773  0  1.616909  2.34419  0  4.761631  0
W  W47  1  0.80170658  0.01520952  0.36115353  1  0  2.39906  0  4.203732  0  0  2.416001  0  4.726782  0  0  2.523298  0  4.67251  0  2.838785  0  1.61689  2.344219  0  4.761661  0
C  C48  1  0.48790053  0.27654107  0.38397519  1  0  0.116204  0  3.702594  0  0  0.087972  0  3.950999  0  0  0.093697  0  3.966995  0  0.38554  0  0.03792  0.084367  0  3.940291  0
C  C49  1  0.51210125  0.72345749  0.61602278  1  0  0.116298  0  3.702564  0  0  0.088115  0  3.95097  0  0  0.093841  0  3.966967  0  0.385727  0  0.037974  0.08451  0  3.940259  0
C  C50  1  0.62188282  0.28441946  0.44963985  1  0  -0.112088  0  3.733313  0  0  -0.128226  0  3.989701  0  0  -0.134201  0  4.010612  0  0.098026  0  -0.089878  -0.124194  0  3.975465  0
C  C51  1  0.37811538  0.71558095  0.55036436  1  0  -0.11234  0  3.733521  0  0  -0.128482  0  3.989935  0  0  -0.134457  0  4.010843  0  0.097872  0  -0.089942  -0.12445  0  3.975698  0
C  C52  1  0.71209534  0.39812372  0.47889495  1  0  0.001899  0  3.714966  0  0  -0.021466  0  3.974707  0  0  -0.015194  0  3.988945  0  -0.06356  0  -0.071328  -0.025476  0  3.964441  0
C  C53  1  0.28790127  0.60187854  0.52111061  1  0  0.001937  0  3.714891  0  0  -0.021427  0  3.974637  0  0  -0.015164  0  3.988885  0  -0.063343  0  -0.07132  -0.025438  0  3.964374  0
C  C54  1  0.66479963  0.50045024  0.44246956  1  0  -0.143043  0  3.692177  0  0  -0.16183  0  3.941861  0  0  -0.168071  0  3.959837  0  -0.071247  0  -0.086235  -0.157963  0  3.92966  0
C  C55  1  0.33519658  0.49955017  0.55753798  1  0  -0.142883  0  3.691866  0  0  -0.161689  0  3.941608  0  0  -0.167926  0  3.95958  0  -0.071408  0  -0.086126  -0.157819  0  3.929401  0
C  C56  1  0.52871010  0.48613245  0.37701783  1  0  0.177038  0  3.784276  0  0  0.17709  0  4.018444  0  0  0.183914  0  4.037084  0  0.453207  0  0.108812  0.172679  0  4.005786  0
C  C57  1  0.47128949  0.51386518  0.62298179  1  0  0.177081  0  3.784192  0  0  0.177097  0  4.018395  0  0  0.183922  0  4.037034  0  0.453321  0  0.108807  0.172684  0  4.005738  0
C  C58  1  0.46862757  0.58702182  0.33567325  1  0  0.117227  0  3.821537  0  0  0.106156  0  4.079741  0  0  0.110282  0  4.099677  0  0.458323  0  0.087094  0.103642  0  4.066074  0
C  C59  1  0.53137322  0.41297673  0.66432908  1  0  0.117092  0  3.821752  0  0  0.106097  0  4.079858  0  0  0.110218  0  4.0998  0  0.458385  0  0.087079  0.103584  0  4.066191  0
C  C60  1  0.52111672  0.71373729  0.34685404  1  0  -0.211309  0  3.729806  0  0  -0.232794  0  3.994486  0  0  -0.241788  0  4.016499  0  0.029512  0  -0.111482  -0.226942  0  3.979812  0
C  C61  1  0.47888167  0.28625942  0.65314900  1  0  -0.211189  0  3.729616  0  0  -0.232668  0  3.994244  0  0  -0.241662  0  4.016258  0  0.029414  0  -0.111433  -0.226816  0  3.979566  0
C  C62  1  0.41143985  0.76176326  0.29112478  1  0  -0.003974  0  3.663732  0  0  -0.063087  0  3.919105  0  0  -0.057114  0  3.936378  0  0.296663  0  0.022734  -0.066845  0  3.907255  0
C  C63  1  0.58856015  0.23823622  0.70887746  1  0  -0.003977  0  3.663745  0  0  -0.063073  0  3.919152  0  0  -0.057096  0  3.936422  0  0.296715  0  0.022732  -0.06683  0  3.907301  0
C  C64  1  0.15992628  0.67582599  0.20145013  1  0  -0.050303  0  3.653802  0  0  -0.129391  0  3.901549  0  0  -0.124153  0  3.911145  0  0.307437  0  -0.041404  -0.132887  0  3.895159  0
C  C65  1  0.84007431  0.32417164  0.79854974  1  0  -0.050483  0  3.654003  0  0  -0.129599  0  3.901734  0  0  -0.124357  0  3.911327  0  0.307607  0  -0.041451  -0.133096  0  3.895348  0
C  C66  1  0.08021552  0.58242887  0.09785996  1  0  0.063569  0  3.762675  0  0  0.079839  0  4.011522  0  0  0.079521  0  4.033863  0  -0.015704  0  -0.017112  0.079834  0  3.996493  0
C  C67  1  0.91978209  0.41756876  0.90213685  1  0  0.063637  0  3.762769  0  0  0.080051  0  4.011386  0  0  0.079733  0  4.033726  0  -0.015566  0  -0.017051  0.080044  0  3.996364  0
C  C68  1  0.94103105  0.54262854  0.07622166  1  0  -0.106599  0  3.745928  0  0  -0.125401  0  3.993425  0  0  -0.129234  0  4.018108  0  0.001626  0  -0.093941  -0.122711  0  3.976894  0
C  C69  1  0.05896576  0.45737002  0.92377659  1  0  -0.106581  0  3.746057  0  0  -0.125466  0  3.993515  0  0  -0.129302  0  4.0182  0  0.001697  0  -0.093968  -0.122778  0  3.976987  0
C  C70  1  0.13898374  0.53908011  0.02101247  1  0  -0.109941  0  3.763814  0  0  -0.135874  0  4.025887  0  0  -0.137043  0  4.046238  0  -0.090908  0  -0.096004  -0.134759  0  4.011706  0
C  C71  1  0.86101584  0.46091289  0.97899042  1  0  -0.109945  0  3.763829  0  0  -0.135906  0  4.025846  0  0  -0.137076  0  4.046196  0  -0.091034  0  -0.096073  -0.134791  0  4.011667  0
C  C72  1  0.98327023  0.35178954  0.27071253  1  0  0.147895  0  3.673551  0  0  0.113822  0  3.933625  0  0  0.12187  0  3.945671  0  0.447697  0  0.045919  0.108739  0  3.925091  0
C  C73  1  0.01673574  0.64820994  0.72928814  1  0  0.147781  0  3.673496  0  0  0.113697  0  3.933585  0  0  0.121745  0  3.945635  0  0.44729  0  0.045826  0.108615  0  3.925051  0
C  C74  1  0.84326016  0.31149102  0.23675829  1  0  -0.107243  0  3.721051  0  0  -0.122974  0  3.97886  0  0  -0.128102  0  3.997931  0  0.002947  0  -0.086941  -0.119772  0  3.9659  0
C  C75  1  0.15674601  0.68850939  0.76324331  1  0  -0.107098  0  3.721178  0  0  -0.122844  0  3.978949  0  0  -0.127989  0  3.998036  0  0.002908  0  -0.086917  -0.119641  0  3.965985  0
C  C76  1  0.77848067  0.22724740  0.13746188  1  0  -0.014881  0  3.752807  0  0  -0.038448  0  4.011033  0  0  -0.033009  0  4.02711  0  0.030688  0  -0.077933  -0.041485  0  4.000288  0
C  C77  1  0.22152789  0.77275486  0.86253824  1  0  -0.015075  0  3.753046  0  0  -0.038663  0  4.011311  0  0  -0.033227  0  4.027393  0  0.03071  0  -0.078008  -0.041699  0  4.000561  0
C  C78  1  0.85537883  0.18970743  0.07409575  1  0  -0.134927  0  3.718267  0  0  -0.151569  0  3.96289  0  0  -0.158421  0  3.982711  0  -0.044873  0  -0.081311  -0.147972  0  3.950234  0
C  C79  1  0.14462914  0.81030132  0.92590269  1  0  -0.134951  0  3.718117  0  0  -0.151565  0  3.962719  0  0  -0.158418  0  3.982535  0  -0.044958  0  -0.081326  -0.147953  0  3.950077  0
C  C80  1  0.99543528  0.23534896  0.11248219  1  0  0.190355  0  3.763665  0  0  0.190046  0  3.996108  0  0  0.197897  0  4.013262  0  0.465935  0  0.114059  0.18484  0  3.985025  0
C  C81  1  0.00457050  0.76465886  0.88751714  1  0  0.190498  0  3.763524  0  0  0.190165  0  3.996005  0  0  0.198018  0  4.013144  0  0.465936  0  0.114117  0.184911  0  3.984987  0
C  C82  1  0.08338117  0.20416596  0.05075049  1  0  0.11942  0  3.812018  0  0  0.109243  0  4.068434  0  0  0.114111  0  4.086565  0  0.45945  0  0.090237  0.106001  0  4.056295  0
C  C83  1  0.91662480  0.79583352  0.94925018  1  0  0.119383  0  3.811987  0  0  0.109173  0  4.068461  0  0  0.114054  0  4.086565  0  0.4591  0  0.090173  0.105945  0  4.056326  0
C  C84  1  0.06101456  0.12120763  0.95135070  1  0  -0.220194  0  3.735934  0  0  -0.242287  0  4.005178  0  0  -0.250989  0  4.026606  0  -0.039845  0  -0.109348  -0.23617  0  3.990245  0
C  C85  1  0.93899121  0.87879556  0.04864653  1  0  -0.22023  0  3.735986  0  0  -0.242276  0  4.005278  0  0  -0.250976  0  4.026687  0  -0.041462  0  -0.109358  -0.236167  0  3.990361  0
C  C86  1  0.18690120  0.13188439  0.93795665  1  0  0.003558  0  3.664871  0  0  -0.055576  0  3.925614  0  0  -0.048612  0  3.941417  0  0.354955  0  0.017859  -0.059852  0  3.914602  0
C  C87  1  0.81310577  0.86811510  0.06204197  1  0  0.003504  0  3.664955  0  0  -0.055633  0  3.92566  0  0  -0.048675  0  3.941482  0  0.355218  0  0.017767  -0.059908  0  3.914646  0
C  C88  1  0.46063742  0.38329664  0.02277387  1  0  0.063517  0  3.751787  0  0  0.080512  0  4.000884  0  0  0.079766  0  4.024792  0  -0.069808  0  -0.013155  0.081151  0  3.984937  0
C  C89  1  0.53936058  0.61670285  0.97722019  1  0  0.06329  0  3.751817  0  0  0.080286  0  4.000974  0  0  0.079539  0  4.024879  0  -0.069769  0  -0.013227  0.080925  0  3.985027  0
C  C90  1  0.55513582  0.47686414  0.10534204  1  0  -0.106039  0  3.747078  0  0  -0.124965  0  3.993961  0  0  -0.12747  0  4.016517  0  -0.025881  0  -0.088753  -0.123689  0  3.979703  0
C  C91  1  0.44486099  0.52313905  0.89465447  1  0  -0.105892  0  3.747139  0  0  -0.12481  0  3.994038  0  0  -0.127305  0  4.016583  0  -0.02595  0  -0.088794  -0.123535  0  3.97978  0
C  C92  1  0.42154268  0.25723122  0.04762936  1  0  -0.054717  0  3.661377  0  0  -0.139089  0  3.918785  0  0  -0.134022  0  3.928432  0  0.33698  0  -0.036075  -0.14256  0  3.912618  0
C  C93  1  0.57846170  0.74277011  0.95236653  1  0  -0.054625  0  3.661255  0  0  -0.139138  0  3.918816  0  0  -0.134066  0  3.928461  0  0.337039  0  -0.036036  -0.142604  0  3.912641  0
C  C94  1  0.40583693  0.40714202  0.91680064  1  0  -0.105875  0  3.725618  0  0  -0.124764  0  3.970584  0  0  -0.127295  0  3.992295  0  -0.044576  0  -0.089479  -0.123491  0  3.956694  0
C  C95  1  0.59415450  0.59285932  0.08319660  1  0  -0.105773  0  3.72559  0  0  -0.124635  0  3.970545  0  0  -0.127166  0  3.992257  0  -0.044319  0  -0.089486  -0.123363  0  3.956657  0
N  N96  1  0.05978432  0.31432828  0.21151881  1  0  -0.321592  0  3.314954  0  0  -0.256592  0  3.617357  0  0  -0.262495  0  3.620527  0  -1.201946  0  -0.355484  -0.253049  0  3.614649  0
N  N97  1  0.94022245  0.68567491  0.78848328  1  0  -0.32159  0  3.314912  0  0  -0.256543  0  3.617278  0  0  -0.262445  0  3.620433  0  -1.201789  0  -0.355406  -0.252988  0  3.614584  0
N  N98  1  0.44075766  0.37467559  0.34771900  1  0  -0.328625  0  3.332737  0  0  -0.263132  0  3.633146  0  0  -0.269698  0  3.638299  0  -1.209216  0  -0.358751  -0.258945  0  3.629025  0
N  N99  1  0.55924054  0.62532482  0.65228137  1  0  -0.328622  0  3.332693  0  0  -0.263151  0  3.63314  0  0  -0.269718  0  3.638286  0  -1.209299  0  -0.358741  -0.258964  0  3.629017  0
N  N100  1  0.33469223  0.55954097  0.27554022  1  0  -0.281088  0  3.197089  0  0  -0.251154  0  3.505466  0  0  -0.253393  0  3.510067  0  -0.702227  0  -0.269821  -0.25001  0  3.502066  0
N  N101  1  0.66530936  0.44045666  0.72445836  1  0  -0.28107  0  3.197332  0  0  -0.251121  0  3.505701  0  0  -0.253359  0  3.510298  0  -0.702229  0  -0.269769  -0.24998  0  3.502303  0
N  N102  1  0.21502563  0.26286963  0.09396230  1  0  -0.263804  0  3.166162  0  0  -0.234555  0  3.470193  0  0  -0.236216  0  3.474276  0  -0.704678  0  -0.264593  -0.234162  0  3.467398  0
N  N103  1  0.78497875  0.73713171  0.90603666  1  0  -0.263673  0  3.166149  0  0  -0.234398  0  3.470132  0  0  -0.23606  0  3.474206  0  -0.704672  0  -0.264526  -0.234005  0  3.46733  0
N  N104  1  0.30148571  0.66656230  0.24927004  1  0  0.080016  0  3.571682  0  0  0.197116  0  3.750394  0  0  0.187982  0  3.774574  0  -0.803797  0  -0.136889  0.203189  0  3.734004  0
N  N105  1  0.69851429  0.33343718  0.75073143  1  0  0.080116  0  3.571644  0  0  0.197131  0  3.750444  0  0  0.187995  0  3.774623  0  -0.803816  0  -0.136905  0.203206  0  3.734054  0
N  N106  1  0.27643890  0.21712994  0.02490792  1  0  0.079023  0  3.569944  0  0  0.196146  0  3.750501  0  0  0.18623  0  3.775749  0  -0.771897  0  -0.138004  0.202526  0  3.734032  0
N  N107  1  0.72356846  0.78286677  0.97509123  1  0  0.078849  0  3.570075  0  0  0.196048  0  3.750547  0  0  0.186115  0  3.775828  0  -0.771887  0  -0.138032  0.202429  0  3.734075  0
O  O108  1  0.06700346  0.37081788  0.61987979  1  0  -0.706564  0  1.412988  0  0  -0.70428  0  1.639431  0  0  -0.728946  0  1.624329  0  -0.868155  0  -0.530669  -0.687843  0  1.649407  0
O  O109  1  0.93299574  0.62918253  0.38012006  1  0  -0.706489  0  1.412978  0  0  -0.70422  0  1.639439  0  0  -0.728885  0  1.624339  0  -0.868156  0  -0.530665  -0.687786  0  1.649418  0
O  O110  1  0.78164880  0.94171067  0.70429814  1  0  -0.700441  0  1.427519  0  0  -0.704144  0  1.658092  0  0  -0.726414  0  1.639849  0  -0.866958  0  -0.529218  -0.689417  0  1.670131  0
O  O111  1  0.21834721  0.05828882  0.29570156  1  0  -0.700468  0  1.427491  0  0  -0.704184  0  1.658046  0  0  -0.726455  0  1.639804  0  -0.866902  0  -0.529251  -0.689456  0  1.670083  0
O  O112  1  0.92952463  0.14140180  0.64690392  1  0  -0.884443  0  1.78135  0  0  -0.887752  0  2.069708  0  0  -0.927629  0  2.059563  0  -1.029404  0  -0.588665  -0.860802  0  2.075964  0
O  O113  1  0.07047177  0.85859491  0.35309478  1  0  -0.884384  0  1.781309  0  0  -0.887679  0  2.069649  0  0  -0.927556  0  2.059504  0  -1.029386  0  -0.588657  -0.860733  0  2.075909  0
O  O114  1  0.73876602  0.98329262  0.48098724  1  0  -0.884448  0  1.722315  0  0  -0.881956  0  1.990156  0  0  -0.921362  0  1.977794  0  -1.03308  0  -0.589802  -0.855765  0  1.998612  0
O  O115  1  0.26123178  0.01670594  0.51901280  1  0  -0.884419  0  1.722296  0  0  -0.881923  0  1.990122  0  0  -0.921327  0  1.977759  0  -1.033033  0  -0.589803  -0.855731  0  1.998577  0
O  O116  1  0.34380128  0.97592816  0.74295948  1  0  -0.705649  0  1.38011  0  0  -0.708475  0  1.593028  0  0  -0.732438  0  1.578364  0  -0.867464  0  -0.542033  -0.692304  0  1.602123  0
O  O117  1  0.65619493  0.02406762  0.25703983  1  0  -0.705725  0  1.380155  0  0  -0.708541  0  1.593077  0  0  -0.732502  0  1.578408  0  -0.86752  0  -0.542059  -0.692367  0  1.602165  0
O  O118  1  0.05564796  0.95723966  0.70353949  1  0  -0.868651  0  1.775668  0  0  -0.869521  0  2.062301  0  0  -0.910839  0  2.055638  0  -1.022292  0  -0.582097  -0.841876  0  2.066278  0
O  O119  1  0.94435004  0.04275982  0.29646148  1  0  -0.868538  0  1.775567  0  0  -0.869402  0  2.062182  0  0  -0.910719  0  2.055517  0  -1.022225  0  -0.58205  -0.84176  0  2.066165  0
O  O120  1  0.19014791  0.15889390  0.66810082  1  0  -0.894075  0  1.768535  0  0  -0.896535  0  2.053368  0  0  -0.935886  0  2.041824  0  -1.039204  0  -0.590537  -0.869827  0  2.060451  0
O  O121  1  0.80984770  0.84110373  0.33189779  1  0  -0.89403  0  1.768563  0  0  -0.896476  0  2.053385  0  0  -0.935816  0  2.041823  0  -1.039194  0  -0.590479  -0.869768  0  2.060462  0
O  O122  1  0.13724810  0.20173614  0.46387564  1  0  -0.885485  0  1.747111  0  0  -0.888563  0  2.037522  0  0  -0.927583  0  2.024642  0  -1.038079  0  -0.585232  -0.862305  0  2.045827  0
O  O123  1  0.86274831  0.79826056  0.53612153  1  0  -0.885438  0  1.747061  0  0  -0.888539  0  2.037525  0  0  -0.927563  0  2.024649  0  -1.038079  0  -0.58522  -0.86227  0  2.0458  0
O  O124  1  0.99999673  0.00000000  0.50000002  1  0  -1.434284  0  2.286967  0  0  -1.391535  0  2.532509  0  0  -1.444554  0  2.542416  0  -1.356848  0  -0.671975  -1.355371  0  2.525782  0
O  O125  1  0.87500310  0.18372733  0.44323495  1  0  -0.882455  0  1.808921  0  0  -0.886433  0  2.105404  0  0  -0.927676  0  2.097082  0  -1.024359  0  -0.583181  -0.858526  0  2.110154  0
O  O126  1  0.12499470  0.81627123  0.55676509  1  0  -0.882491  0  1.809058  0  0  -0.886447  0  2.105512  0  0  -0.927693  0  2.0972  0  -1.024512  0  -0.583189  -0.85853  0  2.110238  0
