# generated using pymatgen
data_ZnH8C8Cl2O
_symmetry_space_group_name_H-M   'P 1'
_cell_length_a   6.35470327
_cell_length_b   7.16310691
_cell_length_c   20.84358434
_cell_angle_alpha   90.00023972
_cell_angle_beta   89.99979142
_cell_angle_gamma   90.00079042
_symmetry_Int_Tables_number   1
_chemical_formula_structural   ZnH8C8Cl2O
_chemical_formula_sum   'Zn4 H32 C32 Cl8 O4'
_cell_volume   948.78784585
_cell_formula_units_Z   4
loop_
 _symmetry_equiv_pos_site_id
 _symmetry_equiv_pos_as_xyz
  1  'x, y, z'
loop_
 _atom_site_type_symbol
 _atom_site_label
 _atom_site_symmetry_multiplicity
 _atom_site_fract_x
 _atom_site_fract_y
 _atom_site_fract_z
 _atom_site_occupancy
 _atom_site_hle17_bader_spin_density
 _atom_site_hle17_ddec_charge
 _atom_site_hle17_ddec_spin_density
 _atom_site_hle17_ddec_sum_bond_order
 _atom_site_hle17_magmom
 _atom_site_hse06_10hf_bader_spin_density
 _atom_site_hse06_10hf_ddec_charge
 _atom_site_hse06_10hf_ddec_spin_density
 _atom_site_hse06_10hf_ddec_sum_bond_order
 _atom_site_hse06_10hf_magmom
 _atom_site_hse06_bader_spin_density
 _atom_site_hse06_ddec_charge
 _atom_site_hse06_ddec_spin_density
 _atom_site_hse06_ddec_sum_bond_order
 _atom_site_hse06_magmom
 _atom_site_pbe_bader_spin_density
 _atom_site_pbe_cm5_charge
 _atom_site_pbe_ddec_charge
 _atom_site_pbe_ddec_spin_density
 _atom_site_pbe_ddec_sum_bond_order
 _atom_site_pbe_magmom
Zn  Zn0  1  0.33235543  0.37262174  0.74278944  1  0  0.902119  0  2.097585  0  0  0.74691  0  2.590785  0  0  0.789061  0  2.539062  0  0  0.506462  0.717046  0  2.627145  0
Zn  Zn1  1  0.83236710  0.62738745  0.25721170  1  0  0.90205  0  2.097613  0  0  0.746879  0  2.590753  0  0  0.789027  0  2.539033  0  0  0.50643  0.717008  0  2.627117  0
Zn  Zn2  1  0.33238201  0.87260821  0.75720911  1  0  0.902046  0  2.097544  0  0  0.746872  0  2.590685  0  0  0.789023  0  2.53897  0  0  0.506431  0.71701  0  2.627049  0
Zn  Zn3  1  0.83237672  0.12738005  0.24278963  1  0  0.902001  0  2.097383  0  0  0.746833  0  2.590491  0  0  0.788986  0  2.538775  0  0  0.506429  0.716963  0  2.626847  0
H  H4  1  0.79614231  0.38527562  0.52577444  1  0  0.092889  0  0.962635  0  0  0.104846  0  1.023122  0  0  0.106704  0  1.023729  0  0  0.10342  0.103545  0  1.022639  0
H  H5  1  0.29611736  0.61475345  0.47424252  1  0  0.092795  0  0.962857  0  0  0.104875  0  1.023183  0  0  0.106757  0  1.023741  0  0  0.103409  0.103542  0  1.022796  0
H  H6  1  0.79615212  0.88522654  0.97422071  1  0  0.092898  0  0.962896  0  0  0.104851  0  1.023375  0  0  0.106714  0  1.023965  0  0  0.103402  0.103549  0  1.022892  0
H  H7  1  0.29612643  0.11472435  0.02576411  1  0  0.092793  0  0.962758  0  0  0.104859  0  1.023126  0  0  0.106737  0  1.023688  0  0  0.103419  0.103537  0  1.022702  0
H  H8  1  0.81497271  0.28317197  0.41174333  1  0  0.094077  0  0.973065  0  0  0.100788  0  1.039757  0  0  0.103467  0  1.039276  0  0  0.091633  0.098832  0  1.040242  0
H  H9  1  0.31498502  0.71686603  0.58827029  1  0  0.094111  0  0.97313  0  0  0.100851  0  1.039748  0  0  0.103525  0  1.039287  0  0  0.091697  0.098896  0  1.040218  0
H  H10  1  0.81494239  0.78312743  0.08825614  1  0  0.09411  0  0.973143  0  0  0.1008  0  1.039825  0  0  0.103488  0  1.03935  0  0  0.091695  0.098852  0  1.040296  0
H  H11  1  0.31496184  0.21686450  0.91173348  1  0  0.094119  0  0.972838  0  0  0.100788  0  1.039584  0  0  0.103489  0  1.039071  0  0  0.091636  0.098832  0  1.040066  0
H  H12  1  0.13924272  0.13429386  0.37016875  1  0  0.091479  0  0.963064  0  0  0.095877  0  1.034833  0  0  0.098494  0  1.033272  0  0  0.093095  0.093907  0  1.036134  0
H  H13  1  0.63925563  0.86575852  0.62983091  1  0  0.09139  0  0.963184  0  0  0.095798  0  1.034975  0  0  0.09841  0  1.033423  0  0  0.093025  0.093827  0  1.036273  0
H  H14  1  0.13922389  0.63421266  0.12982514  1  0  0.091335  0  0.963325  0  0  0.095799  0  1.035045  0  0  0.098414  0  1.033487  0  0  0.093072  0.093827  0  1.036343  0
H  H15  1  0.63925244  0.36571128  0.87016492  1  0  0.091468  0  0.962845  0  0  0.09584  0  1.03468  0  0  0.098455  0  1.033123  0  0  0.09308  0.09387  0  1.035983  0
H  H16  1  0.44666306  0.08532969  0.44139292  1  0  0.096725  0  0.970075  0  0  0.104846  0  1.033052  0  0  0.107001  0  1.034034  0  0  0.094124  0.103305  0  1.032446  0
H  H17  1  0.94665079  0.91472753  0.55860250  1  0  0.096769  0  0.970168  0  0  0.10484  0  1.033162  0  0  0.107007  0  1.034111  0  0  0.094102  0.103298  0  1.03256  0
H  H18  1  0.44661936  0.58525071  0.05859588  1  0  0.096773  0  0.970275  0  0  0.104921  0  1.033158  0  0  0.107082  0  1.034124  0  0  0.094189  0.103379  0  1.032556  0
H  H19  1  0.94667404  0.41465993  0.94138658  1  0  0.09675  0  0.969891  0  0  0.104872  0  1.032913  0  0  0.107035  0  1.033874  0  0  0.094137  0.103332  0  1.032308  0
H  H20  1  0.42903333  0.18544684  0.55624972  1  0  0.09776  0  0.954041  0  0  0.107678  0  1.016624  0  0  0.1108  0  1.014569  0  0  0.104082  0.105432  0  1.01811  0
H  H21  1  0.92904047  0.81456798  0.44375385  1  0  0.097785  0  0.954053  0  0  0.107697  0  1.016645  0  0  0.110815  0  1.014604  0  0  0.104053  0.105451  0  1.018122  0
H  H22  1  0.42902979  0.68541208  0.94374150  1  0  0.097796  0  0.954095  0  0  0.107744  0  1.016613  0  0  0.110876  0  1.014574  0  0  0.104052  0.105494  0  1.018097  0
H  H23  1  0.92905818  0.31449944  0.05623808  1  0  0.097835  0  0.953982  0  0  0.107706  0  1.016602  0  0  0.110837  0  1.014559  0  0  0.104074  0.105457  0  1.018084  0
H  H24  1  0.77944169  0.29420454  0.63652177  1  0  0.147891  0  0.92844  0  0  0.169641  0  0.984747  0  0  0.172123  0  0.983515  0  0  0.100376  0.167777  0  0.985797  0
H  H25  1  0.27943641  0.70581008  0.36348416  1  0  0.147844  0  0.928517  0  0  0.169608  0  0.984828  0  0  0.172094  0  0.983594  0  0  0.100325  0.167748  0  0.985874  0
H  H26  1  0.77943712  0.79418342  0.86347255  1  0  0.147867  0  0.928535  0  0  0.16963  0  0.984846  0  0  0.172115  0  0.983611  0  0  0.100335  0.167769  0  0.985894  0
H  H27  1  0.27946615  0.20581305  0.13651611  1  0  0.147895  0  0.928379  0  0  0.169632  0  0.984714  0  0  0.172117  0  0.983478  0  0  0.10035  0.16777  0  0.98576  0
H  H28  1  0.84657089  0.53194527  0.62582882  1  0  0.144476  0  0.953794  0  0  0.164691  0  1.016404  0  0  0.166095  0  1.017641  0  0  0.099475  0.16366  0  1.015601  0
H  H29  1  0.34656209  0.46806713  0.37416033  1  0  0.144575  0  0.953779  0  0  0.16482  0  1.016356  0  0  0.166231  0  1.017588  0  0  0.099523  0.163792  0  1.015549  0
H  H30  1  0.84659592  0.03191110  0.87416194  1  0  0.144512  0  0.954074  0  0  0.164811  0  1.016592  0  0  0.166222  0  1.017821  0  0  0.09951  0.163779  0  1.015791  0
H  H31  1  0.34655595  0.96806780  0.12584400  1  0  0.144554  0  0.953888  0  0  0.164762  0  1.016499  0  0  0.166173  0  1.017727  0  0  0.09949  0.16373  0  1.015695  0
H  H32  1  0.91785135  0.41749635  0.69829498  1  0  0.139685  0  0.98885  0  0  0.155243  0  1.05486  0  0  0.157479  0  1.054474  0  0  0.081997  0.153559  0  1.055256  0
H  H33  1  0.41784533  0.58256282  0.30170235  1  0  0.139703  0  0.988669  0  0  0.155292  0  1.054687  0  0  0.157516  0  1.05432  0  0  0.081979  0.153614  0  1.055094  0
H  H34  1  0.91783269  0.91745490  0.80170942  1  0  0.139785  0  0.988757  0  0  0.155371  0  1.054762  0  0  0.157592  0  1.054398  0  0  0.081978  0.153696  0  1.055169  0
H  H35  1  0.41785770  0.08254843  0.19829702  1  0  0.139627  0  0.988863  0  0  0.155209  0  1.05488  0  0  0.157434  0  1.054507  0  0  0.081959  0.153522  0  1.055294  0
C  C36  1  0.10479502  0.34594327  0.61661358  1  0  0.534416  0  3.616051  0  0  0.514737  0  3.878349  0  0  0.541426  0  3.878328  0  0  0.179103  0.496546  0  3.878018  0
C  C37  1  0.60479847  0.65407599  0.38338703  1  0  0.534418  0  3.616293  0  0  0.514728  0  3.878597  0  0  0.541418  0  3.878586  0  0  0.17912  0.496538  0  3.878264  0
C  C38  1  0.10479780  0.84594140  0.88338572  1  0  0.534482  0  3.615881  0  0  0.514885  0  3.878111  0  0  0.541568  0  3.878099  0  0  0.179214  0.496697  0  3.877787  0
C  C39  1  0.60480670  0.15403318  0.11661153  1  0  0.534267  0  3.616164  0  0  0.514742  0  3.878254  0  0  0.541426  0  3.878234  0  0  0.178965  0.496554  0  3.877924  0
C  C40  1  0.11284053  0.29195694  0.54846823  1  0  -0.080399  0  3.775216  0  0  -0.057251  0  4.006447  0  0  -0.067723  0  4.032549  0  0  -0.023621  -0.050303  0  3.988773  0
C  C41  1  0.61282452  0.70804440  0.45153478  1  0  -0.080233  0  3.774868  0  0  -0.057022  0  4.006045  0  0  -0.067494  0  4.032143  0  0  -0.02361  -0.05007  0  3.988374  0
C  C42  1  0.11285566  0.79199017  0.95153699  1  0  -0.080368  0  3.775125  0  0  -0.057237  0  4.006338  0  0  -0.067695  0  4.032421  0  0  -0.023656  -0.050293  0  3.988669  0
C  C43  1  0.61284715  0.20802095  0.04846698  1  0  -0.080597  0  3.774896  0  0  -0.057478  0  4.006117  0  0  -0.067937  0  4.03219  0  0  -0.023639  -0.050528  0  3.988445  0
C  C44  1  0.93902748  0.31974496  0.50760859  1  0  -0.069608  0  3.715314  0  0  -0.090883  0  3.957267  0  0  -0.090593  0  3.980451  0  0  -0.077719  -0.090834  0  3.941407  0
C  C45  1  0.43901265  0.68027853  0.49240265  1  0  -0.069744  0  3.715971  0  0  -0.091193  0  3.958019  0  0  -0.090899  0  3.981208  0  0  -0.077803  -0.091152  0  3.942137  0
C  C46  1  0.93902737  0.81973027  0.99240034  1  0  -0.069734  0  3.715599  0  0  -0.091042  0  3.95757  0  0  -0.090755  0  3.980755  0  0  -0.0777  -0.090991  0  3.941708  0
C  C47  1  0.43902220  0.18026809  0.00760083  1  0  -0.069458  0  3.715481  0  0  -0.090871  0  3.957508  0  0  -0.090582  0  3.980702  0  0  -0.07774  -0.090832  0  3.941638  0
C  C48  1  0.94916430  0.26411718  0.44364152  1  0  -0.073014  0  3.743692  0  0  -0.085422  0  3.994224  0  0  -0.090185  0  4.017101  0  0  -0.089348  -0.082295  0  3.978713  0
C  C49  1  0.44912225  0.73595826  0.55635773  1  0  -0.072862  0  3.743873  0  0  -0.085259  0  3.994441  0  0  -0.090031  0  4.017313  0  0  -0.089417  -0.082121  0  3.978918  0
C  C50  1  0.94911121  0.76403931  0.05636157  1  0  -0.072913  0  3.743461  0  0  -0.085284  0  3.994036  0  0  -0.09006  0  4.016897  0  0  -0.089445  -0.082166  0  3.978531  0
C  C51  1  0.44916589  0.23589653  0.94363913  1  0  -0.073141  0  3.743741  0  0  -0.085475  0  3.994299  0  0  -0.090258  0  4.01718  0  0  -0.089359  -0.082348  0  3.97879  0
C  C52  1  0.13164598  0.17910845  0.42011287  1  0  -0.030512  0  3.709238  0  0  -0.045518  0  3.955891  0  0  -0.044987  0  3.976049  0  0  -0.075812  -0.04555  0  3.942038  0
C  C53  1  0.63163373  0.82090601  0.57989255  1  0  -0.030466  0  3.709001  0  0  -0.045516  0  3.955668  0  0  -0.044983  0  3.975826  0  0  -0.075721  -0.04555  0  3.941817  0
C  C54  1  0.13163004  0.67908938  0.07989344  1  0  -0.030335  0  3.709026  0  0  -0.045442  0  3.955707  0  0  -0.044909  0  3.975863  0  0  -0.075735  -0.045476  0  3.94186  0
C  C55  1  0.63165125  0.32088600  0.92011102  1  0  -0.030332  0  3.709422  0  0  -0.045354  0  3.956088  0  0  -0.044823  0  3.976254  0  0  -0.075758  -0.045391  0  3.942243  0
C  C56  1  0.30528228  0.15132252  0.46034654  1  0  -0.084754  0  3.75061  0  0  -0.093858  0  3.996969  0  0  -0.09906  0  4.020361  0  0  -0.091335  -0.090424  0  3.981049  0
C  C57  1  0.80528824  0.84871101  0.53965892  1  0  -0.084768  0  3.749941  0  0  -0.093791  0  3.996275  0  0  -0.098987  0  4.01966  0  0  -0.091303  -0.090358  0  3.980359  0
C  C58  1  0.30528314  0.65130397  0.03966062  1  0  -0.084782  0  3.75018  0  0  -0.093881  0  3.996539  0  0  -0.099083  0  4.019935  0  0  -0.091403  -0.090448  0  3.980615  0
C  C59  1  0.80527321  0.34865556  0.96033620  1  0  -0.084695  0  3.750912  0  0  -0.093803  0  3.997274  0  0  -0.099005  0  4.020674  0  0  -0.091382  -0.090369  0  3.981358  0
C  C60  1  0.29652396  0.20816346  0.52406317  1  0  -0.050659  0  3.710911  0  0  -0.077143  0  3.959553  0  0  -0.07554  0  3.979717  0  0  -0.075595  -0.078026  0  3.945826  0
C  C61  1  0.79652410  0.79181536  0.47593749  1  0  -0.05077  0  3.710462  0  0  -0.077277  0  3.959119  0  0  -0.075679  0  3.979285  0  0  -0.075584  -0.078154  0  3.945384  0
C  C62  1  0.29654947  0.70820813  0.97593927  1  0  -0.050801  0  3.710687  0  0  -0.077283  0  3.959292  0  0  -0.07571  0  3.979478  0  0  -0.075602  -0.078158  0  3.945558  0
C  C63  1  0.79654580  0.29181397  0.02405131  1  0  -0.050739  0  3.710651  0  0  -0.077169  0  3.959278  0  0  -0.075581  0  3.979431  0  0  -0.075532  -0.078047  0  3.945546  0
C  C64  1  0.90115423  0.39905811  0.64649353  1  0  -0.452115  0  3.696579  0  0  -0.532099  0  3.925383  0  0  -0.539122  0  3.92947  0  0  -0.254956  -0.527031  0  3.922575  0
C  C65  1  0.40116717  0.60097265  0.35351099  1  0  -0.452104  0  3.696819  0  0  -0.532133  0  3.925483  0  0  -0.539155  0  3.929612  0  0  -0.254849  -0.527075  0  3.92264  0
C  C66  1  0.90114521  0.89902317  0.85350820  1  0  -0.452164  0  3.697142  0  0  -0.53228  0  3.925777  0  0  -0.539295  0  3.929897  0  0  -0.254912  -0.527231  0  3.92295  0
C  C67  1  0.40116833  0.10096431  0.14649248  1  0  -0.452054  0  3.696705  0  0  -0.532065  0  3.92532  0  0  -0.539076  0  3.929433  0  0  -0.254853  -0.527012  0  3.922509  0
Cl  Cl68  1  0.07769584  0.38123186  0.81383136  1  0  -0.540244  0  0.976748  0  0  -0.472402  0  1.250925  0  0  -0.489407  0  1.229419  0  0  -0.292581  -0.460143  0  1.265783  0
Cl  Cl69  1  0.57770944  0.61871960  0.18616972  1  0  -0.540206  0  0.976718  0  0  -0.472381  0  1.250867  0  0  -0.489387  0  1.229367  0  0  -0.292586  -0.460123  0  1.265729  0
Cl  Cl70  1  0.07768810  0.88126523  0.68617230  1  0  -0.540251  0  0.976629  0  0  -0.472414  0  1.250739  0  0  -0.48942  0  1.229238  0  0  -0.2926  -0.460156  0  1.265601  0
Cl  Cl71  1  0.57769515  0.11871554  0.31383454  1  0  -0.540193  0  0.976513  0  0  -0.472379  0  1.250664  0  0  -0.48939  0  1.229162  0  0  -0.292609  -0.460117  0  1.265521  0
Cl  Cl72  1  0.55999228  0.62254767  0.74762399  1  0  -0.449831  0  1.219012  0  0  -0.374646  0  1.551212  0  0  -0.393864  0  1.523611  0  0  -0.208625  -0.360869  0  1.571182  0
Cl  Cl73  1  0.05998569  0.37744933  0.25237852  1  0  -0.449871  0  1.218989  0  0  -0.374689  0  1.551178  0  0  -0.393908  0  1.523576  0  0  -0.208647  -0.360909  0  1.571147  0
Cl  Cl74  1  0.55997647  0.12256660  0.75238289  1  0  -0.449955  0  1.219044  0  0  -0.374752  0  1.551212  0  0  -0.393971  0  1.523611  0  0  -0.208674  -0.360976  0  1.571185  0
Cl  Cl75  1  0.05999521  0.87744436  0.24762251  1  0  -0.449868  0  1.218997  0  0  -0.374675  0  1.551188  0  0  -0.393896  0  1.523587  0  0  -0.208636  -0.360893  0  1.571154  0
O  O76  1  0.27417152  0.34685375  0.64786925  1  0  -0.510326  0  2.124638  0  0  -0.435995  0  2.381766  0  0  -0.462146  0  2.372197  0  0  -0.264085  -0.418083  0  2.388008  0
O  O77  1  0.77418366  0.65316211  0.35213332  1  0  -0.510374  0  2.124501  0  0  -0.436081  0  2.381664  0  0  -0.462208  0  2.372042  0  0  -0.264153  -0.418165  0  2.387903  0
O  O78  1  0.27418614  0.84685494  0.85213343  1  0  -0.510379  0  2.124468  0  0  -0.436117  0  2.38158  0  0  -0.462253  0  2.371983  0  0  -0.264195  -0.418202  0  2.387822  0
O  O79  1  0.77419107  0.15317907  0.14786818  1  0  -0.510252  0  2.124329  0  0  -0.436014  0  2.381412  0  0  -0.462178  0  2.37187  0  0  -0.264072  -0.41808  0  2.387604  0
