# generated using pymatgen
data_CuH4C5Br2N
_symmetry_space_group_name_H-M   'P 1'
_cell_length_a   3.85927421
_cell_length_b   8.66619283
_cell_length_c   21.01299602
_cell_angle_alpha   100.86612957
_cell_angle_beta   90.00047861
_cell_angle_gamma   90.00142620
_symmetry_Int_Tables_number   1
_chemical_formula_structural   CuH4C5Br2N
_chemical_formula_sum   'Cu4 H16 C20 Br8 N4'
_cell_volume   690.18346771
_cell_formula_units_Z   4
loop_
 _symmetry_equiv_pos_site_id
 _symmetry_equiv_pos_as_xyz
  1  'x, y, z'
loop_
 _atom_site_type_symbol
 _atom_site_label
 _atom_site_symmetry_multiplicity
 _atom_site_fract_x
 _atom_site_fract_y
 _atom_site_fract_z
 _atom_site_occupancy
 _atom_site_hle17_bader_spin_density
 _atom_site_hle17_ddec_charge
 _atom_site_hle17_ddec_spin_density
 _atom_site_hle17_ddec_sum_bond_order
 _atom_site_hle17_magmom
 _atom_site_hse06_10hf_bader_spin_density
 _atom_site_hse06_10hf_ddec_charge
 _atom_site_hse06_10hf_ddec_spin_density
 _atom_site_hse06_10hf_ddec_sum_bond_order
 _atom_site_hse06_10hf_magmom
 _atom_site_hse06_bader_spin_density
 _atom_site_hse06_ddec_charge
 _atom_site_hse06_ddec_spin_density
 _atom_site_hse06_ddec_sum_bond_order
 _atom_site_hse06_magmom
 _atom_site_pbe_bader_spin_density
 _atom_site_pbe_cm5_charge
 _atom_site_pbe_ddec_charge
 _atom_site_pbe_ddec_spin_density
 _atom_site_pbe_ddec_sum_bond_order
 _atom_site_pbe_magmom
Cu  Cu0  1  0.11420343  0.81327392  0.79089427  1  0  0.303963  0  2.068306  0  0  0.209268  0  2.570089  0  0  0.222793  0  2.508989  0  0  0.281579  0.202328  0  2.610704  0
Cu  Cu1  1  0.61419355  0.68672164  0.70911021  1  0  0.303886  0  2.068465  0  0  0.209223  0  2.570196  0  0  0.2228  0  2.509103  0  0  0.281569  0.202269  0  2.610856  0
Cu  Cu2  1  0.88582721  0.18673190  0.20910354  1  0  0.303871  0  2.068351  0  0  0.209163  0  2.570137  0  0  0.222733  0  2.509045  0  0  0.281536  0.202206  0  2.61079  0
Cu  Cu3  1  0.38583191  0.31326891  0.29088738  1  0  0.303897  0  2.068567  0  0  0.209211  0  2.570371  0  0  0.222771  0  2.509289  0  0  0.281582  0.202238  0  2.61103  0
H  H4  1  0.19006296  0.40879784  0.82185745  1  0  0.103691  0  0.980579  0  0  0.112504  0  1.044572  0  0  0.115667  0  1.044049  0  0  0.091174  0.10998  0  1.04544  0
H  H5  1  0.69004390  0.09119184  0.67813774  1  0  0.103731  0  0.980638  0  0  0.112557  0  1.044604  0  0  0.115716  0  1.04408  0  0  0.091235  0.110033  0  1.045477  0
H  H6  1  0.80995731  0.59121153  0.17814444  1  0  0.103598  0  0.980632  0  0  0.112423  0  1.044633  0  0  0.115587  0  1.044107  0  0  0.091134  0.109899  0  1.045513  0
H  H7  1  0.30991159  0.90879050  0.32186208  1  0  0.103614  0  0.980665  0  0  0.112508  0  1.04456  0  0  0.11567  0  1.044037  0  0  0.091188  0.109983  0  1.045428  0
H  H8  1  0.82364452  0.95968994  0.91847117  1  0  0.080826  0  0.977241  0  0  0.080668  0  1.059683  0  0  0.084771  0  1.05533  0  0  0.093827  0.077569  0  1.063025  0
H  H9  1  0.32360064  0.54031187  0.58153692  1  0  0.080914  0  0.977226  0  0  0.080724  0  1.059699  0  0  0.084825  0  1.055346  0  0  0.093879  0.077624  0  1.063049  0
H  H10  1  0.17639648  0.04031001  0.08152666  1  0  0.080895  0  0.97734  0  0  0.080759  0  1.059751  0  0  0.08486  0  1.055401  0  0  0.093884  0.077663  0  1.063094  0
H  H11  1  0.67639890  0.45968692  0.41846463  1  0  0.080993  0  0.977282  0  0  0.080775  0  1.05978  0  0  0.084875  0  1.055428  0  0  0.093892  0.077674  0  1.063123  0
H  H12  1  0.91863692  0.46285532  0.93178822  1  0  0.103916  0  0.961254  0  0  0.10814  0  1.035365  0  0  0.112397  0  1.030944  0  0  0.093192  0.104906  0  1.0388  0
H  H13  1  0.41863362  0.03714905  0.56820411  1  0  0.103909  0  0.961276  0  0  0.108094  0  1.035403  0  0  0.112377  0  1.030935  0  0  0.09321  0.104857  0  1.038842  0
H  H14  1  0.08134449  0.53714934  0.06821093  1  0  0.103903  0  0.961293  0  0  0.108087  0  1.035397  0  0  0.112367  0  1.030955  0  0  0.093193  0.104855  0  1.038827  0
H  H15  1  0.58131668  0.96284856  0.43179545  1  0  0.103949  0  0.961179  0  0  0.108123  0  1.035275  0  0  0.11242  0  1.030794  0  0  0.09322  0.10488  0  1.038728  0
H  H16  1  0.25918115  0.12802923  0.76443015  1  0  0.072229  0  0.969238  0  0  0.079135  0  1.039819  0  0  0.081621  0  1.037992  0  0  0.103372  0.077249  0  1.041299  0
H  H17  1  0.75913304  0.37195905  0.73557454  1  0  0.07226  0  0.969319  0  0  0.079199  0  1.039838  0  0  0.081683  0  1.038015  0  0  0.103365  0.077311  0  1.041311  0
H  H18  1  0.74087280  0.87198249  0.23557240  1  0  0.072267  0  0.969257  0  0  0.079147  0  1.039859  0  0  0.081634  0  1.038031  0  0  0.103351  0.077258  0  1.041341  0
H  H19  1  0.24083281  0.62802565  0.26442641  1  0  0.072214  0  0.969235  0  0  0.079111  0  1.039807  0  0  0.081605  0  1.037971  0  0  0.103356  0.077228  0  1.041296  0
C  C20  1  0.10309133  0.31187233  0.84431238  1  0  -0.103463  0  3.736835  0  0  -0.111116  0  3.982335  0  0  -0.118482  0  4.004349  0  0  -0.08911  -0.106558  0  3.968114  0
C  C21  1  0.60306573  0.18812446  0.65568562  1  0  -0.103236  0  3.736933  0  0  -0.110914  0  3.982421  0  0  -0.118283  0  4.00445  0  0  -0.089027  -0.106362  0  3.968209  0
C  C22  1  0.89693153  0.68813585  0.15568847  1  0  -0.103287  0  3.736853  0  0  -0.110992  0  3.982345  0  0  -0.118359  0  4.004368  0  0  -0.089115  -0.106445  0  3.968155  0
C  C23  1  0.39689495  0.81186846  0.34431405  1  0  -0.103419  0  3.73685  0  0  -0.111156  0  3.982323  0  0  -0.118523  0  4.004349  0  0  -0.089172  -0.106591  0  3.968111  0
C  C24  1  0.90171832  0.06179924  0.89854826  1  0  0.069361  0  3.682262  0  0  0.030802  0  3.935925  0  0  0.037573  0  3.95171  0  0  0.026767  0.026249  0  3.925792  0
C  C25  1  0.40168834  0.43820145  0.60145613  1  0  0.069031  0  3.682471  0  0  0.030498  0  3.936119  0  0  0.037261  0  3.951911  0  0  0.026609  0.025935  0  3.925999  0
C  C26  1  0.09831231  0.93820659  0.10145097  1  0  0.069095  0  3.682525  0  0  0.030522  0  3.936156  0  0  0.037284  0  3.951943  0  0  0.026585  0.025962  0  3.926031  0
C  C27  1  0.59829825  0.56179147  0.39854402  1  0  0.068935  0  3.682479  0  0  0.030469  0  3.936071  0  0  0.037251  0  3.951861  0  0  0.026609  0.025916  0  3.925926  0
C  C28  1  0.85481540  0.21442657  0.93291467  1  0  0.031038  0  3.729848  0  0  0.051893  0  3.991913  0  0  0.04963  0  4.01535  0  0  -0.022627  0.053081  0  3.976111  0
C  C29  1  0.35481456  0.28557936  0.56708530  1  0  0.031113  0  3.729965  0  0  0.051972  0  3.991934  0  0  0.049706  0  4.015384  0  0  -0.022596  0.053169  0  3.976125  0
C  C30  1  0.14519191  0.78557573  0.06708334  1  0  0.031125  0  3.729659  0  0  0.051978  0  3.991718  0  0  0.049716  0  4.015159  0  0  -0.022609  0.053171  0  3.975916  0
C  C31  1  0.64516685  0.71442061  0.43291586  1  0  0.031193  0  3.729662  0  0  0.052057  0  3.991605  0  0  0.049792  0  4.01505  0  0  -0.022525  0.053241  0  3.975818  0
C  C32  1  0.95393509  0.34263973  0.90589158  1  0  -0.057038  0  3.721212  0  0  -0.086315  0  3.973127  0  0  -0.081946  0  3.989421  0  0  -0.083105  -0.089184  0  3.962391  0
C  C33  1  0.45392126  0.15736158  0.59410342  1  0  -0.057068  0  3.721206  0  0  -0.086324  0  3.9732  0  0  -0.081966  0  3.989505  0  0  -0.083126  -0.089191  0  3.962469  0
C  C34  1  0.04606704  0.65736492  0.09410805  1  0  -0.057008  0  3.721098  0  0  -0.086227  0  3.973063  0  0  -0.081883  0  3.989347  0  0  -0.083037  -0.089095  0  3.962331  0
C  C35  1  0.54603682  0.84263485  0.40589510  1  0  -0.057143  0  3.721053  0  0  -0.086372  0  3.973095  0  0  -0.082027  0  3.989391  0  0  -0.08316  -0.089241  0  3.962361  0
C  C36  1  0.14473421  0.15715101  0.81261849  1  0  0.107419  0  3.678927  0  0  0.077666  0  3.924451  0  0  0.084525  0  3.941458  0  0  0.030152  0.072931  0  3.91375  0
C  C37  1  0.64469757  0.34284400  0.68738514  1  0  0.107294  0  3.679133  0  0  0.077517  0  3.924676  0  0  0.084406  0  3.941615  0  0  0.030101  0.072781  0  3.913987  0
C  C38  1  0.85530938  0.84285835  0.18738292  1  0  0.107293  0  3.67897  0  0  0.077582  0  3.924491  0  0  0.084438  0  3.941484  0  0  0.030175  0.072852  0  3.913799  0
C  C39  1  0.35527346  0.65714775  0.31261683  1  0  0.10758  0  3.678707  0  0  0.077875  0  3.92423  0  0  0.084735  0  3.941248  0  0  0.030245  0.073116  0  3.913563  0
Br  Br40  1  0.60352056  0.66668389  0.82652700  1  0  -0.409523  0  1.599311  0  0  -0.336866  0  2.036949  0  0  -0.354799  0  1.993417  0  0  -0.217297  -0.323671  0  2.067101  0
Br  Br41  1  0.10352525  0.83331507  0.67347869  1  0  -0.409499  0  1.599261  0  0  -0.336845  0  2.036886  0  0  -0.354785  0  1.99335  0  0  -0.217281  -0.32365  0  2.067052  0
Br  Br42  1  0.39649971  0.33332312  0.17347281  1  0  -0.40948  0  1.599304  0  0  -0.336799  0  2.036921  0  0  -0.354751  0  1.993405  0  0  -0.217264  -0.323593  0  2.06709  0
Br  Br43  1  0.89648984  0.16668254  0.32652135  1  0  -0.409506  0  1.599295  0  0  -0.336861  0  2.036948  0  0  -0.354796  0  1.993403  0  0  -0.217295  -0.323652  0  2.067097  0
Br  Br44  1  0.66495830  0.24600843  0.01801929  1  0  -0.051344  0  1.422763  0  0  -0.041571  0  1.716832  0  0  -0.046183  0  1.710535  0  0  0.050811  -0.038717  0  1.721644  0
Br  Br45  1  0.16495972  0.25401187  0.48197807  1  0  -0.051374  0  1.422697  0  0  -0.041571  0  1.716739  0  0  -0.046197  0  1.710443  0  0  0.05077  -0.038717  0  1.721551  0
Br  Br46  1  0.33504383  0.75399269  0.98197768  1  0  -0.051399  0  1.422729  0  0  -0.041616  0  1.716804  0  0  -0.046229  0  1.710501  0  0  0.050777  -0.038762  0  1.721619  0
Br  Br47  1  0.83500873  0.74599162  0.51802289  1  0  -0.051365  0  1.422631  0  0  -0.041575  0  1.716694  0  0  -0.0462  0  1.710396  0  0  0.050778  -0.038709  0  1.721512  0
N  N48  1  0.04544879  0.03350310  0.83898077  1  0  -0.251069  0  3.363901  0  0  -0.17422  0  3.651181  0  0  -0.187601  0  3.661066  0  0  -0.358741  -0.166171  0  3.644813  0
N  N49  1  0.54541198  0.46649417  0.66102576  1  0  -0.250952  0  3.363988  0  0  -0.174125  0  3.651193  0  0  -0.187514  0  3.661107  0  0  -0.358711  -0.166063  0  3.644825  0
N  N50  1  0.95459221  0.96650273  0.16101847  1  0  -0.250877  0  3.364064  0  0  -0.174012  0  3.651247  0  0  -0.187385  0  3.66114  0  0  -0.358603  -0.165951  0  3.644875  0
N  N51  1  0.45457720  0.53349758  0.33897525  1  0  -0.250953  0  3.364033  0  0  -0.174175  0  3.651269  0  0  -0.187579  0  3.661182  0  0  -0.358713  -0.16609  0  3.644879  0
