# generated using pymatgen
data_Al2H7C16ClO10
_symmetry_space_group_name_H-M   'P 1'
_cell_length_a   6.65930863
_cell_length_b   14.35422720
_cell_length_c   16.91020846
_cell_angle_alpha   94.38876713
_cell_angle_beta   89.37107754
_cell_angle_gamma   89.69857773
_symmetry_Int_Tables_number   1
_chemical_formula_structural   Al2H7C16ClO10
_chemical_formula_sum   'Al4 H14 C32 Cl2 O20'
_cell_volume   1611.56677268
_cell_formula_units_Z   2
loop_
 _symmetry_equiv_pos_site_id
 _symmetry_equiv_pos_as_xyz
  1  'x, y, z'
loop_
 _atom_site_type_symbol
 _atom_site_label
 _atom_site_symmetry_multiplicity
 _atom_site_fract_x
 _atom_site_fract_y
 _atom_site_fract_z
 _atom_site_occupancy
 _atom_site_pbe_bader_charge
 _atom_site_pbe_bader_spin_density
 _atom_site_pbe_cm5_charge
 _atom_site_pbe_ddec_charge
 _atom_site_pbe_ddec_spin_density
 _atom_site_pbe_ddec_sum_bond_order
 _atom_site_pbe_magmom
Al  Al0  1  0.89005116  0.50211896  0.49804932  1  2.499682  0  0.402391  1.642974  0  2.5786  0
Al  Al1  1  0.39031712  0.50219920  0.49837524  1  2.500965  0  0.402325  1.641897  0  2.577551  0
Al  Al2  1  0.38637088  0.00167980  0.99744363  1  2.502026  0  0.399574  1.646793  0  2.576329  0
Al  Al3  1  0.88567881  0.00413474  0.99925614  1  2.502196  0  0.401008  1.646832  0  2.573251  0
H  H4  1  0.41413285  0.37875204  0.25953907  1  0.125604  0  0.113139  0.131286  0  0.990267  0
H  H5  1  0.90115295  0.75184720  0.64251866  1  0.122897  0  0.110031  0.127164  0  0.996374  0
H  H6  1  0.82750896  0.07653597  0.27170829  1  0.042247  0  0.101041  0.113289  0  0.973875  0
H  H7  1  0.17688094  0.76784991  0.84709776  1  0.096971  0  0.091018  0.103093  0  1.024831  0
H  H8  1  0.67345545  0.15258587  0.21923487  1  0.084822  0  0.092501  0.107613  0  1.016234  0
H  H9  1  0.32710050  0.69088288  0.90094456  1  0.042519  0  0.098914  0.10873  0  0.976038  0
H  H10  1  0.82023725  0.19255434  0.39083147  1  0.062421  0  0.099367  0.107643  0  0.978104  0
H  H11  1  0.16413314  0.64597944  0.73248697  1  0.09856  0  0.099027  0.116084  0  0.989688  0
H  H12  1  0.67137584  0.27031947  0.33810999  1  0.070052  0  0.099767  0.117161  0  0.990754  0
H  H13  1  0.31826295  0.57036890  0.78523139  1  0.06733  0  0.10093  0.110879  0  0.975463  0
H  H14  1  0.63985465  0.38209833  0.51452295  1  0.618226  0  0.35906  0.439428  0  0.841172  0
H  H15  1  0.14050317  0.62443609  0.48849682  1  0.64721  0  0.3589  0.439282  0  0.838955  0
H  H16  1  0.62891465  0.12170756  0.02948400  1  0.628792  0  0.340582  0.419941  0  0.883203  0
H  H17  1  0.13354710  0.88072959  0.97824127  1  0.603073  0  0.356957  0.436782  0  0.845609  0
C  C18  1  0.64964495  0.60975319  0.39606321  1  1.688432  0  0.279096  0.706567  0  4.168745  0
C  C19  1  0.13026741  0.39410035  0.60004371  1  1.675523  0  0.278632  0.708585  0  4.166503  0
C  C20  1  0.62777783  0.61602740  0.60965784  1  1.577266  0  0.270368  0.64978  0  4.097841  0
C  C21  1  0.15224865  0.39139415  0.38497875  1  1.583284  0  0.271465  0.649194  0  4.10148  0
C  C22  1  0.98991957  0.26242215  0.29876622  1  -0.039396  0  -0.00159  0.05988  0  3.884007  0
C  C23  1  0.48444368  0.68856271  0.73961582  1  0.016926  0  -0.002185  0.060203  0  3.884239  0
C  C24  1  0.14343078  0.32700556  0.31204248  1  0.0306  0  -0.005742  -0.062397  0  3.976834  0
C  C25  1  0.63103586  0.68470179  0.68000585  1  -0.063791  0  -0.006874  -0.063568  0  3.980334  0
C  C26  1  0.29387791  0.32768256  0.25286585  1  0.001191  0  -0.085771  -0.171729  0  3.967733  0
C  C27  1  0.78498716  0.75147610  0.68837383  1  0.013734  0  -0.088031  -0.174793  0  3.973226  0
C  C28  1  0.29094769  0.26519644  0.18539052  1  0.01775  0  0.022027  0.127893  0  4.017196  0
C  C29  1  0.79045076  0.81846991  0.75287400  1  0.039907  0  0.022098  0.127965  0  4.024593  0
C  C30  1  0.13984523  0.19633819  0.17337080  1  0.076454  0  -0.011381  -0.143125  0  3.945238  0
C  C31  1  0.64258002  0.82210652  0.81406252  1  0.028342  0  -0.011461  -0.143024  0  3.943445  0
C  C32  1  0.99034798  0.19900950  0.23192682  1  -0.014924  0  0.00041  0.073266  0  3.886735  0
C  C33  1  0.49172682  0.75521088  0.80401550  1  0.017589  0  -0.002287  0.069311  0  3.897075  0
C  C34  1  0.80300830  0.14948817  0.25851877  1  -0.024672  0  -0.150002  -0.198952  0  3.854773  0
C  C35  1  0.30416213  0.71873114  0.84290307  1  -0.045862  0  -0.152278  -0.201785  0  3.864823  0
C  C36  1  0.80103546  0.22253232  0.33348719  1  -0.033705  0  -0.14889  -0.194011  0  3.861977  0
C  C37  1  0.29701851  0.64282645  0.77005563  1  -0.079523  0  -0.147414  -0.192351  0  3.856547  0
C  C38  1  0.13621248  0.16809885  0.82868178  1  0.161211  0  0.004593  -0.12661  0  3.828434  0
C  C39  1  0.63497268  0.83536906  0.16710079  1  0.181283  0  0.00136  -0.136088  0  3.834503  0
C  C40  1  0.13642128  0.22012299  0.77471461  1  -0.191646  0  -0.006064  0.025341  0  4.223605  0
C  C41  1  0.63644692  0.78310038  0.22091924  1  -0.309788  0  -0.007205  0.02495  0  4.231107  0
C  C42  1  0.13577617  0.27819122  0.71562312  1  -0.336482  0  -0.00109  0.04468  0  4.233052  0
C  C43  1  0.63970147  0.72508876  0.28003639  1  -0.152499  0  -0.003682  0.039941  0  4.235583  0
C  C44  1  0.13438574  0.33134813  0.66245125  1  0.197748  0  -0.008067  -0.162029  0  3.857996  0
C  C45  1  0.64424127  0.67218962  0.33335829  1  0.089721  0  -0.005088  -0.154474  0  3.853203  0
C  C46  1  0.63935712  0.88926635  0.88567748  1  1.59221  0  0.275886  0.67507  0  4.077446  0
C  C47  1  0.13914469  0.12227489  0.10681311  1  1.584877  0  0.274222  0.671814  0  4.084459  0
C  C48  1  0.63829418  0.89562523  0.10247262  1  1.694223  0  0.274547  0.698609  0  4.184498  0
C  C49  1  0.13330700  0.10876569  0.89391534  1  1.699858  0  0.273206  0.692828  0  4.189559  0
Cl  Cl50  1  0.47691958  0.27919237  0.11415217  1  -0.217311  0  0.005586  -0.073941  0  1.492608  0
Cl  Cl51  1  0.98121126  0.90025960  0.75251595  1  -0.189357  0  0.0066  -0.062219  0  1.505908  0
O  O52  1  0.45943979  0.57820332  0.59271873  1  -1.253252  0  -0.230583  -0.580726  0  2.317666  0
O  O53  1  0.98859778  0.40377055  0.42445072  1  -1.258247  0  -0.234203  -0.594799  0  2.336056  0
O  O54  1  0.81929672  0.57369468  0.41009850  1  -1.22839  0  -0.221916  -0.567874  0  2.268582  0
O  O55  1  0.29617444  0.40728823  0.56443894  1  -1.235172  0  -0.225602  -0.583851  0  2.285041  0
O  O56  1  0.79219635  0.60154976  0.57105936  1  -1.259334  0  -0.239012  -0.604191  0  2.344589  0
O  O57  1  0.32144345  0.42729101  0.40342302  1  -1.259206  0  -0.234038  -0.586105  0  2.331039  0
O  O58  1  0.96059727  0.43007405  0.58572829  1  -1.228709  0  -0.223558  -0.572485  0  2.271579  0
O  O59  1  0.48431940  0.59699721  0.43215233  1  -1.233873  0  -0.224904  -0.580755  0  2.287659  0
O  O60  1  0.64084260  0.44410716  0.49553116  1  -1.418872  0  -0.447281  -0.997335  0  2.193735  0
O  O61  1  0.13946458  0.55979865  0.50122831  1  -1.446315  0  -0.4459  -0.994613  0  2.197799  0
O  O62  1  0.81001507  0.92580789  0.08344281  1  -1.220569  0  -0.224446  -0.570559  0  2.282993  0
O  O63  1  0.30261237  0.09040988  0.92325772  1  -1.232626  0  -0.223321  -0.570152  0  2.290882  0
O  O64  1  0.46620877  0.91824979  0.90939435  1  -1.252898  0  -0.227902  -0.583363  0  2.325536  0
O  O65  1  0.96879867  0.09922029  0.07810043  1  -1.254842  0  -0.229166  -0.584111  0  2.315091  0
O  O66  1  0.47018367  0.91130354  0.07091793  1  -1.226953  0  -0.226164  -0.574398  0  2.281889  0
O  O67  1  0.96114600  0.08224984  0.91585367  1  -1.224334  0  -0.222778  -0.570376  0  2.303682  0
O  O68  1  0.30730865  0.08626316  0.08510134  1  -1.258084  0  -0.232927  -0.598778  0  2.384695  0
O  O69  1  0.80440731  0.90987083  0.91956416  1  -1.257558  0  -0.233727  -0.603468  0  2.37084  0
O  O70  1  0.63434446  0.05951420  0.00247682  1  -1.432343  0  -0.44762  -0.989461  0  2.205856  0
O  O71  1  0.13571879  0.94651066  0.99587663  1  -1.403188  0  -0.44648  -0.994254  0  2.205327  0
