# generated using pymatgen
data_Zr3H14(C13O8)2
_symmetry_space_group_name_H-M   'P 1'
_cell_length_a   16.68687929
_cell_length_b   17.44367370
_cell_length_c   17.45710194
_cell_angle_alpha   69.90715847
_cell_angle_beta   90.13385875
_cell_angle_gamma   89.92635385
_symmetry_Int_Tables_number   1
_chemical_formula_structural   Zr3H14(C13O8)2
_chemical_formula_sum   'Zr6 H28 C52 O32'
_cell_volume   4772.12710687
_cell_formula_units_Z   2
loop_
 _symmetry_equiv_pos_site_id
 _symmetry_equiv_pos_as_xyz
  1  'x, y, z'
loop_
 _atom_site_type_symbol
 _atom_site_label
 _atom_site_symmetry_multiplicity
 _atom_site_fract_x
 _atom_site_fract_y
 _atom_site_fract_z
 _atom_site_occupancy
 _atom_site_pbe_bader_charge
 _atom_site_pbe_bader_spin_density
 _atom_site_pbe_cm5_charge
 _atom_site_pbe_ddec_charge
 _atom_site_pbe_ddec_spin_density
 _atom_site_pbe_ddec_sum_bond_order
 _atom_site_pbe_magmom
Zr  Zr0  1  0.10301928  0.89432587  0.11101779  1  2.613116  0  1.552124  2.365029  0  2.810766  0
Zr  Zr1  1  0.88759741  0.90847982  0.09938765  1  2.594907  0  1.551004  2.366806  0  2.838334  0
Zr  Zr2  1  0.11526606  0.07472716  0.93536529  1  2.618973  0  1.572967  2.368759  0  2.768597  0
Zr  Zr3  1  0.90409743  0.08457810  0.92315977  1  2.606615  0  1.564134  2.35828  0  2.807803  0
Zr  Zr4  1  0.00198369  0.90311735  0.92949266  1  2.628872  0  1.604125  2.355221  0  2.774761  0
Zr  Zr5  1  0.00179351  0.07753794  0.10567538  1  2.634998  0  1.61025  2.359  0  2.770505  0
H  H6  1  0.99966332  0.90727055  0.22757250  1  0.615612  0  0.330103  0.435851  0  0.846412  0
H  H7  1  0.82657368  0.93239108  0.94322595  1  0.591808  0  0.328225  0.425923  0  0.864554  0
H  H8  1  0.00591260  0.20206542  0.94250403  1  0.620923  0  0.336788  0.438002  0  0.832829  0
H  H9  1  0.17264791  0.91815895  0.95331299  1  0.595915  0  0.334651  0.435054  0  0.837481  0
H  H10  1  0.73436215  0.87304787  0.07232538  1  0.588226  0  0.291376  0.397902  0  0.899327  0
H  H11  1  0.75305336  0.14390968  0.92132691  1  0.641796  0  0.332738  0.426246  0  0.86632  0
H  H12  1  0.90917980  0.19006029  0.77159257  1  0.587182  0  0.295183  0.388354  0  0.915255  0
H  H13  1  0.02394334  0.19181449  0.81542102  1  0.621601  0  0.283229  0.404898  0  0.934858  0
H  H14  1  0.26866078  0.09245275  0.96205644  1  0.599156  0  0.298374  0.392027  0  0.909197  0
H  H15  1  0.24404132  0.97276321  0.03729416  1  0.645175  0  0.283034  0.402372  0  0.938238  0
H  H16  1  0.11414097  0.74839849  0.22076083  1  0.605251  0  0.297253  0.404546  0  0.891433  0
H  H17  1  0.84521912  0.80551163  0.25127703  1  0.644093  0  0.339467  0.424717  0  0.858972  0
H  H18  1  0.10556847  0.17066659  0.77562343  1  0.619975  0  0.324625  0.41317  0  0.87924  0
H  H19  1  0.25342104  0.93505400  0.13585232  1  0.629135  0  0.322636  0.413488  0  0.882323  0
H  H20  1  0.86188876  0.75174533  0.19591842  1  0.634271  0  0.33187  0.422235  0  0.869985  0
H  H21  1  0.75051389  0.10507531  0.85063197  1  0.624523  0  0.339895  0.425643  0  0.856846  0
H  H22  1  0.37228387  0.00173265  0.39224652  1  0.079624  0  0.114801  0.123991  0  0.978668  0
H  H23  1  0.36850865  0.99251520  0.64255059  1  0.134577  0  0.114717  0.12469  0  0.978996  0
H  H24  1  0.14637272  0.99979056  0.51283253  1  0.090161  0  0.117305  0.12785  0  0.975383  0
H  H25  1  0.85723884  0.99708416  0.51092577  1  0.097456  0  0.118041  0.129024  0  0.974631  0
H  H26  1  0.63641698  0.99696468  0.63950033  1  0.078314  0  0.112402  0.121211  0  0.983891  0
H  H27  1  0.63001921  0.99564746  0.39273813  1  0.114887  0  0.116133  0.126562  0  0.976986  0
H  H28  1  0.14520271  0.48322864  0.02084202  1  0.067881  0  0.117867  0.127933  0  0.975238  0
H  H29  1  0.36408913  0.61560733  0.01875612  1  0.11573  0  0.115485  0.125453  0  0.978248  0
H  H30  1  0.37401246  0.36695892  0.02256265  1  0.108993  0  0.113729  0.122314  0  0.981095  0
H  H31  1  0.85584354  0.48541720  0.01840776  1  0.056198  0  0.118118  0.128995  0  0.97434  0
H  H32  1  0.63555918  0.61666476  0.01537515  1  0.099882  0  0.114096  0.123717  0  0.979869  0
H  H33  1  0.62811199  0.36616732  0.02510735  1  0.085501  0  0.113923  0.122738  0  0.98114  0
C  C34  1  0.12514199  0.75865486  0.01940396  1  1.684504  0  0.240038  0.710841  0  4.192372  0
C  C35  1  0.86356948  0.99752060  0.23779427  1  1.672767  0  0.240149  0.709408  0  4.191912  0
C  C36  1  0.87277969  0.76289964  0.01262493  1  1.694589  0  0.237512  0.710612  0  4.193865  0
C  C37  1  0.13835489  0.00169202  0.23821907  1  1.704202  0  0.238382  0.706921  0  4.19636  0
C  C38  1  0.14304852  0.20828551  0.02543861  1  1.656283  0  0.239722  0.711889  0  4.186808  0
C  C39  1  0.87692494  0.99822259  0.78344459  1  1.646662  0  0.236481  0.71202  0  4.190184  0
C  C40  1  0.86504263  0.21285097  0.02268294  1  1.668437  0  0.242251  0.717299  0  4.1762  0
C  C41  1  0.13284473  0.99151507  0.79069697  1  1.663714  0  0.23813  0.711016  0  4.186698  0
C  C42  1  0.25470724  0.00147847  0.44417241  1  0.162087  0  0.006638  0.135952  0  4.141089  0
C  C43  1  0.33891435  0.00020191  0.44626737  1  -0.05749  0  -0.064788  -0.155496  0  3.83924  0
C  C44  1  0.38036255  0.99708514  0.51755974  1  0.159013  0  0.003037  0.145097  0  4.149435  0
C  C45  1  0.33683744  0.99498013  0.58716173  1  -0.048568  0  -0.066129  -0.160915  0  3.842465  0
C  C46  1  0.25256176  0.99580425  0.58565257  1  0.082119  0  0.004773  0.135983  0  4.135194  0
C  C47  1  0.21158866  0.99916319  0.51407647  1  0.002588  0  -0.06316  -0.155815  0  3.837437  0
C  C48  1  0.74807731  0.99687745  0.44363991  1  0.01021  0  0.006309  0.136608  0  4.14588  0
C  C49  1  0.79202866  0.99684690  0.51242877  1  0.020842  0  -0.063922  -0.156734  0  3.843049  0
C  C50  1  0.75174674  0.99668325  0.58309864  1  0.082346  0  0.004028  0.132293  0  4.148977  0
C  C51  1  0.66755095  0.99674166  0.58486258  1  0.016134  0  -0.068134  -0.162198  0  3.851302  0
C  C52  1  0.62318154  0.99620290  0.51643532  1  0.153656  0  0.00449  0.149002  0  4.146871  0
C  C53  1  0.66389120  0.99607215  0.44597541  1  0.034937  0  -0.064739  -0.157494  0  3.83842  0
C  C54  1  0.25526872  0.41682074  0.02220171  1  0.040861  0  0.006034  0.134266  0  4.147537  0
C  C55  1  0.21037406  0.48555380  0.02074823  1  0.051831  0  -0.062942  -0.154446  0  3.840976  0
C  C56  1  0.24959209  0.55730815  0.01929683  1  0.096791  0  0.006539  0.135654  0  4.143119  0
C  C57  1  0.33380877  0.56013300  0.01945053  1  -0.041909  0  -0.064638  -0.158058  0  3.839992  0
C  C58  1  0.37904202  0.49167237  0.02051824  1  0.090735  0  0.003856  0.146629  0  4.145546  0
C  C59  1  0.33936030  0.42016105  0.02172296  1  0.026846  0  -0.065755  -0.15794  0  3.845395  0
C  C60  1  0.74642675  0.41752447  0.02235418  1  0.141859  0  0.004703  0.131624  0  4.144136  0
C  C61  1  0.79066076  0.48717617  0.01903745  1  0.055791  0  -0.063274  -0.15491  0  3.839551  0
C  C62  1  0.75076194  0.55906700  0.01636153  1  0.073061  0  0.005244  0.134804  0  4.142549  0
C  C63  1  0.66652649  0.56106066  0.01726740  1  -0.019529  0  -0.06662  -0.160356  0  3.842811  0
C  C64  1  0.62188562  0.49171962  0.02028437  1  0.109966  0  0.004413  0.148516  0  4.145126  0
C  C65  1  0.66227729  0.42003191  0.02278198  1  -0.069669  0  -0.065743  -0.157271  0  3.843757  0
C  C66  1  0.46392674  0.49379048  0.02049477  1  -0.264815  0  -0.039127  -0.098128  0  4.10768  0
C  C67  1  0.53699287  0.49357004  0.02053481  1  -0.051894  0  -0.041762  -0.105029  0  4.110229  0
C  C68  1  0.53831880  0.99606312  0.51806115  1  -0.222285  0  -0.041643  -0.104878  0  4.112793  0
C  C69  1  0.46526281  0.99628741  0.51861498  1  -0.231545  0  -0.039488  -0.09854  0  4.110871  0
C  C70  1  0.83441957  0.99775132  0.71159221  1  0.029286  0  -0.04668  -0.200843  0  3.957057  0
C  C71  1  0.79617510  0.99714810  0.65232197  1  -0.303543  0  -0.018858  -0.021452  0  4.079312  0
C  C72  1  0.78847409  0.99760872  0.37202144  1  -0.416144  0  -0.021574  -0.03351  0  4.080229  0
C  C73  1  0.82272622  0.99844198  0.31027857  1  0.161739  0  -0.037179  -0.181106  0  3.943819  0
C  C74  1  0.17332214  0.99265002  0.71726594  1  -0.232144  0  -0.041325  -0.190074  0  3.942492  0
C  C75  1  0.20937613  0.99380769  0.65630080  1  -0.024871  0  -0.01881  -0.025465  0  4.06959  0
C  C76  1  0.21391580  0.00399068  0.37191403  1  -0.253997  0  -0.022925  -0.035204  0  4.078658  0
C  C77  1  0.18009035  0.00501130  0.30968250  1  -0.053755  0  -0.037962  -0.180279  0  3.939141  0
C  C78  1  0.82103400  0.28327153  0.02498934  1  -0.154614  0  -0.040158  -0.190206  0  3.93978  0
C  C79  1  0.78662494  0.34512387  0.02428718  1  -0.12118  0  -0.018252  -0.024139  0  4.069858  0
C  C80  1  0.83272951  0.68958642  0.01227587  1  0.143929  0  -0.04313  -0.191924  0  3.944091  0
C  C81  1  0.79524296  0.62927097  0.01365980  1  -0.437218  0  -0.019869  -0.02725  0  4.075746  0
C  C82  1  0.21629574  0.34406184  0.02393853  1  -0.587288  0  -0.01838  -0.024303  0  4.075296  0
C  C83  1  0.18388913  0.28111971  0.02533840  1  0.332532  0  -0.040426  -0.188055  0  3.945567  0
C  C84  1  0.16681809  0.68640338  0.01841242  1  0.282813  0  -0.037609  -0.180719  0  3.937167  0
C  C85  1  0.20456923  0.62664146  0.01843496  1  -0.548474  0  -0.019019  -0.028897  0  4.073157  0
O  O86  1  0.14101347  0.78290116  0.07856795  1  -1.168972  0  -0.336613  -0.614544  0  2.246527  0
O  O87  1  0.07703551  0.79197453  0.96015559  1  -1.163024  0  -0.353198  -0.610389  0  2.234923  0
O  O88  1  0.84548888  0.93972119  0.21207981  1  -1.155177  0  -0.334806  -0.603116  0  2.245548  0
O  O89  1  0.91431550  0.05414700  0.20680295  1  -1.156134  0  -0.347926  -0.603436  0  2.241897  0
O  O90  1  0.85886756  0.78526613  0.07355182  1  -1.172694  0  -0.332754  -0.632815  0  2.260905  0
O  O91  1  0.91646181  0.79992478  0.95127735  1  -1.165845  0  -0.34825  -0.600799  0  2.230499  0
O  O92  1  0.16345298  0.95098906  0.20641636  1  -1.165561  0  -0.319195  -0.600027  0  2.240321  0
O  O93  1  0.07817901  0.04987550  0.21442771  1  -1.155354  0  -0.360507  -0.61658  0  2.238511  0
O  O94  1  0.10021756  0.80327345  0.21814693  1  -1.214606  0  -0.704174  -0.9491  0  1.765948  0
O  O95  1  0.23727608  0.92064436  0.08863507  1  -1.258919  0  -0.609426  -0.814081  0  2.002555  0
O  O96  1  0.88553787  0.79145172  0.21774169  1  -1.221826  0  -0.57658  -0.773197  0  2.023083  0
O  O97  1  0.76784681  0.90520997  0.09508302  1  -1.19803  0  -0.70827  -0.964066  0  1.790479  0
O  O98  1  0.99651933  0.87845792  0.05256047  1  -1.222182  0  -0.78063  -1.175999  0  2.070364  0
O  O99  1  0.99819224  0.93378494  0.16867027  1  -1.262917  0  -0.677031  -1.052926  0  2.202617  0
O  O100  1  0.16488259  0.17810500  0.97163383  1  -1.17061  0  -0.350468  -0.630738  0  2.236439  0
O  O101  1  0.08825753  0.18149758  0.07860502  1  -1.158913  0  -0.342868  -0.599555  0  2.235722  0
O  O102  1  0.86050378  0.05744268  0.80857057  1  -1.18292  0  -0.351736  -0.653019  0  2.258768  0
O  O103  1  0.92542302  0.93998555  0.81597100  1  -1.155252  0  -0.336334  -0.586737  0  2.233302  0
O  O104  1  0.84389303  0.18288862  0.96830368  1  -1.177493  0  -0.341744  -0.639016  0  2.244431  0
O  O105  1  0.92222920  0.18805968  0.07346566  1  -1.158575  0  -0.338251  -0.590333  0  2.228647  0
O  O106  1  0.14904151  0.04967822  0.81680876  1  -1.175239  0  -0.339933  -0.631084  0  2.239302  0
O  O107  1  0.08537310  0.93204117  0.82319774  1  -1.158912  0  -0.345559  -0.600409  0  2.229922  0
O  O108  1  0.08618836  0.18560644  0.82132881  1  -1.233412  0  -0.60756  -0.812085  0  2.004677  0
O  O109  1  0.23763354  0.04692542  0.95777340  1  -1.236546  0  -0.659222  -0.929964  0  1.873927  0
O  O110  1  0.93247546  0.18996853  0.82274542  1  -1.225965  0  -0.660378  -0.935249  0  1.882321  0
O  O111  1  0.76383189  0.09467666  0.90775526  1  -1.213069  0  -0.576643  -0.778781  0  2.022399  0
O  O112  1  0.00648043  0.14278686  0.96365157  1  -1.254942  0  -0.683492  -1.034311  0  2.236232  0
O  O113  1  0.00578167  0.02718786  0.90694889  1  -1.21307  0  -0.795208  -1.179567  0  2.140416  0
O  O114  1  0.08775341  0.02491582  0.05683340  1  -1.21481  0  -0.792673  -1.182131  0  2.141269  0
O  O115  1  0.87544789  0.94966612  0.96265458  1  -1.242176  0  -0.68094  -1.064922  0  2.246683  0
O  O116  1  0.12447287  0.93736036  0.97218280  1  -1.230789  0  -0.680978  -1.035532  0  2.231186  0
O  O117  1  0.91122680  0.03198142  0.05130820  1  -1.219595  0  -0.786029  -1.168295  0  2.071822  0
