# generated using pymatgen
data_CoH8C8S2(NCl)2
_symmetry_space_group_name_H-M   'P 1'
_cell_length_a   7.31047163
_cell_length_b   9.27556913
_cell_length_c   9.27557221
_cell_angle_alpha   112.11325031
_cell_angle_beta   97.39936452
_cell_angle_gamma   97.39952810
_symmetry_Int_Tables_number   1
_chemical_formula_structural   CoH8C8S2(NCl)2
_chemical_formula_sum   'Co2 H16 C16 S4 N4 Cl4'
_cell_volume   566.98883405
_cell_formula_units_Z   2
loop_
 _symmetry_equiv_pos_site_id
 _symmetry_equiv_pos_as_xyz
  1  'x, y, z'
loop_
 _atom_site_type_symbol
 _atom_site_label
 _atom_site_symmetry_multiplicity
 _atom_site_fract_x
 _atom_site_fract_y
 _atom_site_fract_z
 _atom_site_occupancy
 _atom_site_hle17_ddec_charge
 _atom_site_hle17_ddec_spin_density
 _atom_site_hle17_ddec_sum_bond_order
 _atom_site_hle17_magmom
 _atom_site_hse06_10hf_ddec_charge
 _atom_site_hse06_10hf_ddec_spin_density
 _atom_site_hse06_10hf_ddec_sum_bond_order
 _atom_site_hse06_10hf_magmom
 _atom_site_hse06_ddec_charge
 _atom_site_hse06_ddec_spin_density
 _atom_site_hse06_ddec_sum_bond_order
 _atom_site_hse06_magmom
 _atom_site_pbe_cm5_charge
 _atom_site_pbe_ddec_charge
 _atom_site_pbe_ddec_spin_density
 _atom_site_pbe_ddec_sum_bond_order
 _atom_site_pbe_magmom
Co  Co0  1  0.75000153  0.37291654  0.62708836  1  0.554278  -2.721196  2.649147  -2.312  0.556653  -2.715541  3.140758  -2.389  0.663339  -2.813043  3.045021  -2.539  0.368891  0.478807  -2.628262  3.212109  -2.258
Co  Co1  1  0.24999967  0.62708545  0.37291351  1  0.554312  2.72121  2.648935  2.312  0.556647  2.715559  3.140575  2.389  0.663333  2.813062  3.044846  2.539  0.368885  0.478807  2.62828  3.211925  2.258
H  H2  1  0.24999912  0.84912511  0.15087931  1  0.086082  -0.00028  1.010919  0.0  0.091619  -0.000187  1.085825  0.0  0.094254  -0.000213  1.084409  0.0  0.092406  0.089623  -0.00014  1.086821  0.0
H  H3  1  0.74999524  0.15087693  0.84911647  1  0.086091  0.000281  1.010851  0.0  0.091612  0.000187  1.08577  0.0  0.094247  0.000213  1.084355  0.0  0.092416  0.089617  0.00014  1.086768  0.0
H  H4  1  0.40866632  0.29467634  0.11080550  1  0.096737  -0.00119  0.978561  0.0  0.103402  -0.000988  1.047984  0.0  0.107096  -0.000751  1.044995  0.0  0.090656  0.100473  -0.001188  1.050461  0.0
H  H5  1  0.09133614  0.88920271  0.70532830  1  0.096723  -0.00119  0.978609  0.0  0.103363  -0.000988  1.048061  0.0  0.107063  -0.000752  1.04504  0.0  0.090667  0.100435  -0.001188  1.050539  0.0
H  H6  1  0.59133377  0.70532684  0.88919886  1  0.096727  0.001191  0.978594  0.0  0.103385  0.000988  1.048027  0.0  0.107083  0.000752  1.045025  0.0  0.090646  0.100455  0.001188  1.050503  0.0
H  H7  1  0.90866625  0.11079810  0.29466247  1  0.096727  0.001191  0.978686  0.0  0.103396  0.000988  1.048097  0.0  0.107091  0.000752  1.045099  0.0  0.090666  0.100469  0.001188  1.050576  0.0
H  H8  1  0.25000040  0.17221221  0.82779633  1  0.100888  -0.000696  0.970194  0.0  0.109648  -0.000807  1.031389  0.0  0.114116  -0.000543  1.028909  0.0  0.086732  0.106181  -0.001068  1.033467  0.0
H  H9  1  0.75000186  0.82778858  0.17220951  1  0.100919  0.000695  0.970106  0.0  0.109694  0.000807  1.031289  0.0  0.114164  0.000543  1.028808  0.0  0.086734  0.106226  0.001068  1.033366  0.0
H  H10  1  0.41654401  0.15594959  0.53824449  1  0.321421  9.4e-05  0.908035  0.0  0.3024  -0.000294  0.976922  0.0  0.310408  -0.000215  0.970543  0.0  0.287224  0.29642  -0.000388  0.982006  0.0
H  H11  1  0.08345677  0.46175775  0.84405101  1  0.321458  9.4e-05  0.907954  0.0  0.302315  -0.000294  0.97698  0.0  0.31032  -0.000215  0.970605  0.0  0.287176  0.296334  -0.000388  0.982062  0.0
H  H12  1  0.58345387  0.84404411  0.46175067  1  0.32148  -9.4e-05  0.907857  0.0  0.302444  0.000294  0.976788  0.0  0.310451  0.000215  0.970409  0.0  0.287229  0.296464  0.000388  0.981871  0.0
H  H13  1  0.91654418  0.53824900  0.15595262  1  0.32148  -9.4e-05  0.907861  0.0  0.302458  0.000294  0.97678  0.0  0.310466  0.000215  0.9704  0.0  0.287251  0.296477  0.000388  0.981865  0.0
H  H14  1  0.25381522  0.00322574  0.38390083  1  0.323158  -4.7e-05  0.920826  0.0  0.30492  -0.0  0.987992  0.0  0.313907  -6.6e-05  0.980522  0.0  0.283124  0.298401  6.8e-05  0.993603  0.0
H  H15  1  0.24618451  0.61610371  0.99677757  1  0.323117  -4.7e-05  0.920867  0.0  0.304882  -0.0  0.988015  0.0  0.313868  -6.6e-05  0.980547  0.0  0.283095  0.298361  6.8e-05  0.993627  0.0
H  H16  1  0.74618545  0.99677388  0.61609685  1  0.32317  4.7e-05  0.920727  0.0  0.304919  0.0  0.987917  0.0  0.313907  6.6e-05  0.980446  0.0  0.283112  0.2984  -6.8e-05  0.993529  0.0
H  H17  1  0.75381479  0.38390186  0.00322329  1  0.323175  4.7e-05  0.920848  0.0  0.304934  0.0  0.98801  0.0  0.313921  6.6e-05  0.980539  0.0  0.283123  0.298415  -6.8e-05  0.993622  0.0
C  C18  1  0.42400026  0.15711981  0.32041229  1  0.349272  0.006509  3.733873  0.013  0.336419  -0.003587  4.004417  0.0  0.36634  -0.003405  4.010883  -0.001  0.155531  0.314808  -0.003034  3.999923  0.001
C  C19  1  0.07600702  0.67959253  0.84288134  1  0.349292  0.006508  3.733751  0.013  0.336426  -0.003588  4.004278  0.0  0.36635  -0.003407  4.010744  -0.001  0.15553  0.314808  -0.003034  3.999795  0.001
C  C20  1  0.57599954  0.84287625  0.67958612  1  0.34938  -0.006508  3.733843  -0.013  0.336475  0.003586  4.004438  0.0  0.366395  0.003402  4.010902  0.001  0.155556  0.314858  0.003034  3.999968  -0.001
C  C21  1  0.92399805  0.32040825  0.15711833  1  0.34919  -0.006508  3.733931  -0.013  0.33644  0.003586  4.004351  0.0  0.366353  0.003402  4.010829  0.001  0.155537  0.314826  0.003033  3.999864  -0.001
C  C22  1  0.33767471  0.08046102  0.15014251  1  -0.012718  -0.006176  3.76413  -0.009  0.013081  -0.002369  3.989921  -0.003  0.003013  -0.00151  4.012357  -0.002  -0.013173  0.019656  -0.003118  3.975408  -0.004
C  C23  1  0.16233242  0.84986255  0.91954297  1  -0.012656  -0.006176  3.764179  -0.009  0.013131  -0.002369  3.989989  -0.003  0.003063  -0.00151  4.012409  -0.002  -0.013207  0.019709  -0.003118  3.975475  -0.004
C  C24  1  0.66232182  0.91954456  0.84986022  1  -0.01264  0.006184  3.764051  0.009  0.013162  0.002368  3.989884  0.003  0.00309  0.001509  4.012323  0.002  -0.013168  0.01974  0.003118  3.975365  0.004
C  C25  1  0.83767297  0.15013349  0.08044632  1  -0.012521  0.006183  3.764054  0.009  0.013211  0.002369  3.989882  0.003  0.003152  0.001508  4.012315  0.002  -0.01318  0.019788  0.003118  3.975366  0.004
C  C26  1  0.24999917  0.91993141  0.08007356  1  -0.087978  0.004254  3.645644  0.005  -0.118556  -0.000778  3.887654  -0.001  -0.114434  -0.000953  3.907527  -0.001  -0.077898  -0.121548  -0.000378  3.874735  -0.001
C  C27  1  0.74999955  0.08007178  0.91992958  1  -0.088099  -0.004261  3.64593  -0.005  -0.118657  0.000778  3.88796  0.001  -0.11454  0.000956  3.907844  0.001  -0.077911  -0.121651  0.000377  3.875042  0.001
C  C28  1  0.34021948  0.16996697  0.05685781  1  -0.05116  0.002327  3.690939  0.003  -0.075242  -0.001719  3.9366  -0.002  -0.070197  -0.001588  3.953759  -0.002  -0.07659  -0.078863  -0.001476  3.925749  -0.001
C  C29  1  0.15978417  0.94314390  0.83003370  1  -0.051176  0.002329  3.690864  0.003  -0.075224  -0.00172  3.936513  -0.002  -0.070164  -0.001588  3.953668  -0.002  -0.076583  -0.078847  -0.001475  3.925664  -0.001
C  C30  1  0.65977867  0.83003385  0.94314545  1  -0.051214  -0.002337  3.690966  -0.003  -0.075292  0.00172  3.936627  0.002  -0.07024  0.001587  3.953787  0.002  -0.076598  -0.078911  0.001475  3.92577  0.001
C  C31  1  0.84022364  0.05685093  0.16996185  1  -0.05118  -0.002337  3.690886  -0.003  -0.075258  0.001719  3.936541  0.002  -0.070211  0.001588  3.953701  0.002  -0.076577  -0.078881  0.001475  3.925694  0.001
C  C32  1  0.25000306  0.10148926  0.89851950  1  -0.067037  -0.003171  3.735462  -0.004  -0.080781  -0.00094  3.990467  -0.001  -0.087466  -0.000458  4.010112  -0.001  -0.094898  -0.076577  -0.00141  3.977994  -0.002
C  C33  1  0.75000121  0.89851391  0.10147990  1  -0.067113  0.003179  3.735587  0.004  -0.080863  0.00094  3.990583  0.001  -0.08755  0.000459  4.01023  0.001  -0.094941  -0.076658  0.00141  3.978107  0.002
S  S34  1  0.59594203  0.32124588  0.38332003  1  -0.27902  -0.090419  2.35626  -0.112  -0.298056  -0.059046  2.750081  -0.063  -0.341276  -0.041661  2.739997  -0.042  -0.125335  -0.266018  -0.075704  2.75833  -0.082
S  S35  1  0.90406233  0.61668319  0.67875566  1  -0.278977  -0.090418  2.356223  -0.112  -0.298003  -0.059047  2.750041  -0.063  -0.341226  -0.04166  2.739956  -0.042  -0.125298  -0.265962  -0.075704  2.758293  -0.082
S  S36  1  0.40406764  0.67875130  0.61668632  1  -0.279027  0.090411  2.356264  0.112  -0.298015  0.059042  2.750079  0.063  -0.341237  0.041653  2.739999  0.042  -0.125278  -0.265975  0.075697  2.758334  0.082
S  S37  1  0.09592862  0.38331055  0.32124417  1  -0.278961  0.090407  2.356306  0.112  -0.298015  0.059039  2.75007  0.063  -0.341232  0.041652  2.739994  0.042  -0.125264  -0.265979  0.075695  2.758324  0.082
N  N38  1  0.36519791  0.09660503  0.41886368  1  -0.555104  -0.004104  3.180195  -0.006  -0.512715  -0.006209  3.400481  -0.009  -0.534349  -0.005097  3.397566  -0.007  -0.532327  -0.498559  -0.007067  3.403702  -0.009
N  N39  1  0.13480637  0.58114090  0.90340011  1  -0.555116  -0.004104  3.180003  -0.006  -0.512622  -0.006209  3.400422  -0.009  -0.534253  -0.005097  3.397512  -0.007  -0.532254  -0.498461  -0.007068  3.403643  -0.009
N  N40  1  0.63480654  0.90338743  0.58113495  1  -0.555229  0.004106  3.179928  0.006  -0.512826  0.006209  3.400267  0.009  -0.534458  0.005099  3.397351  0.007  -0.532374  -0.498667  0.007068  3.403493  0.009
N  N41  1  0.86518598  0.41886469  0.09660865  1  -0.555188  0.004106  3.18003  0.006  -0.512842  0.006209  3.400277  0.009  -0.534471  0.005099  3.39736  0.007  -0.532392  -0.498681  0.007068  3.403504  0.009
Cl  Cl42  1  0.54987314  0.36442666  0.78771837  1  -0.48574  -0.079256  1.067042  -0.103  -0.453537  -0.068499  1.336091  -0.082  -0.489891  -0.051317  1.309685  -0.059  -0.256741  -0.424599  -0.083735  1.354585  -0.1
Cl  Cl43  1  0.95012541  0.21228096  0.63557545  1  -0.485745  -0.079253  1.067034  -0.103  -0.453498  -0.068496  1.33606  -0.082  -0.489853  -0.051314  1.309657  -0.059  -0.256724  -0.42456  -0.083731  1.354556  -0.1
Cl  Cl44  1  0.45012337  0.63557298  0.21228212  1  -0.485737  0.079254  1.067053  0.103  -0.45351  0.068495  1.336119  0.082  -0.489867  0.051316  1.309721  0.059  -0.256731  -0.424573  0.083733  1.354613  0.1
Cl  Cl45  1  0.04987823  0.78771982  0.36443054  1  -0.485742  0.079254  1.067012  0.103  -0.453524  0.068496  1.336081  0.082  -0.489879  0.051316  1.309677  0.059  -0.256746  -0.424588  0.083732  1.354577  0.1
