# generated using pymatgen
data_MgH4(C2O3)2
_symmetry_space_group_name_H-M   'P 1'
_cell_length_a   8.17044138
_cell_length_b   8.17043502
_cell_length_c   16.33268158
_cell_angle_alpha   90.14991373
_cell_angle_beta   90.14998992
_cell_angle_gamma   90.61124877
_symmetry_Int_Tables_number   1
_chemical_formula_structural   MgH4(C2O3)2
_chemical_formula_sum   'Mg6 H24 C24 O36'
_cell_volume   1090.23588558
_cell_formula_units_Z   6
loop_
 _symmetry_equiv_pos_site_id
 _symmetry_equiv_pos_as_xyz
  1  'x, y, z'
loop_
 _atom_site_type_symbol
 _atom_site_label
 _atom_site_symmetry_multiplicity
 _atom_site_fract_x
 _atom_site_fract_y
 _atom_site_fract_z
 _atom_site_occupancy
 _atom_site_hle17_bader_spin_density
 _atom_site_hle17_ddec_charge
 _atom_site_hle17_ddec_spin_density
 _atom_site_hle17_ddec_sum_bond_order
 _atom_site_hle17_magmom
 _atom_site_hse06_10hf_bader_spin_density
 _atom_site_hse06_10hf_ddec_charge
 _atom_site_hse06_10hf_ddec_spin_density
 _atom_site_hse06_10hf_ddec_sum_bond_order
 _atom_site_hse06_10hf_magmom
 _atom_site_hse06_bader_spin_density
 _atom_site_hse06_ddec_charge
 _atom_site_hse06_ddec_spin_density
 _atom_site_hse06_ddec_sum_bond_order
 _atom_site_hse06_magmom
 _atom_site_pbe_bader_spin_density
 _atom_site_pbe_cm5_charge
 _atom_site_pbe_ddec_charge
 _atom_site_pbe_ddec_spin_density
 _atom_site_pbe_ddec_sum_bond_order
 _atom_site_pbe_magmom
Mg  Mg0  1  0.99681732  0.00318335  0.75000042  1  0  1.493826  0  1.144137  0  0  1.375344  0  1.417201  0  0  1.398847  0  1.380711  0  0  0.813034  1.358854  0  1.442405  0
Mg  Mg1  1  0.00318024  0.99682004  0.24999978  1  0  1.493789  0  1.144163  0  0  1.375328  0  1.417202  0  0  1.398827  0  1.380723  0  0  0.813022  1.358838  0  1.442404  0
Mg  Mg2  1  0.99999967  0.50000072  0.50000054  1  0  1.492226  0  1.150591  0  0  1.373968  0  1.422819  0  0  1.397676  0  1.385911  0  0  0.815044  1.357181  0  1.448602  0
Mg  Mg3  1  0.49999969  0.99999827  0.99999945  1  0  1.49222  0  1.150569  0  0  1.373973  0  1.422777  0  0  1.397681  0  1.385868  0  0  0.815043  1.357185  0  1.448562  0
Mg  Mg4  1  0.49999804  0.99999967  0.49999982  1  0  1.494014  0  1.145464  0  0  1.376535  0  1.41664  0  0  1.400133  0  1.379986  0  0  0.814882  1.359983  0  1.441966  0
Mg  Mg5  1  0.00000174  0.49999968  0.99999998  1  0  1.493986  0  1.145454  0  0  1.376502  0  1.416647  0  0  1.400099  0  1.379996  0  0  0.814881  1.359971  0  1.441931  0
H  H6  1  0.93705803  0.80875481  0.62035628  1  0  0.435958  0  0.861916  0  0  0.403772  0  0.926274  0  0  0.414478  0  0.910589  0  0  0.302253  0.39621  0  0.937346  0
H  H7  1  0.19124720  0.06294184  0.87964366  1  0  0.435975  0  0.861917  0  0  0.40379  0  0.926271  0  0  0.414496  0  0.910585  0  0  0.302269  0.396228  0  0.937344  0
H  H8  1  0.06294196  0.19124615  0.37964392  1  0  0.435984  0  0.861905  0  0  0.403797  0  0.926261  0  0  0.414503  0  0.910574  0  0  0.302271  0.396235  0  0.937333  0
H  H9  1  0.80875156  0.93705789  0.12035653  1  0  0.435969  0  0.861931  0  0  0.403785  0  0.926285  0  0  0.414492  0  0.910595  0  0  0.302259  0.396222  0  0.937358  0
H  H10  1  0.80477088  0.95415871  0.61961992  1  0  0.440765  0  0.853418  0  0  0.408835  0  0.916842  0  0  0.419705  0  0.90088  0  0  0.30538  0.401123  0  0.928177  0
H  H11  1  0.04584467  0.19522851  0.88038055  1  0  0.440768  0  0.853413  0  0  0.408834  0  0.916845  0  0  0.419705  0  0.90088  0  0  0.30539  0.401122  0  0.92818  0
H  H12  1  0.19522788  0.04584102  0.38038028  1  0  0.440779  0  0.853397  0  0  0.408846  0  0.916828  0  0  0.419717  0  0.900864  0  0  0.305392  0.401133  0  0.928165  0
H  H13  1  0.95415655  0.80477369  0.11961904  1  0  0.44077  0  0.853413  0  0  0.408837  0  0.916846  0  0  0.419708  0  0.90088  0  0  0.305384  0.401125  0  0.928182  0
H  H14  1  0.19065713  0.24173071  0.53244478  1  0  0.436264  0  0.860707  0  0  0.403634  0  0.925571  0  0  0.414385  0  0.909835  0  0  0.302606  0.396039  0  0.936674  0
H  H15  1  0.75826989  0.80934283  0.96755510  1  0  0.436256  0  0.860715  0  0  0.403624  0  0.925582  0  0  0.414374  0  0.909848  0  0  0.302615  0.396029  0  0.936684  0
H  H16  1  0.80934163  0.75826902  0.46755541  1  0  0.436255  0  0.860717  0  0  0.403622  0  0.925586  0  0  0.414372  0  0.909852  0  0  0.302612  0.396026  0  0.93669  0
H  H17  1  0.24173133  0.19065692  0.03244387  1  0  0.436283  0  0.860683  0  0  0.403654  0  0.925544  0  0  0.414404  0  0.90981  0  0  0.302607  0.396058  0  0.936647  0
H  H18  1  0.04003730  0.23980965  0.59597772  1  0  0.43964  0  0.854561  0  0  0.407444  0  0.918596  0  0  0.41835  0  0.902566  0  0  0.304955  0.399716  0  0.929958  0
H  H19  1  0.76018925  0.95996281  0.90402211  1  0  0.439669  0  0.85452  0  0  0.407472  0  0.918555  0  0  0.41838  0  0.902524  0  0  0.304964  0.399743  0  0.92992  0
H  H20  1  0.95996146  0.76019131  0.40402247  1  0  0.439682  0  0.854498  0  0  0.407461  0  0.918569  0  0  0.418367  0  0.90254  0  0  0.304954  0.399731  0  0.929935  0
H  H21  1  0.23980951  0.04003692  0.09597809  1  0  0.439648  0  0.854552  0  0  0.407449  0  0.918591  0  0  0.418356  0  0.902561  0  0  0.304954  0.399719  0  0.929958  0
H  H22  1  0.76073000  0.06369880  0.40514577  1  0  0.437856  0  0.857333  0  0  0.405561  0  0.92171  0  0  0.4163  0  0.905967  0  0  0.303878  0.397931  0  0.932901  0
H  H23  1  0.93630196  0.23926942  0.09485435  1  0  0.437861  0  0.857323  0  0  0.405567  0  0.921697  0  0  0.416306  0  0.905955  0  0  0.303881  0.397938  0  0.932887  0
H  H24  1  0.23926755  0.93630215  0.59485382  1  0  0.437871  0  0.857311  0  0  0.40558  0  0.92168  0  0  0.416318  0  0.905939  0  0  0.303867  0.39795  0  0.93287  0
H  H25  1  0.06369803  0.76073154  0.90514585  1  0  0.437875  0  0.857306  0  0  0.405576  0  0.921687  0  0  0.416317  0  0.905942  0  0  0.303879  0.397946  0  0.932878  0
H  H26  1  0.76261616  0.19335670  0.47982053  1  0  0.441517  0  0.851726  0  0  0.409252  0  0.915969  0  0  0.420077  0  0.900019  0  0  0.306063  0.401583  0  0.927279  0
H  H27  1  0.80664398  0.23738202  0.02018016  1  0  0.44156  0  0.851669  0  0  0.409302  0  0.915899  0  0  0.420127  0  0.899948  0  0  0.306094  0.401633  0  0.927209  0
H  H28  1  0.23738260  0.80664425  0.52018028  1  0  0.441546  0  0.85169  0  0  0.409289  0  0.91592  0  0  0.420111  0  0.899972  0  0  0.306082  0.401619  0  0.92723  0
H  H29  1  0.19335722  0.76261651  0.97981943  1  0  0.441535  0  0.851703  0  0  0.409277  0  0.915935  0  0  0.4201  0  0.899987  0  0  0.306083  0.401607  0  0.927246  0
C  C30  1  0.98639574  0.38278606  0.72770903  1  0  0.217215  0  3.848668  0  0  0.191814  0  4.128483  0  0  0.204356  0  4.140584  0  0  0.116606  0.183254  0  4.120234  0
C  C31  1  0.61721796  0.01360534  0.77229230  1  0  0.21737  0  3.848682  0  0  0.191967  0  4.128462  0  0  0.204507  0  4.140568  0  0  0.116648  0.183405  0  4.120213  0
C  C32  1  0.01360548  0.61721735  0.27229118  1  0  0.21732  0  3.848613  0  0  0.19193  0  4.128387  0  0  0.204471  0  4.140486  0  0  0.116658  0.183369  0  4.120138  0
C  C33  1  0.38278202  0.98639440  0.22770789  1  0  0.217296  0  3.848653  0  0  0.191889  0  4.128457  0  0  0.20443  0  4.140557  0  0  0.116615  0.183328  0  4.120209  0
C  C34  1  0.99222256  0.45862756  0.80978701  1  0  0.217501  0  3.847608  0  0  0.192441  0  4.126858  0  0  0.20489  0  4.139076  0  0  0.11686  0.183947  0  4.118524  0
C  C35  1  0.54137369  0.00777724  0.69021490  1  0  0.217391  0  3.847842  0  0  0.19233  0  4.127079  0  0  0.204777  0  4.139304  0  0  0.116805  0.183838  0  4.118742  0
C  C36  1  0.00777865  0.54137340  0.19021441  1  0  0.217439  0  3.847814  0  0  0.192404  0  4.12703  0  0  0.204853  0  4.139249  0  0  0.116851  0.18391  0  4.118695  0
C  C37  1  0.45862752  0.99222251  0.30978469  1  0  0.217406  0  3.847787  0  0  0.192358  0  4.127009  0  0  0.204807  0  4.139232  0  0  0.116816  0.183863  0  4.118673  0
C  C38  1  0.99925676  0.62253708  0.77205988  1  0  0.211701  0  3.847769  0  0  0.186842  0  4.127209  0  0  0.199047  0  4.139769  0  0  0.114043  0.178505  0  4.118641  0
C  C39  1  0.37746406  0.00074077  0.72794075  1  0  0.211726  0  3.84777  0  0  0.186882  0  4.127185  0  0  0.199083  0  4.139745  0  0  0.114049  0.178544  0  4.118617  0
C  C40  1  0.00074078  0.37746508  0.22794154  1  0  0.211703  0  3.847766  0  0  0.186845  0  4.127213  0  0  0.199045  0  4.139772  0  0  0.114032  0.178507  0  4.118646  0
C  C41  1  0.62253469  0.99925651  0.27206005  1  0  0.211717  0  3.84785  0  0  0.186886  0  4.127245  0  0  0.199085  0  4.139805  0  0  0.114018  0.178549  0  4.118679  0
C  C42  1  0.98973514  0.54679930  0.69003958  1  0  0.213948  0  3.848884  0  0  0.188784  0  4.128539  0  0  0.201053  0  4.140994  0  0  0.115349  0.180394  0  4.120041  0
C  C43  1  0.45319865  0.01026242  0.80996291  1  0  0.213717  0  3.849012  0  0  0.188578  0  4.128633  0  0  0.200847  0  4.141089  0  0  0.115259  0.18019  0  4.120134  0
C  C44  1  0.01026364  0.45320410  0.30996124  1  0  0.213844  0  3.848848  0  0  0.188672  0  4.128514  0  0  0.200942  0  4.140967  0  0  0.115267  0.180284  0  4.120017  0
C  C45  1  0.54680132  0.98973609  0.19003790  1  0  0.213797  0  3.848943  0  0  0.188649  0  4.128574  0  0  0.200919  0  4.141027  0  0  0.11529  0.18026  0  4.120078  0
C  C46  1  0.38027443  0.54269577  0.49660413  1  0  0.216766  0  3.85164  0  0  0.191284  0  4.131913  0  0  0.203633  0  4.144206  0  0  0.116129  0.182849  0  4.123513  0
C  C47  1  0.45730337  0.61972564  0.00339509  1  0  0.216806  0  3.851531  0  0  0.191323  0  4.131805  0  0  0.203674  0  4.144097  0  0  0.116131  0.182889  0  4.123403  0
C  C48  1  0.61972555  0.45730397  0.50339729  1  0  0.216787  0  3.851571  0  0  0.191305  0  4.131841  0  0  0.203656  0  4.144134  0  0  0.116142  0.18287  0  4.123441  0
C  C49  1  0.54269906  0.38027046  0.99660082  1  0  0.21698  0  3.851554  0  0  0.191462  0  4.131866  0  0  0.203814  0  4.144158  0  0  0.116243  0.183028  0  4.123462  0
C  C50  1  0.45570301  0.38015541  0.50482472  1  0  0.213693  0  3.846511  0  0  0.188658  0  4.126335  0  0  0.201046  0  4.138696  0  0  0.115431  0.1802  0  4.117909  0
C  C51  1  0.61984657  0.54429450  0.99517275  1  0  0.21358  0  3.846469  0  0  0.188518  0  4.126356  0  0  0.200906  0  4.138718  0  0  0.115353  0.18006  0  4.117929  0
C  C52  1  0.54429453  0.61984432  0.49517547  1  0  0.213601  0  3.846493  0  0  0.188589  0  4.126293  0  0  0.200977  0  4.138656  0  0  0.115383  0.180129  0  4.117867  0
C  C53  1  0.38015832  0.45570285  0.00482071  1  0  0.213607  0  3.846495  0  0  0.188632  0  4.126252  0  0  0.201018  0  4.138614  0  0  0.115422  0.180174  0  4.117826  0
O  O54  1  0.91466904  0.92184257  0.63915269  1  0  -0.916219  0  1.851965  0  0  -0.861799  0  2.039322  0  0  -0.878069  0  2.00432  0  0  -0.62261  -0.850401  0  2.063766  0
O  O55  1  0.07815810  0.08532998  0.86084781  1  0  -0.916245  0  1.851978  0  0  -0.861809  0  2.039309  0  0  -0.878096  0  2.004337  0  0  -0.622622  -0.850411  0  2.063749  0
O  O56  1  0.08532972  0.07815839  0.36084750  1  0  -0.916247  0  1.851959  0  0  -0.861813  0  2.039281  0  0  -0.878101  0  2.004317  0  0  -0.622628  -0.850413  0  2.063723  0
O  O57  1  0.92184066  0.91467098  0.13915238  1  0  -0.916249  0  1.851998  0  0  -0.861802  0  2.039291  0  0  -0.878097  0  2.004349  0  0  -0.62261  -0.850404  0  2.063736  0
O  O58  1  0.98155376  0.23863735  0.69988776  1  0  -0.566596  0  2.157069  0  0  -0.507795  0  2.385475  0  0  -0.52855  0  2.380084  0  0  -0.311449  -0.493371  0  2.388922  0
O  O59  1  0.76136311  0.01844428  0.80011177  1  0  -0.56663  0  2.157165  0  0  -0.507827  0  2.385564  0  0  -0.52858  0  2.380174  0  0  -0.311449  -0.493402  0  2.389011  0
O  O60  1  0.01844501  0.76136483  0.30011183  1  0  -0.566634  0  2.157046  0  0  -0.507831  0  2.385436  0  0  -0.528583  0  2.380044  0  0  -0.311459  -0.493407  0  2.388884  0
O  O61  1  0.23863810  0.98155547  0.19988781  1  0  -0.566572  0  2.15717  0  0  -0.507782  0  2.385579  0  0  -0.528533  0  2.380188  0  0  -0.311428  -0.493357  0  2.389026  0
O  O62  1  0.99150684  0.40291114  0.88174930  1  0  -0.570681  0  2.16274  0  0  -0.511655  0  2.391415  0  0  -0.532434  0  2.38587  0  0  -0.314201  -0.497222  0  2.394971  0
O  O63  1  0.59708877  0.00849417  0.61824896  1  0  -0.570679  0  2.162846  0  0  -0.511654  0  2.391521  0  0  -0.532436  0  2.385979  0  0  -0.314156  -0.497217  0  2.395079  0
O  O64  1  0.00849681  0.59708861  0.11825091  1  0  -0.570637  0  2.162855  0  0  -0.511638  0  2.391532  0  0  -0.532417  0  2.385987  0  0  -0.314167  -0.497204  0  2.395087  0
O  O65  1  0.40291120  0.99150312  0.38175123  1  0  -0.570683  0  2.162792  0  0  -0.511671  0  2.391468  0  0  -0.532452  0  2.385925  0  0  -0.314161  -0.497227  0  2.395022  0
O  O66  1  0.01197096  0.76655685  0.79993402  1  0  -0.571321  0  2.150855  0  0  -0.511301  0  2.378295  0  0  -0.532311  0  2.373186  0  0  -0.312708  -0.496686  0  2.381547  0
O  O67  1  0.23344356  0.98802939  0.70006747  1  0  -0.571302  0  2.150764  0  0  -0.51131  0  2.378216  0  0  -0.532313  0  2.373104  0  0  -0.312736  -0.496695  0  2.381468  0
O  O68  1  0.98802780  0.23344531  0.20006924  1  0  -0.571289  0  2.150787  0  0  -0.511292  0  2.378242  0  0  -0.53229  0  2.373132  0  0  -0.312705  -0.496678  0  2.381494  0
O  O69  1  0.76655397  0.01197156  0.29993395  1  0  -0.571298  0  2.150832  0  0  -0.511316  0  2.378278  0  0  -0.532315  0  2.373168  0  0  -0.312707  -0.4967  0  2.38153  0
O  O70  1  0.98577346  0.60229794  0.61795679  1  0  -0.571205  0  2.162395  0  0  -0.511109  0  2.390225  0  0  -0.532189  0  2.385112  0  0  -0.31308  -0.496433  0  2.39346  0
O  O71  1  0.39770527  0.01422538  0.88204263  1  0  -0.571027  0  2.162558  0  0  -0.510959  0  2.390383  0  0  -0.532034  0  2.385269  0  0  -0.31301  -0.496284  0  2.393615  0
O  O72  1  0.01422530  0.39770301  0.38204402  1  0  -0.571158  0  2.162329  0  0  -0.511064  0  2.390156  0  0  -0.532142  0  2.38504  0  0  -0.313051  -0.49639  0  2.393391  0
O  O73  1  0.60229715  0.98577315  0.11795757  1  0  -0.571073  0  2.162501  0  0  -0.511002  0  2.390331  0  0  -0.532076  0  2.385215  0  0  -0.313017  -0.496327  0  2.393566  0
O  O74  1  0.07662045  0.27799092  0.54140914  1  0  -0.913753  0  1.85254  0  0  -0.858518  0  2.039946  0  0  -0.874923  0  2.004978  0  0  -0.620818  -0.847046  0  2.064447  0
O  O75  1  0.72200884  0.92337886  0.95859131  1  0  -0.913766  0  1.852497  0  0  -0.858542  0  2.039924  0  0  -0.874945  0  2.004954  0  0  -0.620835  -0.847069  0  2.064426  0
O  O76  1  0.92337831  0.72200881  0.45859106  1  0  -0.913783  0  1.852471  0  0  -0.858523  0  2.039907  0  0  -0.874927  0  2.00494  0  0  -0.620821  -0.84705  0  2.06441  0
O  O77  1  0.27799114  0.07662088  0.04140889  1  0  -0.91376  0  1.852479  0  0  -0.858538  0  2.039907  0  0  -0.87494  0  2.004938  0  0  -0.620812  -0.847063  0  2.064411  0
O  O78  1  0.23650901  0.59689669  0.49206770  1  0  -0.570747  0  2.161964  0  0  -0.511308  0  2.390748  0  0  -0.532073  0  2.385289  0  0  -0.314696  -0.49684  0  2.394224  0
O  O79  1  0.40310423  0.76348515  0.00793144  1  0  -0.570744  0  2.161944  0  0  -0.511304  0  2.390726  0  0  -0.532068  0  2.385267  0  0  -0.314675  -0.496836  0  2.394202  0
O  O80  1  0.76348974  0.40310303  0.50793433  1  0  -0.570749  0  2.161946  0  0  -0.511302  0  2.390727  0  0  -0.53207  0  2.385268  0  0  -0.314694  -0.496835  0  2.394203  0
O  O81  1  0.59689820  0.23651095  0.99206508  1  0  -0.570835  0  2.162067  0  0  -0.511372  0  2.390857  0  0  -0.532139  0  2.385398  0  0  -0.314711  -0.496905  0  2.394333  0
O  O82  1  0.40013730  0.23589703  0.51117537  1  0  -0.568891  0  2.153567  0  0  -0.508631  0  2.380497  0  0  -0.529704  0  2.375401  0  0  -0.311275  -0.493979  0  2.38371  0
O  O83  1  0.76410369  0.59986215  0.98882397  1  0  -0.568829  0  2.153572  0  0  -0.508544  0  2.380497  0  0  -0.529621  0  2.375416  0  0  -0.311235  -0.493897  0  2.383709  0
O  O84  1  0.59986146  0.76410393  0.48882544  1  0  -0.568809  0  2.15349  0  0  -0.508565  0  2.380415  0  0  -0.529639  0  2.375322  0  0  -0.311226  -0.493911  0  2.383629  0
O  O85  1  0.23589751  0.40013273  0.01117071  1  0  -0.568967  0  2.153547  0  0  -0.508704  0  2.380416  0  0  -0.529777  0  2.375317  0  0  -0.311334  -0.49406  0  2.383639  0
O  O86  1  0.72300326  0.08408725  0.46182707  1  0  -0.913459  0  1.85129  0  0  -0.859148  0  2.037869  0  0  -0.875407  0  2.002936  0  0  -0.620217  -0.847804  0  2.062379  0
O  O87  1  0.91591275  0.27699722  0.03817364  1  0  -0.913481  0  1.851238  0  0  -0.859185  0  2.03782  0  0  -0.87544  0  2.002883  0  0  -0.620242  -0.847844  0  2.062328  0
O  O88  1  0.27699550  0.91591249  0.53817312  1  0  -0.913472  0  1.851207  0  0  -0.85917  0  2.037784  0  0  -0.875428  0  2.002854  0  0  -0.620219  -0.847826  0  2.062294  0
O  O89  1  0.08408724  0.72300374  0.96182717  1  0  -0.913469  0  1.851238  0  0  -0.859166  0  2.037819  0  0  -0.875424  0  2.002886  0  0  -0.620232  -0.847826  0  2.062328  0
