# generated using pymatgen
data_ErCuH16C22S2N2O11
_symmetry_space_group_name_H-M   'P 1'
_cell_length_a   9.45464217
_cell_length_b   11.30683240
_cell_length_c   12.28200000
_cell_angle_alpha   99.13432538
_cell_angle_beta   100.35559921
_cell_angle_gamma   113.88477137
_symmetry_Int_Tables_number   1
_chemical_formula_structural   ErCuH16C22S2N2O11
_chemical_formula_sum   'Er2 Cu2 H32 C44 S4 N4 O22'
_cell_volume   1141.17845131
_cell_formula_units_Z   2
loop_
 _symmetry_equiv_pos_site_id
 _symmetry_equiv_pos_as_xyz
  1  'x, y, z'
loop_
 _atom_site_type_symbol
 _atom_site_label
 _atom_site_symmetry_multiplicity
 _atom_site_fract_x
 _atom_site_fract_y
 _atom_site_fract_z
 _atom_site_occupancy
 _atom_site_hle17_bader_spin_density
 _atom_site_hle17_ddec_charge
 _atom_site_hle17_ddec_spin_density
 _atom_site_hle17_ddec_sum_bond_order
 _atom_site_hle17_magmom
 _atom_site_hse06_10hf_bader_spin_density
 _atom_site_hse06_10hf_ddec_charge
 _atom_site_hse06_10hf_ddec_spin_density
 _atom_site_hse06_10hf_ddec_sum_bond_order
 _atom_site_hse06_10hf_magmom
 _atom_site_hse06_bader_spin_density
 _atom_site_hse06_ddec_charge
 _atom_site_hse06_ddec_spin_density
 _atom_site_hse06_ddec_sum_bond_order
 _atom_site_hse06_magmom
 _atom_site_pbe_bader_charge
 _atom_site_pbe_bader_spin_density
 _atom_site_pbe_cm5_charge
 _atom_site_pbe_ddec_charge
 _atom_site_pbe_ddec_spin_density
 _atom_site_pbe_ddec_sum_bond_order
 _atom_site_pbe_magmom
Er  Er0  1  0.30666004  0.46487311  0.09569748  1  0  2.329097  0  1.573522  0  0  2.272283  0  1.89231  0  0  2.318807  0  1.850692  0  2.212187  0  1.526723  2.16059  0  2.067734  0
Er  Er1  1  0.69333858  0.53512834  0.90430108  1  0  2.329058  0  1.57357  0  0  2.272241  0  1.892356  0  0  2.318772  0  1.850742  0  2.212281  0  1.526735  2.160557  0  2.067764  0
Cu  Cu2  1  0.25211609  0.97477158  0.59532745  1  0  0.49994  0  1.53842  0  0  0.362321  0  1.947959  0  0  0.372274  0  1.909084  0  0.641779  0  0.546061  0.35906  0  1.972798  0
Cu  Cu3  1  0.74788307  0.02522686  0.40467074  1  0  0.49991  0  1.538438  0  0  0.362315  0  1.948007  0  0  0.37227  0  1.909125  0  0.641757  0  0.546052  0.359055  0  1.972846  0
H  H4  1  0.74202369  0.55091390  0.41532750  1  0  0.100658  0  0.958794  0  0  0.113973  0  1.015431  0  0  0.116359  0  1.015182  0  0.089404  0  0.103692  0.112007  0  1.016433  0
H  H5  1  0.25797708  0.44908955  0.58467246  1  0  0.100601  0  0.958844  0  0  0.113956  0  1.015441  0  0  0.116344  0  1.015188  0  0.089404  0  0.103697  0.111985  0  1.016443  0
H  H6  1  0.90695723  0.67589906  0.29850886  1  0  0.120766  0  0.954405  0  0  0.127374  0  1.017842  0  0  0.131117  0  1.015732  0  0.118528  0  0.107685  0.124598  0  1.019777  0
H  H7  1  0.09304462  0.32410038  0.70149148  1  0  0.120774  0  0.954393  0  0  0.127354  0  1.017853  0  0  0.1311  0  1.01574  0  0.118537  0  0.107687  0.124576  0  1.019787  0
H  H8  1  0.28616621  0.57750110  0.43527834  1  0  0.11293  0  0.953614  0  0  0.123329  0  1.016636  0  0  0.126158  0  1.015517  0  0.10751  0  0.107492  0.120736  0  1.018687  0
H  H9  1  0.71383671  0.42250235  0.56472355  1  0  0.112909  0  0.953666  0  0  0.123311  0  1.016694  0  0  0.12614  0  1.015575  0  0.107571  0  0.107489  0.120716  0  1.018746  0
H  H10  1  0.45074264  0.25190324  0.23585318  1  0  0.103622  0  1.001846  0  0  0.112945  0  1.064197  0  0  0.114766  0  1.064821  0  0.107731  0  0.111571  0.111604  0  1.064237  0
H  H11  1  0.54926188  0.74810322  0.76415018  1  0  0.103626  0  1.001881  0  0  0.112938  0  1.064234  0  0  0.114754  0  1.064868  0  0.107716  0  0.111605  0.111598  0  1.064272  0
H  H12  1  0.50612163  0.10929771  0.35783723  1  0  0.090755  0  0.92988  0  0  0.102688  0  0.986719  0  0  0.105024  0  0.985326  0  0.114092  0  0.122191  0.100513  0  0.988651  0
H  H13  1  0.49387860  0.89070474  0.64216332  1  0  0.090752  0  0.929901  0  0  0.102694  0  0.986746  0  0  0.105024  0  0.985356  0  0.114073  0  0.122202  0.100523  0  0.988675  0
H  H14  1  0.93867589  0.18955980  0.27720288  1  0  0.074247  0  0.972951  0  0  0.082831  0  1.040543  0  0  0.084588  0  1.039543  0  0.113005  0  0.114005  0.08117  0  1.042366  0
H  H15  1  0.06132219  0.81043864  0.72279517  1  0  0.074234  0  0.972974  0  0  0.082828  0  1.040557  0  0  0.084585  0  1.039557  0  0.113006  0  0.114006  0.081167  0  1.042378  0
H  H16  1  0.90093836  0.33469582  0.15639815  1  0  0.124038  0  0.961665  0  0  0.134261  0  1.020902  0  0  0.137631  0  1.019175  0  0.127378  0  0.119303  0.131432  0  1.023083  0
H  H17  1  0.09906241  0.66530362  0.84360123  1  0  0.124029  0  0.961683  0  0  0.134255  0  1.020919  0  0  0.137628  0  1.019189  0  0.127408  0  0.119313  0.131425  0  1.023102  0
H  H18  1  0.57379756  0.17819460  0.86265523  1  0  0.114064  0  0.966821  0  0  0.119771  0  1.037093  0  0  0.123761  0  1.033708  0  0.115424  0  0.110491  0.116851  0  1.039593  0
H  H19  1  0.42620321  0.82180484  0.13734415  1  0  0.114073  0  0.966812  0  0  0.11974  0  1.037139  0  0  0.123729  0  1.033754  0  0.115448  0  0.1105  0.116823  0  1.039631  0
H  H20  1  0.76217255  0.08028211  0.90716929  1  0  0.115179  0  0.951093  0  0  0.125206  0  1.008644  0  0  0.128591  0  1.007114  0  0.125497  0  0.10737  0.122706  0  1.010023  0
H  H21  1  0.23782984  0.91971633  0.09282935  1  0  0.115193  0  0.951068  0  0  0.125214  0  1.008628  0  0  0.128601  0  1.007101  0  0.125511  0  0.107363  0.122712  0  1.010009  0
H  H22  1  0.16130033  0.07296891  0.99783926  1  0  0.113934  0  0.931904  0  0  0.12696  0  0.98645  0  0  0.130296  0  0.984451  0  0.101629  0  0.114526  0.124489  0  0.988244  0
H  H23  1  0.83870098  0.92702754  0.00216057  1  0  0.113926  0  0.931882  0  0  0.126954  0  0.986425  0  0  0.130295  0  0.984421  0  0.101923  0  0.114544  0.124473  0  0.98823  0
H  H24  1  0.40982507  0.25566294  0.62624706  1  0  0.110734  0  0.945856  0  0  0.118024  0  1.0063  0  0  0.12136  0  1.002989  0  0.200999  0  0.126297  0.115373  0  1.008986  0
H  H25  1  0.59017033  0.74433250  0.37375587  1  0  0.110601  0  0.946011  0  0  0.118052  0  1.006281  0  0  0.121307  0  1.003074  0  0.201032  0  0.126292  0.115402  0  1.008967  0
H  H26  1  0.43397769  0.40781188  0.49861221  1  0  0.111183  0  0.973943  0  0  0.119095  0  1.040491  0  0  0.122907  0  1.037629  0  0.103731  0  0.110032  0.115983  0  1.043748  0
H  H27  1  0.56602146  0.59218857  0.50139360  1  0  0.111178  0  0.973935  0  0  0.119122  0  1.040441  0  0  0.122937  0  1.037575  0  0.103632  0  0.110023  0.116008  0  1.043701  0
H  H28  1  0.08409104  0.06654057  0.22506051  1  0  0.127158  0  0.927513  0  0  0.138538  0  0.982132  0  0  0.141796  0  0.981012  0  0.110068  0  0.118503  0.1362  0  0.983287  0
H  H29  1  0.91590972  0.93346488  0.77493974  1  0  0.127136  0  0.927507  0  0  0.138508  0  0.982144  0  0  0.141765  0  0.981027  0  0.110116  0  0.118484  0.136169  0  0.983299  0
H  H30  1  0.07661307  0.92530684  0.36134350  1  0  0.09871  0  0.957009  0  0  0.10349  0  1.026008  0  0  0.106635  0  1.022523  0  0.151156  0  0.118991  0.101131  0  1.028643  0
H  H31  1  0.92338394  0.07469361  0.63865224  1  0  0.098699  0  0.95702  0  0  0.103492  0  1.026009  0  0  0.106635  0  1.022522  0  0.151119  0  0.118971  0.10113  0  1.028642  0
H  H32  1  0.97750698  0.31819957  0.92914209  1  0  0.448851  0  0.844509  0  0  0.418486  0  0.90668  0  0  0.428915  0  0.891441  0  0.660579  0  0.303518  0.410612  0  0.918046  0
H  H33  1  0.02248949  0.68180388  0.07085646  1  0  0.448855  0  0.844518  0  0  0.418492  0  0.906687  0  0  0.428917  0  0.891454  0  0.660579  0  0.303528  0.410616  0  0.918056  0
H  H34  1  0.94929830  0.41165967  0.02367108  1  0  0.43964  0  0.832878  0  0  0.412191  0  0.905323  0  0  0.421941  0  0.890546  0  0.61033  0  0.314671  0.404659  0  0.915414  0
H  H35  1  0.05069012  0.58833677  0.97632778  1  0  0.439713  0  0.832791  0  0  0.412245  0  0.905269  0  0  0.42199  0  0.890498  0  0.61042  0  0.314712  0.404712  0  0.915385  0
C  C36  1  0.86222005  0.55907794  0.42203506  1  0  -0.10388  0  3.731712  0  0  -0.124487  0  3.980971  0  0  -0.127255  0  4.003047  0  -0.096957  0  -0.088316  -0.122322  0  3.966517  0
C  C37  1  0.13778179  0.44092751  0.57796534  1  0  -0.10376  0  3.731729  0  0  -0.124397  0  3.980976  0  0  -0.127167  0  4.003052  0  -0.096634  0  -0.088326  -0.122227  0  3.966514  0
C  C38  1  0.95256684  0.62772058  0.35611080  1  0  -0.078527  0  3.754137  0  0  -0.104557  0  4.012048  0  0  -0.105046  0  4.03111  0  0.017109  0  -0.090204  -0.104341  0  3.999599  0
C  C39  1  0.04743447  0.37228186  0.64388991  1  0  -0.07857  0  3.754057  0  0  -0.104557  0  4.011941  0  0  -0.105047  0  4.030998  0  0.016772  0  -0.090197  -0.104338  0  3.99949  0
C  C40  1  0.10600631  0.63353531  0.36195319  1  0  -0.116627  0  3.756287  0  0  -0.093565  0  4.011001  0  0  -0.098867  0  4.030587  0  -0.210913  0  -0.01933  -0.090346  0  3.998165  0
C  C41  1  0.89399554  0.36646613  0.63804744  1  0  -0.116613  0  3.756295  0  0  -0.093526  0  4.010964  0  0  -0.098825  0  4.030536  0  -0.211018  0  -0.019296  -0.090309  0  3.998127  0
C  C42  1  0.16872577  0.57375741  0.43358284  1  0  -0.098573  0  3.696266  0  0  -0.13279  0  3.945562  0  0  -0.132259  0  3.964538  0  -0.001489  0  -0.080005  -0.13267  0  3.933356  0
C  C43  1  0.83127500  0.42624604  0.56641956  1  0  -0.098506  0  3.696282  0  0  -0.132759  0  3.945576  0  0  -0.132226  0  3.964549  0  -0.007334  0  -0.079997  -0.132637  0  3.933371  0
C  C44  1  0.92148736  0.49604683  0.49696821  1  0  0.054435  0  3.784409  0  0  0.072953  0  4.009781  0  0  0.072268  0  4.034498  0  -0.023892  0  -0.007399  0.07341  0  3.992564  0
C  C45  1  0.07851610  0.50395362  0.50303575  1  0  0.05445  0  3.784472  0  0  0.072908  0  4.009903  0  0  0.072227  0  4.034619  0  0.015688  0  -0.007369  0.073368  0  3.992684  0
C  C46  1  0.56132873  0.24232280  0.24580015  1  0  -0.105607  0  3.714626  0  0  -0.129833  0  3.958206  0  0  -0.135132  0  3.981267  0  0.001667  0  -0.074903  -0.126642  0  3.944244  0
C  C47  1  0.43867365  0.75767965  0.75420070  1  0  -0.10558  0  3.714555  0  0  -0.129835  0  3.958207  0  0  -0.13514  0  3.981257  0  0.002267  0  -0.074947  -0.126646  0  3.944247  0
C  C48  1  0.59080644  0.16272536  0.31272041  1  0  0.11738  0  3.674046  0  0  0.089134  0  3.916922  0  0  0.094969  0  3.934489  0  0.439361  0  0.045831  0.085132  0  3.906261  0
C  C49  1  0.40919487  0.83727709  0.68727948  1  0  0.117433  0  3.674046  0  0  0.089137  0  3.916956  0  0  0.094981  0  3.934517  0  0.439098  0  0.045818  0.085133  0  3.9063  0
C  C50  1  0.83312332  0.20751349  0.26770976  1  0  0.124405  0  3.669846  0  0  0.09363  0  3.915678  0  0  0.099551  0  3.934284  0  0.413697  0  0.045504  0.089614  0  3.903891  0
C  C51  1  0.16687637  0.79248595  0.73228946  1  0  0.124429  0  3.669965  0  0  0.093634  0  3.915771  0  0  0.099555  0  3.93438  0  0.413664  0  0.0455  0.08962  0  3.903982  0
C  C52  1  0.81090485  0.28897077  0.20015570  1  0  -0.093045  0  3.672607  0  0  -0.11671  0  3.915505  0  0  -0.121998  0  3.937106  0  0.016753  0  -0.067105  -0.113579  0  3.902647  0
C  C53  1  0.18909645  0.71102968  0.79984389  1  0  -0.092983  0  3.672719  0  0  -0.116661  0  3.915588  0  0  -0.121957  0  3.937177  0  0.016747  0  -0.067106  -0.11353  0  3.902728  0
C  C54  1  0.50154258  0.12131755  0.91289609  1  0  -0.093768  0  3.701304  0  0  -0.127779  0  3.951561  0  0  -0.126644  0  3.969015  0  -0.025427  0  -0.077093  -0.128441  0  3.940499  0
C  C55  1  0.49846195  0.87868089  0.08710285  1  0  -0.093714  0  3.701389  0  0  -0.127734  0  3.951723  0  0  -0.126598  0  3.969174  0  -0.025507  0  -0.077098  -0.128401  0  3.940662  0
C  C56  1  0.54878627  0.03678725  0.96714493  1  0  0.055383  0  3.780347  0  0  0.072763  0  4.004524  0  0  0.071871  0  4.02972  0  0.04596  0  -0.005642  0.073135  0  3.987623  0
C  C57  1  0.45121397  0.96321119  0.03285178  1  0  0.055341  0  3.780314  0  0  0.072708  0  4.004514  0  0  0.071815  0  4.02971  0  -0.016674  0  -0.005669  0.073082  0  3.987613  0
C  C58  1  0.68991851  0.02388454  0.95805192  1  0  -0.095497  0  3.694751  0  0  -0.112391  0  3.943105  0  0  -0.114903  0  3.963449  0  -0.044524  0  -0.0801  -0.110205  0  3.929163  0
C  C59  1  0.31008334  0.97611291  0.04194650  1  0  -0.095446  0  3.694673  0  0  -0.112318  0  3.943018  0  0  -0.114835  0  3.963363  0  -0.044413  0  -0.080042  -0.110132  0  3.929079  0
C  C60  1  0.26677224  0.05959373  0.98875162  1  0  -0.061549  0  3.737705  0  0  -0.090403  0  3.994145  0  0  -0.090792  0  4.013856  0  -0.090891  0  -0.082408  -0.090237  0  3.981142  0
C  C61  1  0.73322692  0.94040472  0.01124739  1  0  -0.061504  0  3.737819  0  0  -0.090352  0  3.994248  0  0  -0.090744  0  4.013958  0  -0.09132  0  -0.082412  -0.090179  0  3.981249  0
C  C62  1  0.36469659  0.13232840  0.92467993  1  0  -0.129346  0  3.769359  0  0  -0.101439  0  4.014388  0  0  -0.107762  0  4.0356  0  -0.141702  0  -0.018381  -0.097418  0  4.001258  0
C  C63  1  0.63530471  0.86767204  0.07531967  1  0  -0.129405  0  3.769682  0  0  -0.101464  0  4.014663  0  0  -0.107784  0  4.035861  0  -0.141639  0  -0.018355  -0.097436  0  4.001524  0
C  C64  1  0.34017129  0.21797380  0.53708979  1  0  0.142218  0  3.632418  0  0  0.113727  0  3.868842  0  0  0.121048  0  3.885113  0  0.406219  0  0.051422  0.108851  0  3.85867  0
C  C65  1  0.65982142  0.78202464  0.46291157  1  0  0.142282  0  3.632401  0  0  0.113657  0  3.868868  0  0  0.121029  0  3.885183  0  0.405616  0  0.051388  0.108783  0  3.858698  0
C  C66  1  0.35186189  0.30202363  0.46495287  1  0  -0.120838  0  3.70841  0  0  -0.143076  0  3.954905  0  0  -0.149553  0  3.976113  0  -0.001794  0  -0.074909  -0.139174  0  3.942992  0
C  C67  1  0.64813404  0.69797682  0.53504761  1  0  -0.120845  0  3.7083  0  0  -0.143096  0  3.954844  0  0  -0.149573  0  3.976035  0  -0.00131  0  -0.074919  -0.139197  0  3.942937  0
C  C68  1  0.25934969  0.24933471  0.35110967  1  0  -0.011863  0  3.743522  0  0  0.009852  0  3.969753  0  0  0.008129  0  3.990186  0  -0.023601  0  0.00214  0.010261  0  3.958259  0
C  C69  1  0.74064785  0.75066874  0.64889310  1  0  -0.011822  0  3.743496  0  0  0.009902  0  3.969705  0  0  0.008177  0  3.990144  0  -0.023636  0  0.00218  0.010311  0  3.958213  0
C  C70  1  0.15754876  0.11191729  0.31324185  1  0  -0.115267  0  3.687499  0  0  -0.136576  0  3.932973  0  0  -0.141626  0  3.951584  0  -0.010399  0  -0.073453  -0.134355  0  3.923117  0
C  C71  1  0.84244664  0.88808416  0.68675870  1  0  -0.115212  0  3.687426  0  0  -0.136521  0  3.932902  0  0  -0.141568  0  3.951508  0  -0.010447  0  -0.073432  -0.134298  0  3.923044  0
C  C72  1  0.15294998  0.03255008  0.38911986  1  0  0.125029  0  3.670332  0  0  0.092847  0  3.918685  0  0  0.101316  0  3.93241  0  0.453904  0  0.04813  0.086922  0  3.910762  0
C  C73  1  0.84704542  0.96745137  0.61087744  1  0  0.125014  0  3.670288  0  0  0.092832  0  3.91864  0  0  0.10131  0  3.932357  0  0.453962  0  0.04818  0.08691  0  3.910713  0
C  C74  1  0.67151891  0.30669323  0.18755673  1  0  -0.009084  0  3.69938  0  0  0.013659  0  3.919  0  0  0.011437  0  3.938982  0  0.018452  0  0.010789  0.014142  0  3.907916  0
C  C75  1  0.32848401  0.69331022  0.81244353  1  0  -0.009229  0  3.699486  0  0  0.013565  0  3.919059  0  0  0.01137  0  3.939009  0  0.018522  0  0.010772  0.014049  0  3.907975  0
C  C76  1  0.63553036  0.38704842  0.10988942  1  0  0.715631  0  3.856945  0  0  0.671379  0  4.147521  0  0  0.706278  0  4.135348  0  1.598026  0  0.233944  0.646826  0  4.15049  0
C  C77  1  0.36447363  0.61295704  0.89011128  1  0  0.715623  0  3.857106  0  0  0.671378  0  4.14764  0  0  0.70627  0  4.135457  0  1.597536  0  0.233916  0.646825  0  4.15061  0
C  C78  1  0.27357866  0.33578490  0.26900797  1  0  0.606338  0  3.98871  0  0  0.562136  0  4.289496  0  0  0.595777  0  4.279433  0  1.56836  0  0.183522  0.540647  0  4.286117  0
C  C79  1  0.72642050  0.66421755  0.73099488  1  0  0.606317  0  3.98877  0  0  0.56212  0  4.289553  0  0  0.595763  0  4.279484  0  1.568747  0  0.183525  0.540632  0  4.286174  0
S  S80  1  0.30824978  0.23701657  0.85259371  1  0  1.389625  0  5.556852  0  0  1.295596  0  6.070846  0  0  1.344717  0  6.043569  0  3.196961  0  0.544811  1.259876  0  6.084414  0
S  S81  1  0.69175046  0.76298388  0.14740655  1  0  1.389739  0  5.556785  0  0  1.295729  0  6.070756  0  0  1.344844  0  6.043477  0  3.19699  0  0.544864  1.260007  0  6.084328  0
S  S82  1  0.21832073  0.71450110  0.27081106  1  0  1.345915  0  5.5946  0  0  1.253048  0  6.108629  0  0  1.301061  0  6.083679  0  3.190518  0  0.528816  1.218932  0  6.123729  0
S  S83  1  0.78167950  0.28549934  0.72918757  1  0  1.345811  0  5.594627  0  0  1.252933  0  6.108676  0  0  1.300954  0  6.08371  0  3.190287  0  0.528756  1.218823  0  6.123769  0
N  N84  1  0.24340299  0.08461438  0.49922500  1  0  -0.287952  0  3.441524  0  0  -0.196594  0  3.725824  0  0  -0.210003  0  3.73396  0  -1.233644  0  -0.381375  -0.188339  0  3.720418  0
N  N85  1  0.75659187  0.91538606  0.50077452  1  0  -0.287932  0  3.441472  0  0  -0.196604  0  3.725853  0  0  -0.210008  0  3.733965  0  -1.233665  0  -0.3814  -0.18835  0  3.720448  0
N  N86  1  0.72475279  0.14399490  0.32289599  1  0  -0.299481  0  3.476279  0  0  -0.211358  0  3.771081  0  0  -0.224105  0  3.779794  0  -1.21553  0  -0.386126  -0.203481  0  3.765104  0
N  N87  1  0.27524799  0.85600455  0.67710339  1  0  -0.299568  0  3.476381  0  0  -0.211371  0  3.771132  0  0  -0.224121  0  3.779844  0  -1.215544  0  -0.386126  -0.203496  0  3.765156  0
O  O88  1  0.18269517  0.28058050  0.16644085  1  0  -0.693233  0  1.972322  0  0  -0.659637  0  2.215898  0  0  -0.683254  0  2.206034  0  -1.178375  0  -0.390845  -0.633565  0  2.222545  0
O  O89  1  0.81730237  0.71942295  0.83356192  1  0  -0.693213  0  1.972343  0  0  -0.659625  0  2.215925  0  0  -0.68323  0  2.206054  0  -1.178446  0  -0.390863  -0.633552  0  2.22257  0
O  O90  1  0.37759954  0.45783617  0.29988518  1  0  -0.664237  0  1.954432  0  0  -0.629974  0  2.19408  0  0  -0.653147  0  2.185406  0  -1.183878  0  -0.35111  -0.605752  0  2.199052  0
O  O91  1  0.62240122  0.54216527  0.70011693  1  0  -0.664205  0  1.95446  0  0  -0.62995  0  2.1941  0  0  -0.653121  0  2.185431  0  -1.184141  0  -0.351088  -0.605729  0  2.199071  0
O  O92  1  0.22164544  0.60292015  0.18988431  1  0  -0.811026  0  2.075596  0  0  -0.763907  0  2.354639  0  0  -0.786985  0  2.339046  0  -1.347883  0  -0.435878  -0.735355  0  2.368236  0
O  O93  1  0.77835426  0.39707930  0.81011491  1  0  -0.811001  0  2.075618  0  0  -0.763859  0  2.354634  0  0  -0.786976  0  2.339097  0  -1.347881  0  -0.435856  -0.735316  0  2.368231  0
O  O94  1  0.23778671  0.29986951  0.92725937  1  0  -0.759204  0  2.050518  0  0  -0.714505  0  2.323752  0  0  -0.736235  0  2.307451  0  -1.337134  0  -0.397733  -0.687631  0  2.336192  0
O  O95  1  0.76221620  0.70013394  0.07274007  1  0  -0.759215  0  2.050489  0  0  -0.71456  0  2.323768  0  0  -0.736286  0  2.307471  0  -1.337144  0  -0.397783  -0.687688  0  2.336204  0
O  O96  1  0.12496617  0.77206583  0.20878506  1  0  -0.658988  0  1.964487  0  0  -0.599554  0  2.196397  0  0  -0.621001  0  2.182699  0  -1.335553  0  -0.325582  -0.584963  0  2.206901  0
O  O97  1  0.87502869  0.22793061  0.79121550  1  0  -0.658932  0  1.964482  0  0  -0.599509  0  2.196411  0  0  -0.620962  0  2.182706  0  -1.335558  0  -0.325552  -0.584919  0  2.206909  0
O  O98  1  0.37671331  0.81287504  0.34218469  1  0  -0.657452  0  1.920271  0  0  -0.619618  0  2.179578  0  0  -0.638976  0  2.163944  0  -1.337693  0  -0.335761  -0.606089  0  2.19033  0
O  O99  1  0.62328800  0.18712540  0.65780921  1  0  -0.657432  0  1.920228  0  0  -0.619593  0  2.179529  0  0  -0.63895  0  2.163899  0  -1.337459  0  -0.335762  -0.606063  0  2.190281  0
O  O100  1  0.51254980  0.40662971  0.10915237  1  0  -0.771448  0  2.14386  0  0  -0.738411  0  2.414502  0  0  -0.763227  0  2.403267  0  -1.202057  0  -0.392491  -0.707037  0  2.420708  0
O  O101  1  0.48745312  0.59337574  0.89084737  1  0  -0.771403  0  2.144009  0  0  -0.738341  0  2.414566  0  0  -0.763187  0  2.40341  0  -1.201904  0  -0.392453  -0.706966  0  2.420771  0
O  O102  1  0.45788103  0.33545357  0.83586304  1  0  -0.78627  0  2.108022  0  0  -0.745794  0  2.390736  0  0  -0.766808  0  2.373563  0  -1.350107  0  -0.404197  -0.71877  0  2.403105  0
O  O103  1  0.54211974  0.66454587  0.16413552  1  0  -0.786305  0  2.107922  0  0  -0.745863  0  2.390683  0  0  -0.766876  0  2.373494  0  -1.350094  0  -0.404248  -0.718839  0  2.403054  0
O  O104  1  0.19192473  0.15082763  0.74423889  1  0  -0.656225  0  1.95614  0  0  -0.605454  0  2.218217  0  0  -0.627426  0  2.203354  0  -1.334018  0  -0.32429  -0.590346  0  2.229441  0
O  O105  1  0.80807496  0.84917181  0.25576197  1  0  -0.656204  0  1.956084  0  0  -0.60545  0  2.218193  0  0  -0.627411  0  2.203321  0  -1.334016  0  -0.32425  -0.590343  0  2.229417  0
O  O106  1  0.72919282  0.42808886  0.04714138  1  0  -0.731018  0  2.052886  0  0  -0.69144  0  2.303675  0  0  -0.716379  0  2.292876  0  -1.18961  0  -0.381143  -0.663727  0  2.312926  0
O  O107  1  0.27081547  0.57192060  0.95286213  1  0  -0.731036  0  2.052924  0  0  -0.691465  0  2.303703  0  0  -0.716427  0  2.29295  0  -1.189516  0  -0.381155  -0.663754  0  2.312958  0
O  O108  1  0.02315741  0.37396352  0.00997187  1  0  -0.901933  0  1.882657  0  0  -0.864697  0  2.08582  0  0  -0.881986  0  2.053695  0  -1.246525  0  -0.6323  -0.842736  0  2.112755  0
O  O109  1  0.97684013  0.62604193  0.99002630  1  0  -0.901997  0  1.882577  0  0  -0.864742  0  2.085671  0  0  -0.882046  0  2.053593  0  -1.246547  0  -0.632354  -0.842782  0  2.112628  0
