# generated using pymatgen
data_CaH18C10N2Cl2(O2F)2
_symmetry_space_group_name_H-M   'P 1'
_cell_length_a   5.80998069
_cell_length_b   8.95825161
_cell_length_c   16.49072088
_cell_angle_alpha   89.99923073
_cell_angle_beta   97.36940677
_cell_angle_gamma   90.00081462
_symmetry_Int_Tables_number   1
_chemical_formula_structural   CaH18C10N2Cl2(O2F)2
_chemical_formula_sum   'Ca2 H36 C20 N4 Cl4 O8 F4'
_cell_volume   851.20727203
_cell_formula_units_Z   2
loop_
 _symmetry_equiv_pos_site_id
 _symmetry_equiv_pos_as_xyz
  1  'x, y, z'
loop_
 _atom_site_type_symbol
 _atom_site_label
 _atom_site_symmetry_multiplicity
 _atom_site_fract_x
 _atom_site_fract_y
 _atom_site_fract_z
 _atom_site_occupancy
 _atom_site_pbe_bader_spin_density
 _atom_site_pbe_cm5_charge
 _atom_site_pbe_ddec_charge
 _atom_site_pbe_ddec_spin_density
 _atom_site_pbe_ddec_sum_bond_order
 _atom_site_pbe_magmom
Ca  Ca0  1  0.96755002  0.57373740  0.89033650  1  0  0.755526  1.370462  0  1.541089  0
Ca  Ca1  1  0.03245589  0.07372439  0.10966005  1  0  0.755504  1.370325  0  1.541284  0
H  H2  1  0.60363030  0.88041366  0.81531518  1  0  0.128373  0.100266  0  0.985314  0
H  H3  1  0.39636644  0.38038880  0.18467336  1  0  0.128353  0.100211  0  0.985278  0
H  H4  1  0.29170777  0.07169046  0.69115557  1  0  0.084359  0.076858  0  1.012885  0
H  H5  1  0.70828473  0.57168572  0.30883309  1  0  0.084343  0.076838  0  1.012731  0
H  H6  1  0.48745439  0.13782720  0.77343395  1  0  0.091871  0.099156  0  1.00625  0
H  H7  1  0.51251801  0.63779911  0.22656041  1  0  0.091786  0.099068  0  1.006252  0
H  H8  1  0.14102808  0.84609192  0.63074568  1  0  0.099112  0.079873  0  1.013995  0
H  H9  1  0.85894947  0.34609336  0.36924822  1  0  0.099159  0.079882  0  1.014076  0
H  H10  1  0.05457523  0.71475569  0.70254031  1  0  0.110121  0.097955  0  1.019763  0
H  H11  1  0.94542204  0.21476003  0.29746288  1  0  0.110168  0.098034  0  1.019689  0
H  H12  1  0.59522074  0.49634708  0.62866381  1  0  0.095051  0.114022  0  1.032316  0
H  H13  1  0.40476864  0.99634884  0.37134224  1  0  0.095078  0.114046  0  1.032254  0
H  H14  1  0.40322726  0.44620005  0.70016158  1  0  0.099418  0.145538  0  1.010015  0
H  H15  1  0.59676620  0.94619059  0.29984206  1  0  0.099413  0.145559  0  1.009962  0
H  H16  1  0.31526711  0.66263395  0.55632440  1  0  0.095611  0.063107  0  0.974835  0
H  H17  1  0.68472909  0.16263598  0.44367559  1  0  0.095629  0.063062  0  0.974722  0
H  H18  1  0.82397636  0.03305719  0.71279637  1  0  0.082211  0.114464  0  1.028446  0
H  H19  1  0.17603633  0.53300256  0.28720842  1  0  0.082225  0.114557  0  1.028442  0
H  H20  1  0.65832841  0.15333487  0.64250562  1  0  0.082837  0.11492  0  1.005875  0
H  H21  1  0.34165955  0.65330196  0.35748827  1  0  0.082822  0.114948  0  1.005915  0
H  H22  1  0.63442039  0.95722082  0.62949861  1  0  0.075394  0.099061  0  1.032754  0
H  H23  1  0.36561318  0.45720091  0.37050242  1  0  0.075455  0.099159  0  1.032763  0
H  H24  1  0.01087048  0.43120544  0.63236153  1  0  0.1159  0.161044  0  0.996331  0
H  H25  1  0.98914944  0.93121283  0.36763872  1  0  0.115853  0.160971  0  0.996309  0
H  H26  1  0.02958119  0.01798068  0.89207189  1  0  0.293251  0.307641  0  0.981527  0
H  H27  1  0.97040553  0.51797498  0.10793280  1  0  0.293364  0.307732  0  0.981726  0
H  H28  1  0.19305635  0.12501422  0.83236581  1  0  0.278253  0.303465  0  1.014176  0
H  H29  1  0.80694717  0.62499326  0.16763381  1  0  0.278294  0.303491  0  1.01416  0
H  H30  1  0.58116154  0.65161635  0.98684273  1  0  0.286231  0.386031  0  0.946562  0
H  H31  1  0.41886059  0.15161914  0.01316154  1  0  0.286238  0.385961  0  0.946604  0
H  H32  1  0.69870454  0.80834357  0.97442106  1  0  0.278401  0.375652  0  0.965933  0
H  H33  1  0.30130783  0.30834037  0.02557817  1  0  0.278405  0.375637  0  0.965956  0
H  H34  1  0.73325410  0.27930745  0.92839981  1  0  0.278726  0.376307  0  0.960789  0
H  H35  1  0.26676419  0.77930265  0.07159253  1  0  0.27863  0.376153  0  0.960988  0
H  H36  1  0.54010192  0.38316558  0.88305397  1  0  0.269594  0.368775  0  0.978858  0
H  H37  1  0.45991166  0.88316586  0.11694322  1  0  0.269575  0.368718  0  0.978965  0
C  C38  1  0.24950461  0.89452863  0.83267350  1  0  0.262486  0.570095  0  4.066745  0
C  C39  1  0.75050736  0.39452042  0.16732007  1  0  0.262613  0.570275  0  4.066401  0
C  C40  1  0.55792641  0.65652687  0.72399457  1  0  0.262961  0.512303  0  4.063676  0
C  C41  1  0.44206277  0.15650518  0.27600713  1  0  0.262986  0.512281  0  4.063411  0
C  C42  1  0.43934002  0.90034517  0.77539219  1  0  0.024634  -0.026869  0  3.828574  0
C  C43  1  0.56068445  0.40033225  0.22459571  1  0  0.024591  -0.027154  0  3.82847  0
C  C44  1  0.45806366  0.04688511  0.72861326  1  0  -0.167727  -0.146948  0  3.944836  0
C  C45  1  0.54190392  0.54686978  0.27138731  1  0  -0.167617  -0.14677  0  3.94447  0
C  C46  1  0.19403945  0.74583793  0.66648792  1  0  -0.056121  -0.099814  0  3.828542  0
C  C47  1  0.80596948  0.24582496  0.33351936  1  0  -0.056309  -0.100016  0  3.828891  0
C  C48  1  0.46161566  0.53869993  0.66368989  1  0  -0.159215  -0.331624  0  3.86596  0
C  C49  1  0.53838131  0.03868793  0.33631502  1  0  -0.159238  -0.331735  0  3.86582  0
C  C50  1  0.25620027  0.61506900  0.61153254  1  0  -0.073736  0.085256  0  3.879766  0
C  C51  1  0.74378264  0.11508973  0.38846400  1  0  -0.073697  0.085568  0  3.87939  0
C  C52  1  0.65475058  0.04684921  0.67537919  1  0  -0.251493  -0.347794  0  3.964727  0
C  C53  1  0.34522707  0.54681861  0.32462737  1  0  -0.251476  -0.347898  0  3.964633  0
C  C54  1  0.91248200  0.52540412  0.51851227  1  0  0.184965  0.409247  0  4.192886  0
C  C55  1  0.08749913  0.02540601  0.48149724  1  0  0.184919  0.409091  0  4.192895  0
C  C56  1  0.05298067  0.51432910  0.58821079  1  0  -0.121751  -0.361641  0  4.0242  0
C  C57  1  0.94699085  0.01433942  0.41178718  1  0  -0.121556  -0.361496  0  4.023818  0
N  N58  1  0.40911168  0.77239759  0.72071273  1  0  -0.26643  -0.11417  0  3.62624  0
N  N59  1  0.59089743  0.27237388  0.27928792  1  0  -0.266411  -0.114125  0  3.625789  0
N  N60  1  0.14820648  0.02074338  0.85103016  1  0  -0.550662  -0.601091  0  3.375827  0
N  N61  1  0.85181562  0.52074573  0.14896536  1  0  -0.550821  -0.601168  0  3.37597  0
Cl  Cl62  1  0.27326486  0.54661250  0.03315970  1  0  -0.242759  -0.581574  0  1.057791  0
Cl  Cl63  1  0.72674834  0.04661327  0.96683541  1  0  -0.24273  -0.581526  0  1.057761  0
Cl  Cl64  1  0.20665678  0.36790122  0.81463496  1  0  -0.301361  -0.625254  0  0.999513  0
Cl  Cl65  1  0.79334629  0.86789637  0.18536538  1  0  -0.301376  -0.625246  0  0.999499  0
O  O66  1  0.74489600  0.64869419  0.77056722  1  0  -0.355576  -0.576329  0  2.284904  0
O  O67  1  0.25509152  0.14868526  0.22943414  1  0  -0.355639  -0.576302  0  2.284651  0
O  O68  1  0.19675258  0.77024088  0.86014054  1  0  -0.36839  -0.603668  0  2.257173  0
O  O69  1  0.80326028  0.27022729  0.13985616  1  0  -0.36842  -0.603645  0  2.256715  0
O  O70  1  0.71846435  0.69963918  0.96889691  1  0  -0.63246  -0.817533  0  2.053745  0
O  O71  1  0.28155055  0.19963515  0.03110485  1  0  -0.632458  -0.817409  0  2.053867  0
O  O72  1  0.70180747  0.38344945  0.91122170  1  0  -0.633998  -0.810837  0  2.034325  0
O  O73  1  0.29820618  0.88344460  0.08877427  1  0  -0.633895  -0.810636  0  2.03449  0
F  F74  1  0.93408465  0.62273158  0.45788737  1  0  -0.077575  -0.140008  0  1.395546  0
F  F75  1  0.06587064  0.12271920  0.54213163  1  0  -0.077584  -0.140003  0  1.395786  0
F  F76  1  0.72251269  0.44034606  0.49753456  1  0  -0.076087  -0.146393  0  1.410217  0
F  F77  1  0.27748397  0.94033359  0.50247436  1  0  -0.076123  -0.146391  0  1.410015  0
