# generated using pymatgen
data_Al2H11C20ClO10
_symmetry_space_group_name_H-M   'P 1'
_cell_length_a   6.64631627
_cell_length_b   11.17007129
_cell_length_c   11.04674030
_cell_angle_alpha   76.58647123
_cell_angle_beta   74.00182797
_cell_angle_gamma   71.74398526
_symmetry_Int_Tables_number   1
_chemical_formula_structural   Al2H11C20ClO10
_chemical_formula_sum   'Al2 H11 C20 Cl1 O10'
_cell_volume   739.07623002
_cell_formula_units_Z   1
loop_
 _symmetry_equiv_pos_site_id
 _symmetry_equiv_pos_as_xyz
  1  'x, y, z'
loop_
 _atom_site_type_symbol
 _atom_site_label
 _atom_site_symmetry_multiplicity
 _atom_site_fract_x
 _atom_site_fract_y
 _atom_site_fract_z
 _atom_site_occupancy
 _atom_site_pbe_bader_charge
 _atom_site_pbe_bader_spin_density
 _atom_site_pbe_cm5_charge
 _atom_site_pbe_ddec_charge
 _atom_site_pbe_ddec_spin_density
 _atom_site_pbe_ddec_sum_bond_order
 _atom_site_pbe_magmom
Al  Al0  1  0.49257795  0.49284290  0.50688131  1  2.503796  0  0.396351  1.644119  0  2.578467  0
Al  Al1  1  0.99424749  0.49188457  0.50405927  1  2.501895  0  0.395284  1.637538  0  2.581562  0
H  H2  1  0.28363392  0.33719257  0.59038933  1  0.627408  0  0.35494  0.430395  0  0.852433  0
H  H3  1  0.70030772  0.64928752  0.43029448  1  0.643623  0  0.342373  0.414982  0  0.887882  0
H  H4  1  0.17733718  0.41528294  0.12281146  1  0.099592  0  0.110552  0.11757  0  0.990413  0
H  H5  1  0.66425822  0.59536651  0.11945856  1  0.109785  0  0.112478  0.132379  0  0.994466  0
H  H6  1  0.32051143  0.41151374  0.88814561  1  0.104075  0  0.111692  0.119997  0  0.995076  0
H  H7  1  0.26456536  0.24447388  0.34802634  1  0.123666  0  0.106028  0.111324  0  1.047855  0
H  H8  1  0.62617440  0.14050415  0.23040823  1  0.091731  0  0.103978  0.101473  0  0.987107  0
H  H9  1  0.47012803  0.77935642  0.33209753  1  0.048872  0  0.107123  0.106624  0  1.036679  0
H  H10  1  0.72882508  0.90681870  0.22023593  1  0.07525  0  0.105533  0.103051  0  0.982786  0
H  H11  1  0.74253800  0.86677922  0.58249526  1  0.127114  0  0.110902  0.114684  0  0.992147  0
H  H12  1  0.62791854  0.10288165  0.57692319  1  0.091645  0  0.10999  0.113027  0  0.989905  0
C  C13  1  0.86237437  0.26681099  0.49208514  1  1.55633  0  0.27421  0.656491  0  4.073575  0
C  C14  1  0.64754833  0.48854526  0.73315485  1  1.581792  0  0.265546  0.648523  0  4.099123  0
C  C15  1  0.13290352  0.72090032  0.49721363  1  1.556915  0  0.274094  0.65444  0  4.082465  0
C  C16  1  0.33868507  0.50477078  0.27554744  1  1.592621  0  0.265447  0.630147  0  4.107438  0
C  C17  1  0.57120465  0.50003582  0.87173197  1  -0.001109  0  -0.014179  -0.099268  0  3.921078  0
C  C18  1  0.41504711  0.50383665  0.13529423  1  -0.000632  0  -0.007675  -0.011684  0  3.973729  0
C  C19  1  0.66479346  0.55545785  0.93746761  1  0.045001  0  0.025181  0.139562  0  4.015287  0
C  C20  1  0.31507954  0.45296194  0.07061769  1  -0.043522  0  -0.082934  -0.103573  0  3.98075  0
C  C21  1  0.58883713  0.55500360  0.06852974  1  -0.007393  0  -0.088223  -0.170886  0  3.959246  0
C  C22  1  0.39466847  0.45072309  0.94086649  1  0.042615  0  -0.078409  -0.079064  0  3.982646  0
C  C23  1  0.94092192  0.12875247  0.47900315  1  -0.053468  0  -0.006586  -0.083117  0  3.932417  0
C  C24  1  0.15769900  0.07115698  0.41506461  1  -0.039181  0  0.000923  0.059941  0  3.943195  0
C  C25  1  0.79371160  0.05612960  0.53286929  1  0.017582  0  -0.079316  -0.089894  0  4.001915  0
C  C26  1  0.31002453  0.14225879  0.34755089  1  -0.037201  0  -0.091735  -0.136072  0  3.968341  0
C  C27  1  0.51231694  0.08384345  0.28101449  1  -0.085993  0  -0.088984  -0.072866  0  4.030438  0
C  C28  1  0.06803125  0.86317912  0.48016782  1  -0.025529  0  -0.005575  -0.07886  0  3.933771  0
C  C29  1  0.85711283  0.92359638  0.53488256  1  -0.034978  0  -0.080164  -0.092768  0  4.002143  0
C  C30  1  0.22032599  0.93574798  0.41337338  1  -0.014917  0  0.000981  0.062947  0  3.942584  0
C  C31  1  0.42754831  0.87998117  0.34003246  1  0.014868  0  -0.092477  -0.140943  0  3.986733  0
C  C32  1  0.57089524  0.95193874  0.27590469  1  -0.052328  0  -0.089852  -0.076675  0  4.03837  0
Cl  Cl33  1  0.86827291  0.63098843  0.86334441  1  -0.191418  0  0.009268  -0.055552  0  1.524779  0
O  O34  1  0.66559426  0.32295911  0.48560399  1  -1.264125  0  -0.233366  -0.594024  0  2.334207  0
O  O35  1  0.83926431  0.49551932  0.67841011  1  -1.252581  0  -0.235856  -0.591683  0  2.403003  0
O  O36  1  0.99737276  0.66657497  0.48683293  1  -1.258458  0  -0.232942  -0.595036  0  2.343297  0
O  O37  1  0.46605919  0.52515417  0.33136981  1  -1.265251  0  -0.236911  -0.591729  0  2.364446  0
O  O38  1  0.31814098  0.66336731  0.52272720  1  -1.262594  0  -0.235237  -0.595629  0  2.356766  0
O  O39  1  0.15247434  0.48600131  0.32822681  1  -1.258264  0  -0.23601  -0.585757  0  2.343109  0
O  O40  1  0.99266661  0.31872730  0.51279128  1  -1.261386  0  -0.232121  -0.593712  0  2.357192  0
O  O41  1  0.51406107  0.46867014  0.68123581  1  -1.263609  0  -0.236855  -0.594822  0  2.345772  0
O  O42  1  0.25070261  0.42856435  0.56154079  1  -1.431232  0  -0.447712  -0.982955  0  2.195005  0
O  O43  1  0.73598431  0.55663991  0.44806559  1  -1.451009  0  -0.449756  -0.982642  0  2.194602  0
