# generated using pymatgen
data_Cu3H21(C5N2)4
_symmetry_space_group_name_H-M   'P 1'
_cell_length_a   11.28272968
_cell_length_b   11.44295678
_cell_length_c   12.69530000
_cell_angle_alpha   88.49354710
_cell_angle_beta   65.76227371
_cell_angle_gamma   68.28236615
_symmetry_Int_Tables_number   1
_chemical_formula_structural   Cu3H21(C5N2)4
_chemical_formula_sum   'Cu6 H42 C40 N16'
_cell_volume   1373.14107122
_cell_formula_units_Z   2
loop_
 _symmetry_equiv_pos_site_id
 _symmetry_equiv_pos_as_xyz
  1  'x, y, z'
loop_
 _atom_site_type_symbol
 _atom_site_label
 _atom_site_symmetry_multiplicity
 _atom_site_fract_x
 _atom_site_fract_y
 _atom_site_fract_z
 _atom_site_occupancy
 _atom_site_hle17_bader_spin_density
 _atom_site_hle17_ddec_charge
 _atom_site_hle17_ddec_spin_density
 _atom_site_hle17_ddec_sum_bond_order
 _atom_site_hle17_magmom
 _atom_site_hse06_10hf_bader_spin_density
 _atom_site_hse06_10hf_ddec_charge
 _atom_site_hse06_10hf_ddec_spin_density
 _atom_site_hse06_10hf_ddec_sum_bond_order
 _atom_site_hse06_10hf_magmom
 _atom_site_hse06_bader_spin_density
 _atom_site_hse06_ddec_charge
 _atom_site_hse06_ddec_spin_density
 _atom_site_hse06_ddec_sum_bond_order
 _atom_site_hse06_magmom
 _atom_site_pbe_bader_charge
 _atom_site_pbe_bader_spin_density
 _atom_site_pbe_cm5_charge
 _atom_site_pbe_ddec_charge
 _atom_site_pbe_ddec_spin_density
 _atom_site_pbe_ddec_sum_bond_order
 _atom_site_pbe_magmom
Cu  Cu0  1  0.82526422  0.11914650  0.40487951  1  0  0.398332  0  2.237197  0  0  0.300575  0  2.734695  0  0  0.297606  0  2.692691  0  0.657777  0  0.500149  0.30489  0  2.761374  0
Cu  Cu1  1  0.17473691  0.88085045  0.59512283  1  0  0.398384  0  2.237412  0  0  0.300618  0  2.734885  0  0  0.297676  0  2.692938  0  0.657779  0  0.500165  0.304957  0  2.761525  0
Cu  Cu2  1  0.13524599  0.94862054  0.99263984  1  0  0.368726  0  2.323759  0  0  0.278606  0  2.823213  0  0  0.277031  0  2.772085  0  0.654255  0  0.481076  0.282136  0  2.856851  0
Cu  Cu3  1  0.86474791  0.05137735  0.00736038  1  0  0.36869  0  2.323855  0  0  0.278546  0  2.823302  0  0  0.277035  0  2.772196  0  0.654423  0  0.481072  0.282095  0  2.856977  0
Cu  Cu4  1  0.36005022  0.18188481  0.70814346  1  0  0.403694  0  2.267534  0  0  0.3136  0  2.750609  0  0  0.308608  0  2.708833  0  0.65302  0  0.50641  0.320308  0  2.77604  0
Cu  Cu5  1  0.63994563  0.81811974  0.29186221  1  0  0.403781  0  2.267326  0  0  0.313682  0  2.750415  0  0  0.308696  0  2.708634  0  0.65322  0  0.506451  0.320388  0  2.775847  0
H  H6  1  0.52488978  0.66100095  0.55865186  1  0  0.130388  0  0.956147  0  0  0.148225  0  1.018935  0  0  0.149118  0  1.020157  0  0.067658  0  0.094646  0.147499  0  1.018235  0
H  H7  1  0.47510898  0.33899694  0.44135053  1  0  0.130363  0  0.956094  0  0  0.148226  0  1.018864  0  0  0.149118  0  1.020092  0  0.06757  0  0.094653  0.1475  0  1.018161  0
H  H8  1  0.55070373  0.50143096  0.58266923  1  0  0.121645  0  0.940916  0  0  0.144846  0  0.99594  0  0  0.146149  0  0.995979  0  0.064509  0  0.099357  0.143976  0  0.99574  0
H  H9  1  0.44929823  0.49857074  0.41732954  1  0  0.121626  0  0.94091  0  0  0.144821  0  0.995952  0  0  0.146128  0  0.995986  0  0.064483  0  0.099352  0.14395  0  0.99575  0
H  H10  1  0.62878197  0.58227510  0.63301580  1  0  0.112752  0  0.93509  0  0  0.132474  0  0.994611  0  0  0.134344  0  0.994014  0  0.031509  0  0.093254  0.131274  0  0.994846  0
H  H11  1  0.37121610  0.41772660  0.36698518  1  0  0.112766  0  0.935059  0  0  0.132504  0  0.994572  0  0  0.134375  0  0.993974  0  0.031507  0  0.09327  0.131299  0  0.994813  0
H  H12  1  0.38557289  0.82873307  0.77787888  1  0  0.296426  0  0.878733  0  0  0.284794  0  0.929977  0  0  0.290055  0  0.927577  0  0.504555  0  0.335629  0.280935  0  0.932045  0
H  H13  1  0.61442407  0.17126673  0.22212177  1  0  0.296352  0  0.87885  0  0  0.284709  0  0.930094  0  0  0.289973  0  0.927685  0  0.504497  0  0.335661  0.280846  0  0.93216  0
H  H14  1  0.12157055  0.09396575  0.28697145  1  0  0.300261  0  0.858702  0  0  0.292056  0  0.901356  0  0  0.297355  0  0.898997  0  0.478373  0  0.344549  0.28827  0  0.903247  0
H  H15  1  0.87843391  0.90603024  0.71302733  1  0  0.300244  0  0.858744  0  0  0.292046  0  0.901384  0  0  0.297348  0  0.899025  0  0.478391  0  0.344566  0.288259  0  0.903275  0
H  H16  1  0.02637391  0.74616633  0.06283439  1  0  0.1205  0  0.956753  0  0  0.136506  0  1.027673  0  0  0.138892  0  1.025919  0  0.075463  0  0.09487  0.134688  0  1.028977  0
H  H17  1  0.97362082  0.25383632  0.93716464  1  0  0.120554  0  0.956674  0  0  0.136566  0  1.027591  0  0  0.138943  0  1.025845  0  0.075598  0  0.094896  0.134748  0  1.028893  0
H  H18  1  0.11419212  0.57649474  0.03862099  1  0  0.111475  0  0.929685  0  0  0.132091  0  0.986639  0  0  0.13352  0  0.986761  0  0.029775  0  0.091787  0.131099  0  0.986575  0
H  H19  1  0.88579817  0.42350696  0.96138125  1  0  0.111493  0  0.929699  0  0  0.132138  0  0.986606  0  0  0.133568  0  0.986726  0  0.02986  0  0.091819  0.131147  0  0.98654  0
H  H20  1  0.00938109  0.65309850  0.96471661  1  0  0.116667  0  0.930855  0  0  0.138687  0  0.98655  0  0  0.139817  0  0.987194  0  0.044698  0  0.095101  0.137876  0  0.986122  0
H  H21  1  0.99061462  0.34690415  0.03528048  1  0  0.116743  0  0.93079  0  0  0.138745  0  0.986507  0  0  0.139877  0  0.987149  0  0.044795  0  0.095123  0.137932  0  0.986081  0
H  H22  1  0.29632498  0.40470391  0.84088184  1  0  0.095013  0  0.912577  0  0  0.113211  0  0.971006  0  0  0.115765  0  0.96769  0  0.056138  0  0.104444  0.110985  0  0.973874  0
H  H23  1  0.70367295  0.59529588  0.15911609  1  0  0.095091  0  0.912533  0  0  0.113297  0  0.97094  0  0  0.115852  0  0.96762  0  0.056073  0  0.104491  0.111071  0  0.973807  0
H  H24  1  0.42436054  0.39505033  0.69998683  1  0  0.100162  0  0.932808  0  0  0.117931  0  0.991623  0  0  0.119238  0  0.990842  0  0.059607  0  0.104262  0.116992  0  0.992172  0
H  H25  1  0.57563447  0.60494947  0.30001294  1  0  0.100201  0  0.932767  0  0  0.117965  0  0.99158  0  0  0.119271  0  0.990802  0  0.05954  0  0.104272  0.117028  0  0.992127  0
H  H26  1  0.13038584  0.66043500  0.71017281  1  0  0.108823  0  0.971835  0  0  0.111555  0  1.046791  0  0  0.116199  0  1.044014  0  0.111869  0  0.101176  0.108438  0  1.048527  0
H  H27  1  0.86960764  0.33957051  0.28983212  1  0  0.108731  0  0.971812  0  0  0.111481  0  1.046749  0  0  0.11612  0  1.043979  0  0.111921  0  0.10118  0.108366  0  1.048483  0
H  H28  1  0.96920986  0.64377117  0.62698187  1  0  0.082337  0  0.986813  0  0  0.08987  0  1.053689  0  0  0.092132  0  1.052467  0  0.082332  0  0.100105  0.088222  0  1.05455  0
H  H29  1  0.03079168  0.35623148  0.37301704  1  0  0.082309  0  0.986725  0  0  0.089858  0  1.053597  0  0  0.09212  0  1.052377  0  0.082372  0  0.100108  0.088213  0  1.054451  0
H  H30  1  0.96994143  0.42953843  0.58805716  1  0  0.101352  0  0.970788  0  0  0.112254  0  1.032066  0  0  0.114806  0  1.032592  0  0.06227  0  0.101028  0.110583  0  1.031516  0
H  H31  1  0.03006497  0.57046423  0.41193446  1  0  0.101312  0  0.97089  0  0  0.112235  0  1.032143  0  0  0.114765  0  1.032696  0  0.062161  0  0.100983  0.110562  0  1.031597  0
H  H32  1  0.24627074  0.13343521  0.60570491  1  0  0.091421  0  0.954229  0  0  0.103635  0  1.029027  0  0  0.107454  0  1.023386  0  0.058223  0  0.095607  0.100865  0  1.032682  0
H  H33  1  0.75373191  0.86656934  0.39429119  1  0  0.091464  0  0.954377  0  0  0.103675  0  1.029133  0  0  0.107493  0  1.023495  0  0.058182  0  0.095641  0.100904  0  1.032789  0
H  H34  1  0.07311195  0.17856993  0.71250770  1  0  0.11174  0  0.918447  0  0  0.134144  0  0.970531  0  0  0.133834  0  0.972272  0  0.09371  0  0.10987  0.134289  0  0.969223  0
H  H35  1  0.92689069  0.82143462  0.28748997  1  0  0.111829  0  0.918389  0  0  0.13417  0  0.970509  0  0  0.133851  0  0.972253  0  0.093612  0  0.109879  0.134315  0  0.969203  0
H  H36  1  0.39016308  0.03905379  0.28423148  1  0  0.126006  0  0.948189  0  0  0.143205  0  1.011525  0  0  0.145691  0  1.009992  0  0.087621  0  0.096418  0.141339  0  1.012737  0
H  H37  1  0.60984193  0.96094315  0.71576708  1  0  0.125972  0  0.948271  0  0  0.143187  0  1.011584  0  0  0.145674  0  1.010051  0  0.087666  0  0.096418  0.14132  0  1.012796  0
H  H38  1  0.37864265  0.12425341  0.40434444  1  0  0.132484  0  0.931857  0  0  0.155574  0  0.985695  0  0  0.156783  0  0.986426  0  0.08385  0  0.102044  0.154503  0  0.985511  0
H  H39  1  0.62135958  0.87574543  0.59565430  1  0  0.132491  0  0.931852  0  0  0.155557  0  0.985723  0  0  0.156766  0  0.986455  0  0.084001  0  0.102027  0.154486  0  0.985537  0
H  H40  1  0.33034831  0.20777514  0.29820714  1  0  0.112017  0  0.932153  0  0  0.133159  0  0.989506  0  0  0.135119  0  0.988949  0  0.046483  0  0.093927  0.131833  0  0.989818  0
H  H41  1  0.66965920  0.79222275  0.70179049  1  0  0.111986  0  0.93215  0  0  0.133134  0  0.9895  0  0  0.135096  0  0.988941  0  0.046501  0  0.093908  0.131809  0  0.989812  0
H  H42  1  0.78409806  0.31469034  0.70175939  1  0  0.11203  0  0.929538  0  0  0.135265  0  0.98364  0  0  0.136581  0  0.983561  0  0.048263  0  0.093545  0.134315  0  0.983658  0
H  H43  1  0.21590196  0.68530470  0.29824104  1  0  0.112036  0  0.929581  0  0  0.135274  0  0.983689  0  0  0.136592  0  0.983609  0  0.048198  0  0.093581  0.134324  0  0.983708  0
H  H44  1  0.85188096  0.15891938  0.73364221  1  0  0.120746  0  0.952932  0  0  0.139465  0  1.017279  0  0  0.140821  0  1.016692  0  0.047845  0  0.093453  0.138457  0  1.017809  0
H  H45  1  0.14812488  0.84107566  0.26635294  1  0  0.120653  0  0.952907  0  0  0.139388  0  1.017255  0  0  0.140743  0  1.016671  0  0.047884  0  0.093421  0.138381  0  1.017784  0
H  H46  1  0.74855269  0.19261990  0.65242399  1  0  0.122056  0  0.957957  0  0  0.140688  0  1.020789  0  0  0.142545  0  1.019816  0  0.081509  0  0.093842  0.139421  0  1.021332  0
H  H47  1  0.25145426  0.80737705  0.34757464  1  0  0.122025  0  0.957937  0  0  0.140648  0  1.020794  0  0  0.142506  0  1.019825  0  0.081482  0  0.093839  0.139382  0  1.02134  0
C  C48  1  0.53372513  0.59408693  0.62143068  1  0  -0.356018  0  3.737059  0  0  -0.428891  0  3.970479  0  0  -0.432189  0  3.978881  0  -0.028194  0  -0.233832  -0.426437  0  3.964503  0
C  C49  1  0.46627335  0.40591382  0.37857096  1  0  -0.355975  0  3.73703  0  0  -0.428898  0  3.970426  0  0  -0.432206  0  3.978826  0  -0.028122  0  -0.233834  -0.426437  0  3.964457  0
C  C50  1  0.40432136  0.63984087  0.73452305  1  0  0.215273  0  3.744765  0  0  0.200361  0  4.018236  0  0  0.209872  0  4.037645  0  0.361381  0  0.098478  0.194243  0  4.004882  0
C  C51  1  0.59567573  0.36016083  0.26548144  1  0  0.215202  0  3.744667  0  0  0.200349  0  4.018072  0  0  0.209861  0  4.037478  0  0.36128  0  0.098456  0.194222  0  4.004711  0
C  C52  1  0.31183188  0.58265272  0.79802995  1  0  -0.14198  0  3.778508  0  0  -0.127994  0  4.028389  0  0  -0.138704  0  4.056453  0  0.032621  0  -0.040424  -0.121076  0  4.009396  0
C  C53  1  0.68816911  0.41734232  0.20197249  1  0  -0.141791  0  3.778427  0  0  -0.127899  0  4.028368  0  0  -0.138607  0  4.056429  0  0.03264  0  -0.040381  -0.120983  0  4.009378  0
C  C54  1  0.20884221  0.67123286  0.89975678  1  0  0.207791  0  3.744176  0  0  0.207088  0  4.003887  0  0  0.214093  0  4.025918  0  0.472341  0  0.097318  0.202669  0  3.988641  0
C  C55  1  0.79115378  0.32876694  0.10024500  1  0  0.207771  0  3.744178  0  0  0.207095  0  4.003904  0  0  0.214099  0  4.025936  0  0.472503  0  0.097314  0.202675  0  3.988659  0
C  C56  1  0.08347047  0.66093912  0.99681607  1  0  -0.338388  0  3.729558  0  0  -0.414799  0  3.96474  0  0  -0.417972  0  3.973209  0  -0.047702  0  -0.23285  -0.412317  0  3.958736  0
C  C57  1  0.91652315  0.33906162  0.00318498  1  0  -0.338551  0  3.729526  0  0  -0.414982  0  3.964693  0  0  -0.41815  0  3.973169  0  -0.048187  0  -0.232948  -0.4125  0  3.95869  0
C  C58  1  0.31720784  0.45628007  0.76483389  1  0  -0.191075  0  3.769744  0  0  -0.241052  0  4.016564  0  0  -0.240523  0  4.026841  0  -0.005918  0  -0.150694  -0.241263  0  4.009856  0
C  C59  1  0.68278953  0.54371878  0.23516741  1  0  -0.191279  0  3.769768  0  0  -0.24125  0  4.016572  0  0  -0.24072  0  4.026843  0  -0.005638  0  -0.15076  -0.241463  0  4.009862  0
C  C60  1  0.21518063  0.45876266  0.71533490  1  0  0.27099  0  3.685547  0  0  0.275675  0  3.925132  0  0  0.283572  0  3.945719  0  0.474129  0  0.120041  0.270341  0  3.911432  0
C  C61  1  0.78481660  0.54124094  0.28467106  1  0  0.270808  0  3.685603  0  0  0.275596  0  3.925051  0  0  0.283491  0  3.945643  0  0.474122  0  0.120017  0.270265  0  3.911348  0
C  C62  1  0.12741525  0.56903459  0.69258955  1  0  -0.178582  0  3.719332  0  0  -0.195258  0  3.965451  0  0  -0.204529  0  3.986437  0  -0.039444  0  -0.093144  -0.189513  0  3.951333  0
C  C63  1  0.87258768  0.43096711  0.30741202  1  0  -0.178372  0  3.719174  0  0  -0.195121  0  3.965331  0  0  -0.204391  0  3.986315  0  -0.039253  0  -0.093123  -0.18938  0  3.951218  0
C  C64  1  0.03809121  0.55925450  0.64628466  1  0  -0.003574  0  3.770637  0  0  -0.021214  0  4.021973  0  0  -0.014895  0  4.039142  0  -0.031264  0  -0.079479  -0.02503  0  4.0102  0
C  C65  1  0.96191088  0.44074910  0.35371087  1  0  -0.003613  0  3.770611  0  0  -0.021252  0  4.021977  0  0  -0.01493  0  4.039139  0  -0.031658  0  -0.07954  -0.025065  0  4.010205  0
C  C66  1  0.03822364  0.44054270  0.62432446  1  0  -0.192232  0  3.745647  0  0  -0.20992  0  3.988642  0  0  -0.219295  0  4.011208  0  -0.029191  0  -0.099177  -0.20401  0  3.973473  0
C  C67  1  0.96178234  0.55946091  0.37566807  1  0  -0.192124  0  3.745767  0  0  -0.209843  0  3.988738  0  0  -0.219198  0  4.011317  0  -0.026969  0  -0.099095  -0.20393  0  3.97357  0
C  C68  1  0.12918135  0.33356187  0.64805314  1  0  0.276683  0  3.69816  0  0  0.280975  0  3.938619  0  0  0.289055  0  3.95881  0  0.451216  0  0.119796  0.275525  0  3.92513  0
C  C69  1  0.87081935  0.66644269  0.35194208  1  0  0.276576  0  3.698261  0  0  0.280876  0  3.938667  0  0  0.288956  0  3.958852  0  0.449273  0  0.119793  0.275424  0  3.925179  0
C  C70  1  0.13684328  0.20102743  0.62833810  1  0  -0.196753  0  3.758709  0  0  -0.244619  0  3.996121  0  0  -0.244826  0  4.00709  0  -0.011132  0  -0.152185  -0.243999  0  3.987909  0
C  C71  1  0.86315701  0.79897807  0.37165883  1  0  -0.196912  0  3.759042  0  0  -0.24472  0  3.996307  0  0  -0.244921  0  4.007272  0  -0.011126  0  -0.152227  -0.2441  0  3.988101  0
C  C72  1  0.32686521  0.12716690  0.34710023  1  0  -0.353938  0  3.733454  0  0  -0.428217  0  3.965828  0  0  -0.432325  0  3.974988  0  -0.070652  0  -0.23252  -0.425193  0  3.959769  0
C  C73  1  0.67314244  0.87283290  0.65289651  1  0  -0.353919  0  3.733433  0  0  -0.428174  0  3.965801  0  0  -0.432288  0  3.974957  0  -0.070816  0  -0.232493  -0.425148  0  3.959743  0
C  C74  1  0.17855427  0.14105421  0.41785735  1  0  0.221566  0  3.732743  0  0  0.209424  0  4.002695  0  0  0.218515  0  4.023024  0  0.378306  0  0.102686  0.203286  0  3.988853  0
C  C75  1  0.82145352  0.85894083  0.58214024  1  0  0.221717  0  3.732498  0  0  0.209502  0  4.002478  0  0  0.218613  0  4.022785  0  0.377893  0  0.102771  0.20336  0  3.988647  0
C  C76  1  0.09293104  0.17670180  0.53797645  1  0  -0.141817  0  3.774122  0  0  -0.130619  0  4.033916  0  0  -0.139756  0  4.057939  0  -0.002985  0  -0.037463  -0.124826  0  4.017291  0
C  C77  1  0.90707606  0.82329704  0.46201973  1  0  -0.141893  0  3.774254  0  0  -0.13058  0  4.033856  0  0  -0.139719  0  4.057866  0  -0.002361  0  -0.037472  -0.124799  0  4.017233  0
C  C78  1  0.95934281  0.17994249  0.55550786  1  0  0.20817  0  3.75201  0  0  0.20413  0  4.024483  0  0  0.212747  0  4.04227  0  0.467214  0  0.096502  0.198652  0  4.012192  0
C  C79  1  0.04066581  0.82005730  0.44448853  1  0  0.208223  0  3.752241  0  0  0.204158  0  4.024697  0  0  0.212781  0  4.042484  0  0.467157  0  0.096523  0.198708  0  4.012372  0
C  C80  1  0.82876224  0.21315410  0.66676127  1  0  -0.34788  0  3.727409  0  0  -0.423551  0  3.958124  0  0  -0.426116  0  3.965647  0  -0.06015  0  -0.237416  -0.421607  0  3.952712  0
C  C81  1  0.17124319  0.78684189  0.33323873  1  0  -0.347768  0  3.727395  0  0  -0.423461  0  3.958181  0  0  -0.42603  0  3.965709  0  -0.060116  0  -0.237429  -0.421528  0  3.952762  0
C  C82  1  0.01169326  0.01394534  0.14505870  1  0  -0.117037  0  3.594584  0  0  -0.120313  0  3.984539  0  0  -0.099573  0  3.966962  0  0.702252  0  -0.069977  -0.136043  0  3.997403  0
C  C83  1  0.98830855  0.98605446  0.85494726  1  0  -0.116879  0  3.594501  0  0  -0.120133  0  3.984432  0  0  -0.099411  0  3.966893  0  0.702224  0  -0.069956  -0.135879  0  3.997334  0
C  C84  1  0.30622878  0.08654079  0.82336278  1  0  -0.144326  0  3.564976  0  0  -0.147071  0  3.937653  0  0  -0.131547  0  3.93187  0  0.69359  0  -0.072522  -0.158743  0  3.941273  0
C  C85  1  0.69376123  0.91346376  0.17664186  1  0  -0.144343  0  3.564879  0  0  -0.147088  0  3.937547  0  0  -0.131569  0  3.931782  0  0.693264  0  -0.072561  -0.15876  0  3.941176  0
C  C86  1  0.64398035  0.14806445  0.50756208  1  0  -0.129184  0  3.588712  0  0  -0.128447  0  3.970496  0  0  -0.111226  0  3.960361  0  0.692165  0  -0.07083  -0.140681  0  3.977401  0
C  C87  1  0.35601730  0.85193154  0.49244549  1  0  -0.129281  0  3.588731  0  0  -0.128534  0  3.97051  0  0  -0.11133  0  3.960417  0  0.692331  0  -0.070854  -0.140773  0  3.977409  0
N  N88  1  0.23701336  0.77565024  0.89838495  1  0  -0.225389  0  3.25117  0  0  -0.188034  0  3.564469  0  0  -0.195842  0  3.572602  0  -0.724524  0  -0.284254  -0.183161  0  3.558976  0
N  N89  1  0.76298263  0.22434956  0.10161762  1  0  -0.225315  0  3.251046  0  0  -0.188008  0  3.564354  0  0  -0.195832  0  3.572515  0  -0.724295  0  -0.284182  -0.18315  0  3.558868  0
N  N90  1  0.35540278  0.75441787  0.79863923  1  0  -0.208805  0  3.47198  0  0  -0.160766  0  3.712361  0  0  -0.173005  0  3.729536  0  -0.825202  0  -0.289378  -0.152759  0  3.701066  0
N  N91  1  0.64459042  0.24557717  0.20136683  1  0  -0.208796  0  3.471761  0  0  -0.160705  0  3.712077  0  0  -0.17294  0  3.729253  0  -0.825269  0  -0.289472  -0.152669  0  3.700762  0
N  N92  1  0.21576859  0.34368058  0.69243011  1  0  -0.372191  0  3.284103  0  0  -0.309566  0  3.557046  0  0  -0.322462  0  3.566264  0  -1.225695  0  -0.35595  -0.301503  0  3.550573  0
N  N93  1  0.78422906  0.65632207  0.30757021  1  0  -0.372057  0  3.284148  0  0  -0.30948  0  3.55708  0  0  -0.322375  0  3.566292  0  -1.225892  0  -0.355938  -0.301418  0  3.550603  0
N  N94  1  0.09651338  0.12379875  0.37111407  1  0  -0.21154  0  3.466523  0  0  -0.157945  0  3.703374  0  0  -0.171156  0  3.721551  0  -0.825394  0  -0.288523  -0.149242  0  3.691348  0
N  N95  1  0.90349177  0.87620010  0.62888439  1  0  -0.21155  0  3.466449  0  0  -0.15796  0  3.703339  0  0  -0.171181  0  3.721515  0  -0.82529  0  -0.28856  -0.149254  0  3.691319  0
N  N96  1  0.96330524  0.14677464  0.45275445  1  0  -0.247449  0  3.23309  0  0  -0.2141  0  3.559001  0  0  -0.22111  0  3.565537  0  -0.727169  0  -0.286606  -0.209951  0  3.554606  0
N  N97  1  0.03669977  0.85322230  0.54724333  1  0  -0.247479  0  3.233183  0  0  -0.214134  0  3.559096  0  0  -0.221153  0  3.565668  0  -0.727262  0  -0.286648  -0.209997  0  3.554694  0
N  N98  1  0.94248496  0.05782544  0.24477862  1  0  -0.398557  0  3.339189  0  0  -0.340523  0  3.680988  0  0  -0.354266  0  3.681725  0  -1.43199  0  -0.456187  -0.331857  0  3.680635  0
N  N99  1  0.05751033  0.94217150  0.75522270  1  0  -0.398723  0  3.33906  0  0  -0.340702  0  3.680861  0  0  -0.354456  0  3.681635  0  -1.431994  0  -0.456225  -0.332035  0  3.68051  0
N  N100  1  0.26095394  0.02413063  0.89116740  1  0  -0.391808  0  3.318079  0  0  -0.328273  0  3.631651  0  0  -0.34385  0  3.637145  0  -1.40312  0  -0.44216  -0.31793  0  3.627549  0
N  N101  1  0.73903844  0.97586631  0.10883261  1  0  -0.391773  0  3.318042  0  0  -0.328224  0  3.631578  0  0  -0.343806  0  3.637081  0  -1.402977  0  -0.442115  -0.317886  0  3.627504  0
N  N102  1  0.53110237  0.16141720  0.57988209  1  0  -0.40901  0  3.381302  0  0  -0.348908  0  3.716212  0  0  -0.362175  0  3.71738  0  -1.416925  0  -0.455813  -0.340781  0  3.715056  0
N  N103  1  0.46889264  0.83858260  0.42012320  1  0  -0.408991  0  3.381133  0  0  -0.348888  0  3.716029  0  0  -0.362149  0  3.717182  0  -1.417052  0  -0.455824  -0.340769  0  3.714891  0
