# generated using pymatgen
data_FeH8(C3N)4
_symmetry_space_group_name_H-M   'P 1'
_cell_length_a   6.89464179
_cell_length_b   6.55238486
_cell_length_c   13.02740145
_cell_angle_alpha   91.77684340
_cell_angle_beta   105.34843076
_cell_angle_gamma   89.97891889
_symmetry_Int_Tables_number   1
_chemical_formula_structural   FeH8(C3N)4
_chemical_formula_sum   'Fe2 H16 C24 N8'
_cell_volume   567.24824370
_cell_formula_units_Z   2
loop_
 _symmetry_equiv_pos_site_id
 _symmetry_equiv_pos_as_xyz
  1  'x, y, z'
loop_
 _atom_site_type_symbol
 _atom_site_label
 _atom_site_symmetry_multiplicity
 _atom_site_fract_x
 _atom_site_fract_y
 _atom_site_fract_z
 _atom_site_occupancy
 _atom_site_hle17_ddec_charge
 _atom_site_hle17_ddec_spin_density
 _atom_site_hle17_ddec_sum_bond_order
 _atom_site_hle17_magmom
 _atom_site_hse06_10hf_bader_charge
 _atom_site_hse06_10hf_bader_spin_density
 _atom_site_hse06_10hf_ddec_charge
 _atom_site_hse06_10hf_ddec_spin_density
 _atom_site_hse06_10hf_ddec_sum_bond_order
 _atom_site_hse06_10hf_magmom
 _atom_site_hse06_ddec_charge
 _atom_site_hse06_ddec_spin_density
 _atom_site_hse06_ddec_sum_bond_order
 _atom_site_hse06_magmom
 _atom_site_pbe_cm5_charge
 _atom_site_pbe_ddec_charge
 _atom_site_pbe_ddec_spin_density
 _atom_site_pbe_ddec_sum_bond_order
 _atom_site_pbe_magmom
Fe  Fe0  1  0.54712183  0.74941740  0.00013146  1  0.781708  3.822265  2.239554  3.514  1.266958  3.573521  0.630929  3.813676  2.758267  3.491  0.709491  3.86038  2.686799  3.589  0.734671  0.565749  3.771214  2.819514  3.408
Fe  Fe1  1  0.45288410  0.25058300  0.99986928  1  0.781661  3.822266  2.239689  3.514  1.266819  3.57355  0.630928  3.813682  2.758291  3.491  0.709496  3.860389  2.686825  3.589  0.73462  0.565718  3.77076  2.819518  3.409
H  H2  1  0.29260182  0.66622690  0.75686043  1  0.096817  -0.000736  0.974953  0.0  0.089414  0.000846  0.109216  8.1e-05  1.034858  0.0  0.110586  -4.5e-05  1.034643  0.0  0.117631  0.107608  -8.9e-05  1.036506  0.0
H  H3  1  0.53505384  0.83345308  0.24306063  1  0.09699  -0.000814  0.974701  0.0  0.125862  0.000742  0.10911  6e-05  1.034955  0.0  0.11047  -6.7e-05  1.034772  0.0  0.117839  0.107581  -0.000118  1.036515  0.0
H  H4  1  0.70739662  0.33377809  0.24315162  1  0.096929  -0.000737  0.974856  0.0  0.089233  0.000846  0.109268  8.1e-05  1.034859  0.0  0.110631  -4.5e-05  1.034651  0.0  0.117657  0.107666  -8.7e-05  1.036509  0.0
H  H5  1  0.46494465  0.16655648  0.75693461  1  0.096992  -0.000812  0.974711  0.0  0.125939  0.000743  0.109132  6e-05  1.034936  0.0  0.110474  -6.7e-05  1.034775  0.0  0.117841  0.1076  -0.000119  1.036494  0.0
H  H6  1  0.05142372  0.26504017  0.79796623  1  0.101674  -0.00058  0.937345  0.0  0.109029  0.001189  0.114252  0.000352  0.996232  0.0  0.116109  0.000181  0.994869  0.0  0.120601  0.112894  0.000378  0.997887  0.0
H  H7  1  0.25264070  0.23475153  0.20186040  1  0.101916  -0.000621  0.937571  0.0  0.112425  0.001126  0.114506  0.000316  0.996468  0.0  0.11634  0.000154  0.995098  0.0  0.120589  0.113202  0.000321  0.998089  0.0
H  H8  1  0.94857311  0.73495106  0.20203234  1  0.101747  -0.000578  0.937171  0.0  0.109055  0.001188  0.114324  0.000351  0.996055  0.0  0.116188  0.000181  0.994692  0.0  0.120691  0.112967  0.000379  0.997713  0.0
H  H9  1  0.74736677  0.76525345  0.79814140  1  0.101902  -0.000619  0.937512  0.0  0.112376  0.001126  0.114507  0.000316  0.996402  0.0  0.116342  0.000154  0.995031  0.0  0.120563  0.113196  0.00032  0.998024  0.0
H  H10  1  0.16044064  0.78281911  0.38692120  1  0.086558  -4.9e-05  0.983709  0.0  0.060713  0.00011  0.096447  6e-06  1.047528  0.0  0.098372  0.0  1.048193  0.0  0.09492  0.09522  -3e-06  1.046934  0.0
H  H11  1  0.77256658  0.71821220  0.61293775  1  0.08554  -7.6e-05  0.984128  0.0  0.052906  6e-05  0.095697  -2.7e-05  1.047803  0.0  0.097556  -2.4e-05  1.048527  0.0  0.094771  0.094542  -5.7e-05  1.047147  0.0
H  H12  1  0.83954866  0.21717061  0.61308243  1  0.086545  -5.1e-05  0.983664  0.0  0.060713  0.00011  0.096454  6e-06  1.047473  0.0  0.098381  0.0  1.048137  0.0  0.094909  0.095226  -3e-06  1.046876  0.0
H  H13  1  0.22742422  0.28177750  0.38705688  1  0.08549  -7.9e-05  0.984064  0.0  0.052783  6e-05  0.095645  -2.7e-05  1.047752  0.0  0.097515  -2.4e-05  1.048466  0.0  0.094731  0.094493  -5.7e-05  1.047098  0.0
H  H14  1  0.25707649  0.74481359  0.57925963  1  0.08653  -3e-05  0.988578  0.0  0.087836  0.000115  0.097041  2.6e-05  1.05193  0.0  0.098791  2.2e-05  1.053024  0.0  0.095059  0.095847  -9e-06  1.051222  0.0
H  H15  1  0.67698100  0.75570916  0.42068500  1  0.087561  -8e-05  0.988508  0.0  0.091859  6.1e-05  0.097647  -1.5e-05  1.052023  0.0  0.099392  -6e-06  1.053139  0.0  0.095648  0.096546  -7.6e-05  1.051183  0.0
H  H16  1  0.74291575  0.25516697  0.42074811  1  0.086545  -2.7e-05  0.988621  0.0  0.088057  0.000115  0.097109  2.6e-05  1.051915  0.0  0.098864  2.2e-05  1.053004  0.0  0.095113  0.095917  -9e-06  1.051201  0.0
H  H17  1  0.32300834  0.24428513  0.57930950  1  0.087544  -7.7e-05  0.988533  0.0  0.091282  6.1e-05  0.097639  -1.5e-05  1.05205  0.0  0.099381  -6e-06  1.05317  0.0  0.09564  0.096536  -7.7e-05  1.051208  0.0
C  C18  1  0.25097947  0.81296161  0.78522032  1  0.001771  0.013012  3.707288  0.019  0.457703  0.026904  -0.039833  0.013107  3.965844  0.019  -0.031832  0.011665  3.984688  0.017  0.009996  -0.047314  0.012077  3.954686  0.017
C  C19  1  0.46496934  0.68680192  0.21469400  1  0.002932  0.013721  3.705775  0.02  0.375114  0.028305  -0.038757  0.013669  3.964814  0.019  -0.030885  0.012053  3.983871  0.018  0.010741  -0.045901  0.012938  3.953165  0.018
C  C20  1  0.74903409  0.18705254  0.21478478  1  0.001646  0.013023  3.707381  0.019  0.457755  0.026906  -0.039962  0.013108  3.965974  0.019  -0.031957  0.011666  3.984825  0.017  0.009903  -0.047448  0.012078  3.954823  0.017
C  C21  1  0.53502762  0.31320611  0.78530331  1  0.003164  0.013712  3.705697  0.02  0.375411  0.0283  -0.038552  0.013668  3.964735  0.019  -0.030662  0.01205  3.983799  0.018  0.01085  -0.045701  0.012939  3.953082  0.018
C  C22  1  0.12521919  0.11755598  0.80630819  1  0.006621  0.014563  3.69649  0.021  0.380203  0.030448  -0.035648  0.014953  3.961018  0.02  -0.027486  0.013202  3.978794  0.019  0.013351  -0.043102  0.014287  3.949275  0.019
C  C23  1  0.31829181  0.38212264  0.19361338  1  0.007042  0.01456  3.695992  0.021  0.364107  0.030128  -0.035722  0.014738  3.961183  0.02  -0.027409  0.013085  3.978801  0.018  0.013828  -0.04301  0.014311  3.949054  0.02
C  C24  1  0.87477772  0.88244595  0.19369285  1  0.006523  0.014558  3.696227  0.021  0.38032  0.030452  -0.035738  0.014955  3.960721  0.02  -0.027588  0.013202  3.978511  0.019  0.013261  -0.043188  0.014292  3.948981  0.019
C  C25  1  0.68169311  0.61788386  0.80638298  1  0.007227  0.014543  3.695749  0.021  0.364156  0.030127  -0.035549  0.014737  3.960955  0.02  -0.027238  0.013081  3.978579  0.018  0.013891  -0.042827  0.014309  3.948816  0.02
C  C26  1  0.12733556  0.96487750  0.72802085  1  -0.078675  0.005214  3.862722  0.007  -0.055538  0.01414  -0.062175  0.006169  4.109579  0.008  -0.070883  0.003407  4.135644  0.004  -0.036269  -0.054876  0.010166  4.091533  0.013
C  C27  1  0.39908194  0.53463919  0.27196801  1  -0.079359  0.005434  3.861399  0.007  -0.010415  0.014399  -0.062629  0.006334  4.108694  0.008  -0.071458  0.003414  4.134882  0.004  -0.035905  -0.05509  0.010589  4.090095  0.014
C  C28  1  0.87267643  0.03512901  0.27198084  1  -0.078609  0.005212  3.862356  0.007  -0.05548  0.01414  -0.062035  0.006168  4.109137  0.008  -0.070742  0.003407  4.135204  0.004  -0.036172  -0.054733  0.010162  4.091099  0.013
C  C29  1  0.60092254  0.46536731  0.72803109  1  -0.079412  0.005441  3.86136  0.007  -0.010754  0.014394  -0.062735  0.006332  4.108689  0.008  -0.071566  0.003414  4.134875  0.004  -0.035895  -0.055198  0.010587  4.09008  0.014
C  C30  1  0.05569491  0.97757538  0.61229198  1  0.050602  0.00079  3.847079  0.001  -0.020847  0.00206  0.064386  0.000914  4.079282  0.001  0.06579  0.000501  4.102516  0.0  -0.015819  0.063881  0.001854  4.062653  0.002
C  C31  1  0.44346205  0.52208227  0.38765682  1  0.053533  0.001018  3.845237  0.001  -0.005663  0.002537  0.066547  0.001133  4.078314  0.001  0.068001  0.000567  4.101494  0.001  -0.015548  0.06621  0.002414  4.06137  0.003
C  C32  1  0.94431397  0.02241738  0.38771367  1  0.050641  0.000811  3.846977  0.001  -0.020876  0.002065  0.064362  0.000916  4.079217  0.001  0.065764  0.000502  4.102452  0.0  -0.015842  0.06385  0.001857  4.062599  0.002
C  C33  1  0.55653333  0.47791507  0.61233779  1  0.053334  0.001038  3.845435  0.001  -0.005539  0.002537  0.066452  0.001133  4.078388  0.001  0.067907  0.000567  4.101563  0.001  -0.015591  0.066121  0.002415  4.061435  0.003
C  C34  1  0.08789591  0.87793174  0.43568598  1  -0.112396  0.00066  3.746203  0.001  -0.028675  0.002005  -0.129315  0.00089  3.989908  0.001  -0.132031  0.000489  4.010902  0.001  -0.094174  -0.127233  0.001555  3.975124  0.002
C  C35  1  0.65147463  0.62276648  0.56425731  1  -0.11094  0.000536  3.747016  0.001  0.042331  0.001748  -0.128167  0.000763  3.991066  0.001  -0.130846  0.000383  4.012136  0.001  -0.093676  -0.125946  0.001472  3.975841  0.002
C  C36  1  0.91209786  0.12205340  0.56431667  1  -0.112345  0.000684  3.745919  0.001  -0.028711  0.002008  -0.129296  0.000892  3.989625  0.001  -0.132016  0.000489  4.010621  0.001  -0.094136  -0.127209  0.001556  3.97483  0.002
C  C37  1  0.34851927  0.37723391  0.43573868  1  -0.110892  0.000561  3.746904  0.001  0.042179  0.001748  -0.128091  0.000763  3.991  0.001  -0.130778  0.000382  4.012066  0.001  -0.093621  -0.125869  0.001472  3.97578  0.002
C  C38  1  0.14221013  0.85578573  0.54532346  1  -0.107025  0.00073  3.73365  0.001  -0.044808  0.002006  -0.123426  0.000908  3.975639  0.001  -0.125987  0.000474  3.996701  0.001  -0.091694  -0.121472  0.00157  3.960783  0.002
C  C39  1  0.59628394  0.64459049  0.45463024  1  -0.109479  0.000944  3.734732  0.001  -0.122313  0.002512  -0.12554  0.001122  3.977515  0.001  -0.128183  0.000586  3.998584  0.001  -0.091679  -0.123367  0.00194  3.962242  0.002
C  C40  1  0.85779110  0.14419177  0.45468165  1  -0.107108  0.000702  3.733687  0.001  -0.044977  0.002001  -0.123544  0.000906  3.975705  0.001  -0.126108  0.000473  3.996776  0.001  -0.091812  -0.121578  0.001568  3.960846  0.002
C  C41  1  0.40370995  0.35540838  0.54536112  1  -0.109344  0.000917  3.73488  0.001  -0.121853  0.002511  -0.12544  0.001121  3.977615  0.001  -0.128082  0.000587  3.998685  0.001  -0.091607  -0.123264  0.001938  3.962334  0.002
N  N42  1  0.32358389  0.87455994  0.88801625  1  -0.262522  0.029181  3.31033  0.043  -0.850179  0.067793  -0.201562  0.028995  3.620326  0.035  -0.226614  0.02195  3.64024  0.024  -0.289343  -0.181688  0.036535  3.607336  0.047
N  N43  1  0.43411649  0.62550565  0.11183485  1  -0.262358  0.029194  3.309234  0.042  -0.832193  0.068253  -0.201605  0.029109  3.619589  0.034  -0.226778  0.021971  3.639449  0.023  -0.289792  -0.18163  0.036674  3.606435  0.047
N  N44  1  0.67643577  0.12546489  0.11198526  1  -0.262647  0.029173  3.310751  0.043  -0.850391  0.067794  -0.201647  0.028997  3.620703  0.035  -0.2267  0.021951  3.640619  0.024  -0.289353  -0.181763  0.036541  3.607697  0.047
N  N45  1  0.56589842  0.37448864  0.88816246  1  -0.262501  0.029202  3.309246  0.042  -0.831954  0.06824  -0.201703  0.029111  3.619582  0.034  -0.226881  0.021971  3.639451  0.023  -0.289851  -0.181723  0.036683  3.606411  0.047
N  N46  1  0.24708257  0.06488086  0.90125852  1  -0.262441  0.025478  3.256518  0.034  -0.819004  0.064284  -0.205533  0.026328  3.563714  0.028  -0.230081  0.017884  3.583171  0.017  -0.292989  -0.184284  0.035005  3.547817  0.041
N  N47  1  0.34462872  0.43503863  0.09860233  1  -0.262563  0.025668  3.255648  0.035  -0.826567  0.064705  -0.205882  0.026394  3.563407  0.029  -0.230438  0.017775  3.582561  0.017  -0.292768  -0.18438  0.035286  3.547167  0.042
N  N48  1  0.75292050  0.93513786  0.09874057  1  -0.262358  0.025484  3.256707  0.034  -0.818814  0.064279  -0.20547  0.026323  3.563893  0.028  -0.230016  0.017882  3.583356  0.017  -0.292976  -0.184225  0.03499  3.548006  0.041
N  N49  1  0.65537570  0.56496024  0.90139741  1  -0.262711  0.025674  3.255403  0.035  -0.826987  0.064702  -0.20604  0.02639  3.563174  0.029  -0.230596  0.017774  3.582329  0.017  -0.292806  -0.184552  0.035274  3.546958  0.042
