# generated using pymatgen
data_CuH14C20N4O5
_symmetry_space_group_name_H-M   'P 1'
_cell_length_a   9.90386276
_cell_length_b   9.74111782
_cell_length_c   11.93839926
_cell_angle_alpha   65.44837443
_cell_angle_beta   81.95030081
_cell_angle_gamma   60.95039706
_symmetry_Int_Tables_number   1
_chemical_formula_structural   CuH14C20N4O5
_chemical_formula_sum   'Cu2 H28 C40 N8 O10'
_cell_volume   913.06558942
_cell_formula_units_Z   2
loop_
 _symmetry_equiv_pos_site_id
 _symmetry_equiv_pos_as_xyz
  1  'x, y, z'
loop_
 _atom_site_type_symbol
 _atom_site_label
 _atom_site_symmetry_multiplicity
 _atom_site_fract_x
 _atom_site_fract_y
 _atom_site_fract_z
 _atom_site_occupancy
 _atom_site_pbe_cm5_charge
 _atom_site_pbe_ddec_charge
 _atom_site_pbe_ddec_spin_density
 _atom_site_pbe_ddec_sum_bond_order
 _atom_site_pbe_magmom
Cu  Cu0  1  0.66088686  0.97852278  0.39741816  1  0.749785  0.809314  0.740516  2.261751  0.587
Cu  Cu1  1  0.33911103  0.02147992  0.60258184  1  0.74979  0.809295  0.740523  2.261821  0.587
H  H2  1  0.27307605  0.96624536  0.91863799  1  0.297962  0.361378  9.1e-05  0.984419  0.0
H  H3  1  0.72692285  0.03375734  0.08136189  1  0.297942  0.361323  9.1e-05  0.984456  0.0
H  H4  1  0.40295334  0.11967891  0.18859408  1  0.133752  0.095569  0.000114  1.06328  0.0
H  H5  1  0.59704140  0.88032632  0.81140624  1  0.133737  0.095537  0.000114  1.063354  0.0
H  H6  1  0.50634222  0.86555526  0.17271020  1  0.107831  0.129366  0.000249  1.026179  0.0
H  H7  1  0.49366059  0.13443847  0.82729227  1  0.107816  0.12936  0.000249  1.026212  0.0
H  H8  1  0.14393296  0.87728079  0.41969041  1  0.105077  0.11976  0.000122  1.015866  0.0
H  H9  1  0.85607141  0.12271166  0.58031315  1  0.105071  0.119768  0.000122  1.015874  0.0
H  H10  1  0.08470058  0.92276713  0.05305853  1  0.098967  0.108329  -5e-06  1.077438  0.0
H  H11  1  0.91529887  0.07723429  0.94694256  1  0.098972  0.10834  -5e-06  1.077404  0.0
H  H12  1  0.36959353  0.19458878  0.98736527  1  0.10942  0.11732  8e-06  1.045659  0.0
H  H13  1  0.63040592  0.80541264  0.01263582  1  0.109411  0.11729  8e-06  1.045676  0.0
H  H14  1  0.91252746  0.86415592  0.59459353  1  0.142769  0.1176  0.000185  1.008824  0.001
H  H15  1  0.08747089  0.13584806  0.40540514  1  0.142784  0.117626  0.000185  1.008826  0.001
H  H16  1  0.59578752  0.36784759  0.27641662  1  0.127141  0.135489  0.00037  0.978325  0.001
H  H17  1  0.40420933  0.63215509  0.72358600  1  0.127138  0.135487  0.00037  0.978344  0.001
H  H18  1  0.19276119  0.28888684  0.81233308  1  0.113804  0.136954  1.2e-05  1.01361  0.0
H  H19  1  0.80724132  0.71111462  0.18766599  1  0.113813  0.137009  1.2e-05  1.013566  0.0
H  H20  1  0.38714612  0.60276899  0.06901523  1  0.121111  0.125302  0.000469  1.037151  0.001
H  H21  1  0.61284917  0.39723497  0.93098546  1  0.121124  0.125309  0.000469  1.037159  0.001
H  H22  1  0.12514093  0.70142905  0.98642860  1  0.109335  0.120403  6e-06  0.997613  0.0
H  H23  1  0.87485289  0.29857360  0.01357185  1  0.109315  0.120346  6e-06  0.997696  0.0
H  H24  1  0.94864408  0.79600053  0.81201125  1  0.103763  0.10768  1.8e-05  1.053196  0.0
H  H25  1  0.05135392  0.20399960  0.18798876  1  0.103769  0.107688  1.8e-05  1.053246  0.0
H  H26  1  0.93806596  0.37258414  0.75181338  1  0.121252  0.126486  0.000456  1.050761  0.001
H  H27  1  0.06193819  0.62741605  0.24818091  1  0.121232  0.126435  0.000456  1.050791  0.001
H  H28  1  0.72428998  0.58491497  0.54520177  1  0.125501  0.130549  0.000344  0.983937  0.001
H  H29  1  0.27571359  0.41508650  0.45479383  1  0.12551  0.130597  0.000344  0.983927  0.001
C  C30  1  0.42762645  0.21729396  0.18616921  1  0.14605  0.117584  -0.002311  3.891519  -0.001
C  C31  1  0.57236885  0.78270999  0.81383148  1  0.146088  0.117668  -0.002311  3.891551  -0.001
C  C32  1  0.33679220  0.86371423  0.30659705  1  -0.023712  -0.01723  0.009315  3.997084  0.011
C  C33  1  0.66321221  0.13627824  0.69340316  1  -0.023727  -0.017242  0.009315  3.99713  0.011
C  C34  1  0.93088603  0.93951779  0.25436698  1  0.204296  0.570326  -0.000483  4.214939  -0.001
C  C35  1  0.06911410  0.06047978  0.74563365  1  0.204232  0.570225  -0.000484  4.215088  -0.001
C  C36  1  0.39300397  0.87231168  0.19087536  1  -0.102423  -0.226547  0.000958  3.926792  0.001
C  C37  1  0.60699941  0.12768077  0.80912664  1  -0.102407  -0.22658  0.000958  3.926822  0.001
C  C38  1  0.30193698  0.89610523  0.09793343  1  0.076895  0.322003  0.000601  4.098063  0.001
C  C39  1  0.69806471  0.10389106  0.90206830  1  0.07695  0.322125  0.000601  4.098012  0.001
C  C40  1  0.25852103  0.44135916  0.99809878  1  0.095162  0.158565  0.000485  4.012033  0.001
C  C41  1  0.74147592  0.55864095  0.00190386  1  0.095116  0.158533  0.000485  4.012126  0.001
C  C42  1  0.42755621  0.86212415  0.39933063  1  0.204223  0.566731  0.00198  4.219776  0.0
C  C43  1  0.57244707  0.13787088  0.60066968  1  0.204157  0.566628  0.00198  4.219693  0.0
C  C44  1  0.09721074  0.90322381  0.23800050  1  -0.023324  -0.011479  0.006037  4.00435  0.007
C  C45  1  0.90279253  0.09677122  0.76200148  1  -0.023261  -0.011287  0.006037  4.004159  0.007
C  C46  1  0.18858293  0.87921479  0.33068081  1  -0.096805  -0.156746  0.001448  3.973407  0.001
C  C47  1  0.81141988  0.12077894  0.66932166  1  -0.096825  -0.156808  0.001448  3.973409  0.001
C  C48  1  0.15565346  0.90683827  0.12367004  1  -0.106438  -0.247313  0.000792  3.966258  0.001
C  C49  1  0.84434768  0.09315931  0.87633132  1  -0.106474  -0.247428  0.000792  3.966204  0.001
C  C50  1  0.27604633  0.32563839  0.94960602  1  -0.087283  -0.149023  0.000162  3.964903  0.0
C  C51  1  0.72395210  0.67436303  0.05039518  1  -0.087253  -0.148933  0.000162  3.964937  0.0
C  C52  1  0.88748239  0.76180949  0.60909700  1  0.145665  0.106521  -0.002321  3.866821  -0.001
C  C53  1  0.11251809  0.23819194  0.39090230  1  0.145666  0.106514  -0.002322  3.866852  -0.001
C  C54  1  0.06072582  0.54890954  0.80075231  1  0.094808  0.159966  0.000784  4.010438  0.001
C  C55  1  0.93927318  0.45109059  0.19924843  1  0.094795  0.15996  0.000784  4.010444  0.001
C  C56  1  0.52410310  0.35233538  0.22689162  1  0.003641  -0.017151  0.001243  3.95957  0.002
C  C57  1  0.47589479  0.64766731  0.77310837  1  0.003635  -0.017148  0.001243  3.959586  0.002
C  C58  1  0.17790456  0.37896002  0.85063088  1  -0.083094  -0.140399  7.7e-05  3.942992  0.0
C  C59  1  0.82209592  0.62104142  0.14936926  1  -0.083101  -0.140484  7.7e-05  3.943034  0.0
C  C60  1  0.42033419  0.46938143  0.12567290  1  -0.00102  -0.109182  0.002454  3.92256  0.003
C  C61  1  0.57966167  0.53062125  0.87432648  1  -0.00101  -0.109146  0.002454  3.922537  0.003
C  C62  1  0.14187356  0.61155311  0.94742810  1  -0.084381  -0.140289  0.000265  3.963668  0.0
C  C63  1  0.85812238  0.38844699  0.05257465  1  -0.084336  -0.140174  0.000265  3.963792  0.0
C  C64  1  0.04240718  0.66479758  0.84914942  1  -0.085449  -0.141393  -0.000144  3.974389  0.0
C  C65  1  0.95759238  0.33520127  0.15085168  1  -0.085441  -0.141413  -0.000144  3.974518  0.0
C  C66  1  0.89956297  0.50494506  0.68829614  1  0.000973  -0.096866  0.002391  3.883679  0.003
C  C67  1  0.10044115  0.49505513  0.31169983  1  0.000982  -0.096749  0.002391  3.883645  0.003
C  C68  1  0.79559318  0.61031069  0.58647138  1  0.00515  -0.013594  0.000715  3.967978  0.001
C  C69  1  0.20441038  0.38969078  0.41352506  1  0.005112  -0.013715  0.000714  3.968038  0.001
N  N70  1  0.52687687  0.19608870  0.26334495  1  -0.374008  -0.281181  0.050954  3.645136  0.066
N  N71  1  0.47312056  0.80391270  0.73665553  1  -0.374042  -0.281206  0.050955  3.645244  0.066
N  N72  1  0.36016665  0.38172824  0.10016488  1  -0.227426  0.00094  0.001505  3.801064  0.002
N  N73  1  0.63982819  0.61827442  0.89983546  1  -0.227418  0.000854  0.001505  3.801002  0.002
N  N74  1  0.95632060  0.60284175  0.70230465  1  -0.223675  0.011659  0.001471  3.787786  0.002
N  N75  1  0.04368147  0.39715841  0.29769406  1  -0.223674  0.011646  0.001471  3.787743  0.002
N  N76  1  0.78923613  0.76938714  0.53856949  1  -0.375547  -0.283861  0.052907  3.659894  0.068
N  N77  1  0.21076482  0.23061559  0.46142849  1  -0.375532  -0.283872  0.052908  3.659929  0.068
O  O78  1  0.86609958  0.99220049  0.33894441  1  -0.316886  -0.532137  0.045846  2.297239  0.067
O  O79  1  0.13389833  0.00780221  0.66105390  1  -0.316853  -0.532117  0.045851  2.297284  0.067
O  O80  1  0.55524379  0.86477394  0.36362216  1  -0.327096  -0.561769  0.058027  2.380591  0.084
O  O81  1  0.44476053  0.13522110  0.63637636  1  -0.327047  -0.561705  0.058023  2.380672  0.084
O  O82  1  0.36863798  0.86599407  0.49925732  1  -0.318369  -0.56254  0.020509  2.336527  0.03
O  O83  1  0.63136603  0.13400869  0.50073948  1  -0.318346  -0.562502  0.020513  2.336398  0.03
O  O84  1  0.86826488  0.91691977  0.18204675  1  -0.330491  -0.594876  0.000781  2.261306  0.003
O  O85  1  0.13173627  0.08307781  0.81795293  1  -0.330475  -0.594855  0.00078  2.261369  0.003
O  O86  1  0.35873440  0.90897206  0.98573131  1  -0.356917  -0.472209  0.000592  2.343587  0.001
O  O87  1  0.64126551  0.09103065  0.01426930  1  -0.356928  -0.472212  0.000592  2.3436  0.001
