# generated using pymatgen
data_MnH14C5O8
_symmetry_space_group_name_H-M   'P 1'
_cell_length_a   6.91468863
_cell_length_b   7.43802423
_cell_length_c   21.06731083
_cell_angle_alpha   85.39485425
_cell_angle_beta   81.18243677
_cell_angle_gamma   62.30792900
_symmetry_Int_Tables_number   1
_chemical_formula_structural   MnH14C5O8
_chemical_formula_sum   'Mn4 H56 C20 O32'
_cell_volume   948.02700809
_cell_formula_units_Z   4
loop_
 _symmetry_equiv_pos_site_id
 _symmetry_equiv_pos_as_xyz
  1  'x, y, z'
loop_
 _atom_site_type_symbol
 _atom_site_label
 _atom_site_symmetry_multiplicity
 _atom_site_fract_x
 _atom_site_fract_y
 _atom_site_fract_z
 _atom_site_occupancy
 _atom_site_hle17_ddec_charge
 _atom_site_hle17_ddec_spin_density
 _atom_site_hle17_ddec_sum_bond_order
 _atom_site_hle17_magmom
 _atom_site_hse06_10hf_ddec_charge
 _atom_site_hse06_10hf_ddec_spin_density
 _atom_site_hse06_10hf_ddec_sum_bond_order
 _atom_site_hse06_10hf_magmom
 _atom_site_hse06_ddec_charge
 _atom_site_hse06_ddec_spin_density
 _atom_site_hse06_ddec_sum_bond_order
 _atom_site_hse06_magmom
 _atom_site_pbe_bader_charge
 _atom_site_pbe_bader_spin_density
 _atom_site_pbe_cm5_charge
 _atom_site_pbe_ddec_charge
 _atom_site_pbe_ddec_spin_density
 _atom_site_pbe_ddec_sum_bond_order
 _atom_site_pbe_magmom
Mn  Mn0  1  0.73301716  0.60880648  0.68339099  1  1.342765  4.814916  1.56857  4.714  1.188217  4.748988  2.055124  4.587  1.243294  4.780103  1.981918  4.634  1.545071  4.615785  0.592873  1.144374  4.719212  2.108738  4.544
Mn  Mn1  1  0.02470409  0.88891771  0.81632238  1  1.344014  4.814718  1.568743  4.715  1.189078  4.750061  2.055333  4.588  1.244209  4.781186  1.982036  4.635  1.54652  4.61492  0.59381  1.145159  4.720233  2.109063  4.544
Mn  Mn2  1  0.26698518  0.39119273  0.31660873  1  1.342754  4.814913  1.56859  4.714  1.188198  4.748988  2.055146  4.587  1.243277  4.780103  1.981938  4.634  1.545059  4.615787  0.592858  1.144354  4.719212  2.108761  4.544
Mn  Mn3  1  0.97529639  0.11108150  0.18367773  1  1.34401  4.814719  1.568755  4.715  1.189079  4.750062  2.055342  4.588  1.244199  4.781187  1.982043  4.635  1.546532  4.614923  0.593806  1.145158  4.720234  2.109075  4.544
H  H4  1  0.46566959  0.66569484  0.90704010  1  0.114455  -0.00045  0.949232  0.0  0.129548  -0.000322  1.011462  0.0  0.132257  -0.000409  1.009829  0.0  0.119331  0.000576  0.102794  0.127532  -0.000214  1.01277  0.0
H  H5  1  0.04098702  0.83306492  0.59088424  1  0.114477  -0.000443  0.948979  0.0  0.129677  -0.000315  1.011096  0.0  0.132415  -0.000403  1.009484  0.0  0.086284  0.000609  0.102439  0.127629  -0.000206  1.012424  0.0
H  H6  1  0.53432447  0.33430892  0.09295974  1  0.114439  -0.000454  0.949242  0.0  0.129561  -0.000322  1.011455  0.0  0.132271  -0.000409  1.009821  0.0  0.119385  0.000576  0.102799  0.127546  -0.000214  1.01276  0.0
H  H7  1  0.95901701  0.16693732  0.40911667  1  0.114473  -0.000445  0.948954  0.0  0.129675  -0.000315  1.011084  0.0  0.132411  -0.000403  1.009468  0.0  0.086235  0.000609  0.102454  0.127627  -0.000206  1.012411  0.0
H  H8  1  0.71279317  0.43755679  0.90852724  1  0.107171  -0.000106  0.940153  0.0  0.121157  8.9e-05  1.002685  0.0  0.123823  -2.7e-05  1.001172  0.0  0.066408  0.000939  0.100857  0.119174  0.000223  1.003911  0.0
H  H9  1  0.06036910  0.06128729  0.59100439  1  0.1068  -0.000115  0.940043  0.0  0.121167  7.3e-05  1.002286  0.0  0.123901  -4e-05  1.000729  0.0  0.028119  0.000931  0.100859  0.119111  0.000203  1.003579  0.0
H  H10  1  0.28719859  0.56244698  0.09147196  1  0.107195  -0.000107  0.940075  0.0  0.121144  8.9e-05  1.002682  0.0  0.12381  -2.7e-05  1.001168  0.0  0.066012  0.000939  0.10084  0.119161  0.000223  1.003908  0.0
H  H11  1  0.93963553  0.93871192  0.40899597  1  0.106804  -0.000116  0.940013  0.0  0.121177  7.3e-05  1.00225  0.0  0.123911  -4e-05  1.000691  0.0  0.028124  0.000931  0.100865  0.119122  0.000203  1.003543  0.0
H  H12  1  0.66297448  0.85888600  0.93385827  1  0.062057  -8.2e-05  0.944601  0.0  0.08043  8e-06  1.006192  0.0  0.081017  -3.5e-05  1.006647  0.0  0.031566  0.000185  0.094315  0.079922  5.1e-05  1.005977  0.0
H  H13  1  0.45762652  0.64078028  0.56632227  1  0.06107  -2.4e-05  0.94621  0.0  0.0799  9.8e-05  1.007445  0.0  0.080511  4.3e-05  1.0079  0.0  0.03038  0.000271  0.094178  0.079396  0.00015  1.00724  0.0
H  H14  1  0.33702048  0.14111777  0.06614212  1  0.062056  -8.2e-05  0.944614  0.0  0.080423  7e-06  1.006201  0.0  0.081008  -3.5e-05  1.006662  0.0  0.031544  0.000185  0.094319  0.079918  5.1e-05  1.005987  0.0
H  H15  1  0.54237320  0.35922045  0.43367784  1  0.06107  -2.3e-05  0.946231  0.0  0.0799  9.8e-05  1.007462  0.0  0.080511  4.3e-05  1.007913  0.0  0.030371  0.000271  0.094168  0.079396  0.00015  1.007257  0.0
H  H16  1  0.90364085  0.62822278  0.93697432  1  0.05844  -7e-05  0.951568  0.0  0.079553  2.2e-05  1.010912  0.0  0.079501  -1.9e-05  1.012097  0.0  0.013066  0.000224  0.094376  0.079534  6.2e-05  1.01013  0.0
H  H17  1  0.46931940  0.87184285  0.56437020  1  0.058277  -1.1e-05  0.951144  0.0  0.07911  0.000106  1.011252  0.0  0.079115  5.4e-05  1.012358  0.0  0.017881  0.000307  0.09408  0.079043  0.000155  1.01055  0.0
H  H18  1  0.09635428  0.37177795  0.06302450  1  0.058417  -7.3e-05  0.95159  0.0  0.079573  2.2e-05  1.010872  0.0  0.079521  -1.9e-05  1.01206  0.0  0.013016  0.000224  0.094384  0.079554  6.2e-05  1.010091  0.0
H  H19  1  0.53068313  0.12815788  0.43562856  1  0.058277  -1.8e-05  0.951218  0.0  0.079123  0.000106  1.011302  0.0  0.079104  5.4e-05  1.012439  0.0  0.017978  0.000307  0.094069  0.079055  0.000156  1.010604  0.0
H  H20  1  0.47076655  0.74468714  0.02749566  1  0.109835  -7.5e-05  0.920007  0.0  0.127579  -3.7e-05  0.97695  0.0  0.129769  -7e-05  0.976036  0.0  0.052201  0.000249  0.104562  0.125947  7e-06  0.977796  0.0
H  H21  1  0.24429404  0.75569584  0.47143574  1  0.109469  -9.2e-05  0.921645  0.0  0.128117  -5.4e-05  0.977426  0.0  0.130353  -8.6e-05  0.976431  0.0  0.053222  0.000246  0.104939  0.126439  -1.1e-05  0.97834  0.0
H  H22  1  0.52923437  0.25531207  0.97250548  1  0.109838  -8e-05  0.920025  0.0  0.127575  -3.7e-05  0.976978  0.0  0.129764  -7e-05  0.976062  0.0  0.052215  0.000249  0.104566  0.125944  7e-06  0.977823  0.0
H  H23  1  0.75570795  0.24430034  0.52856438  1  0.109465  -9.3e-05  0.921651  0.0  0.128122  -5.4e-05  0.977434  0.0  0.130359  -8.6e-05  0.976435  0.0  0.053226  0.000246  0.104936  0.12644  -1.1e-05  0.978354  0.0
H  H24  1  0.70904285  0.51148812  0.03020850  1  0.109495  -0.000159  0.93581  0.0  0.125383  -0.000147  0.997941  0.0  0.127565  -0.000172  0.997103  0.0  0.075563  0.000195  0.102818  0.123757  -0.000113  0.998709  0.0
H  H25  1  0.25221150  0.98857750  0.46957664  1  0.10885  -0.00016  0.936615  0.0  0.124717  -0.000144  0.99871  0.0  0.126845  -0.000169  0.997947  0.0  0.074989  0.000197  0.102757  0.123112  -0.00011  0.999432  0.0
H  H26  1  0.29095486  0.48851109  0.96979144  1  0.109513  -0.000163  0.935807  0.0  0.125396  -0.000147  0.997932  0.0  0.127577  -0.000172  0.997094  0.0  0.075575  0.000195  0.102823  0.123771  -0.000113  0.9987  0.0
H  H27  1  0.74778530  0.01142171  0.53042274  1  0.10887  -0.000162  0.936596  0.0  0.124731  -0.000144  0.998714  0.0  0.126859  -0.000169  0.997949  0.0  0.074979  0.000197  0.102749  0.123126  -0.00011  0.999435  0.0
H  H28  1  0.63062863  0.30468871  0.64985455  1  0.422961  0.000338  0.882884  0.002  0.38945  0.001018  0.950756  0.003  0.400374  0.000701  0.934887  0.002  0.642829  0.002227  0.294792  0.381566  0.001317  0.96218  0.003
H  H29  1  0.58664581  0.19323823  0.84946108  1  0.42444  0.000338  0.88  0.002  0.390445  0.001019  0.948363  0.003  0.401378  0.000698  0.932504  0.002  0.649321  0.002219  0.295478  0.382544  0.001322  0.959803  0.003
H  H30  1  0.36937585  0.69530899  0.35014525  1  0.422965  0.000339  0.882864  0.002  0.389429  0.001018  0.950786  0.003  0.400357  0.000701  0.934914  0.002  0.642805  0.002227  0.294774  0.381546  0.001317  0.962208  0.003
H  H31  1  0.41335605  0.80676098  0.15053912  1  0.424432  0.000338  0.880003  0.002  0.390442  0.001019  0.94836  0.003  0.401374  0.000699  0.932502  0.002  0.649623  0.002218  0.295476  0.382542  0.001322  0.959798  0.003
H  H32  1  0.84349733  0.19217076  0.68673971  1  0.425866  -0.000195  0.878566  0.002  0.395449  0.000474  0.94092  0.002  0.406209  0.000122  0.925343  0.002  0.64757  0.002249  0.299026  0.387679  0.000815  0.952142  0.003
H  H33  1  0.72147267  0.30580172  0.81232848  1  0.426513  -0.000185  0.877968  0.002  0.395764  0.00049  0.940721  0.002  0.406605  0.000135  0.925025  0.002  0.652655  0.002239  0.298956  0.387949  0.000829  0.952008  0.003
H  H34  1  0.15650501  0.80782845  0.31326001  1  0.425883  -0.000194  0.878545  0.002  0.395466  0.000474  0.9409  0.002  0.406227  0.000122  0.925322  0.002  0.647578  0.002249  0.29904  0.387695  0.000815  0.952123  0.003
H  H35  1  0.27852689  0.69419749  0.18767108  1  0.426565  -0.000186  0.877899  0.002  0.395821  0.00049  0.94064  0.002  0.406664  0.000135  0.924941  0.002  0.652654  0.002239  0.298976  0.388005  0.000829  0.951928  0.003
H  H36  1  0.20937038  0.39690662  0.66796630  1  0.427831  0.000168  0.874348  0.001  0.39315  0.000716  0.94225  0.002  0.40516  0.000448  0.924841  0.002  0.635491  0.00188  0.290715  0.384513  0.000968  0.954737  0.002
H  H37  1  0.27503336  0.10076673  0.83219626  1  0.427986  0.000179  0.874719  0.002  0.392817  0.000725  0.943456  0.002  0.404945  0.000456  0.925878  0.002  0.654489  0.001766  0.2906  0.384113  0.000977  0.956032  0.002
H  H38  1  0.79063149  0.60309259  0.33203389  1  0.427847  0.000169  0.87432  0.001  0.393173  0.000716  0.942215  0.002  0.405183  0.000448  0.924804  0.002  0.635499  0.00188  0.290728  0.384534  0.000968  0.954705  0.002
H  H39  1  0.72496926  0.89923096  0.16780394  1  0.427972  0.000179  0.874733  0.002  0.392818  0.000725  0.943448  0.002  0.404945  0.000456  0.92587  0.002  0.654494  0.001766  0.290592  0.384113  0.000977  0.956023  0.002
H  H40  1  0.13182860  0.51649442  0.73409811  1  0.43418  -0.000223  0.855781  0.002  0.404455  0.000452  0.918635  0.002  0.414967  0.000107  0.903091  0.002  0.654966  0.002335  0.301552  0.396853  0.000782  0.929847  0.003
H  H41  1  0.37962726  0.97930591  0.76636276  1  0.435031  -0.000212  0.851627  0.002  0.405288  0.000459  0.915627  0.002  0.415663  0.000112  0.900338  0.002  0.65188  0.002387  0.303163  0.397756  0.000791  0.926706  0.003
H  H42  1  0.86817326  0.48350479  0.26590208  1  0.434161  -0.000223  0.855857  0.002  0.404429  0.000452  0.918688  0.002  0.414943  0.000107  0.903142  0.002  0.654969  0.002335  0.301538  0.396828  0.000782  0.929898  0.003
H  H43  1  0.62037293  0.02069482  0.23363687  1  0.435037  -0.000212  0.85162  0.002  0.405297  0.000459  0.915614  0.002  0.415671  0.000112  0.900326  0.002  0.651889  0.002387  0.303166  0.397766  0.000791  0.926691  0.003
H  H44  1  0.56518670  0.03597337  0.66537181  1  0.424788  -2.5e-05  0.876188  0.001  0.392809  0.000601  0.94051  0.002  0.403142  0.00035  0.925638  0.002  0.637543  0.001612  0.299382  0.385371  0.00084  0.951206  0.002
H  H45  1  0.26999909  0.46237266  0.83430284  1  0.425418  -3e-05  0.87535  0.001  0.392988  0.000597  0.94045  0.002  0.403361  0.000346  0.925521  0.002  0.629426  0.001628  0.299765  0.385523  0.000835  0.951186  0.002
H  H46  1  0.43482055  0.96402432  0.33462817  1  0.424751  -2.4e-05  0.87624  0.001  0.39278  0.000601  0.940551  0.002  0.403115  0.00035  0.925676  0.002  0.637545  0.001612  0.29936  0.385342  0.00084  0.951247  0.002
H  H47  1  0.73000215  0.53762504  0.16569727  1  0.425462  -2.9e-05  0.875291  0.001  0.393034  0.000597  0.940388  0.002  0.403409  0.000345  0.925453  0.002  0.629438  0.001628  0.299788  0.385569  0.000835  0.951123  0.002
H  H48  1  0.76196498  0.94149826  0.70771277  1  0.422076  -0.000533  0.883172  0.0  0.388019  0.000288  0.954444  0.001  0.398644  -6e-06  0.93883  0.001  0.642984  0.000823  0.302127  0.380437  0.000561  0.96556  0.001
H  H49  1  0.41186132  0.55716888  0.79149561  1  0.423383  -0.000585  0.879779  0.0  0.389267  0.000186  0.952304  0.001  0.399925  -9.9e-05  0.936627  0.001  0.651862  0.000832  0.302911  0.381659  0.00045  0.96346  0.001
H  H50  1  0.23803918  0.05850095  0.29228806  1  0.422139  -0.00053  0.883022  0.0  0.388065  0.000287  0.954367  0.001  0.39869  -6e-06  0.938754  0.001  0.643005  0.000823  0.302146  0.380484  0.000561  0.965482  0.001
H  H51  1  0.58813853  0.44282881  0.20850442  1  0.423469  -0.000586  0.879668  0.0  0.389311  0.000186  0.952267  0.001  0.399967  -9.8e-05  0.9366  0.001  0.65185  0.000832  0.30292  0.381696  0.000451  0.963437  0.001
H  H52  1  0.79157767  0.64260240  0.54398664  1  0.419117  0.000273  0.889476  0.001  0.383968  0.000856  0.961636  0.002  0.395213  0.000597  0.945223  0.002  0.646425  0.001769  0.28929  0.375896  0.001091  0.973388  0.002
H  H53  1  0.97816683  0.85646409  0.95612521  1  0.419929  0.000291  0.88651  0.001  0.384651  0.000887  0.958747  0.002  0.395824  0.000622  0.942406  0.002  0.649514  0.001829  0.290168  0.376621  0.00113  0.970462  0.002
H  H54  1  0.20842206  0.35739832  0.45601346  1  0.419105  0.000274  0.889495  0.001  0.383959  0.000856  0.961657  0.002  0.395206  0.000597  0.945239  0.002  0.646424  0.001769  0.289294  0.375887  0.001091  0.973409  0.002
H  H55  1  0.02183075  0.14353816  0.04387480  1  0.41994  0.00029  0.886494  0.001  0.384664  0.000887  0.958732  0.002  0.395837  0.000622  0.94239  0.002  0.649507  0.001829  0.290161  0.376632  0.00113  0.97045  0.002
H  H56  1  0.01833532  0.51673130  0.57062168  1  0.422904  -0.000234  0.882642  0.001  0.390349  0.000303  0.947979  0.001  0.402146  0.000104  0.930933  0.001  0.642135  0.001048  0.290675  0.381938  0.000486  0.960096  0.002
H  H57  1  0.10463478  0.98260548  0.92980890  1  0.424277  -0.000241  0.881378  0.001  0.391507  0.0003  0.947264  0.001  0.403321  0.000101  0.930185  0.001  0.649978  0.000978  0.291033  0.383102  0.000483  0.959376  0.002
H  H58  1  0.98166654  0.48326791  0.42937851  1  0.422902  -0.000233  0.882642  0.001  0.390346  0.000303  0.947982  0.001  0.402144  0.000104  0.930935  0.001  0.642142  0.001047  0.290691  0.381935  0.000486  0.960098  0.002
H  H59  1  0.89535991  0.01739981  0.07019102  1  0.42429  -0.000242  0.881358  0.001  0.391512  0.0003  0.947258  0.001  0.403326  0.000101  0.930179  0.001  0.64957  0.00098  0.291024  0.383109  0.000483  0.959368  0.002
C  C60  1  0.71397730  0.63782387  0.83038673  1  0.747218  0.004543  3.769082  0.006  0.692793  0.008934  4.067712  0.01  0.728157  0.006676  4.059473  0.008  1.531216  0.012377  0.235606  0.668123  0.011339  4.072661  0.012
C  C61  1  0.18378333  0.85911832  0.66926157  1  0.746048  0.004271  3.766982  0.006  0.693327  0.008586  4.063575  0.01  0.728463  0.006374  4.055552  0.008  1.552992  0.011914  0.235553  0.66881  0.010947  4.068384  0.011
C  C62  1  0.28601566  0.36217837  0.16961351  1  0.747288  0.004532  3.769033  0.006  0.6928  0.008931  4.067785  0.01  0.728151  0.006675  4.059552  0.008  1.531374  0.012374  0.235591  0.668128  0.011337  4.072736  0.012
C  C63  1  0.81622269  0.14088089  0.33073887  1  0.745927  0.004272  3.767091  0.006  0.69323  0.008585  4.063657  0.01  0.728364  0.006375  4.055633  0.008  1.552968  0.011914  0.235509  0.668714  0.010947  4.068465  0.011
C  C64  1  0.64667952  0.60242448  0.90015314  1  -0.291009  0.000772  3.682876  0.001  -0.328768  0.001302  3.932447  0.001  -0.335515  0.000797  3.94046  0.001  -0.087821  0.002964  -0.171054  -0.323986  0.001852  3.926997  0.002
C  C65  1  0.15110961  0.89629429  0.59910313  1  -0.288571  0.000749  3.677481  0.001  -0.327169  0.001264  3.927514  0.001  -0.334022  0.000772  3.935766  0.001  -0.025208  0.002883  -0.170522  -0.322324  0.001806  3.921995  0.002
C  C66  1  0.35331239  0.39758081  0.09984662  1  -0.290906  0.000782  3.68265  0.001  -0.328722  0.001302  3.9324  0.001  -0.33547  0.000797  3.94042  0.001  -0.087478  0.002964  -0.171003  -0.323938  0.001852  3.926951  0.002
C  C67  1  0.84889075  0.10370795  0.40089705  1  -0.288522  0.000753  3.677509  0.001  -0.327144  0.001264  3.92758  0.001  -0.333988  0.000771  3.935812  0.001  -0.025198  0.002882  -0.170539  -0.322302  0.001805  3.922062  0.002
C  C68  1  0.72307351  0.69677884  0.94568875  1  -0.054891  0.000383  3.742147  0.0  -0.09793  0.000771  3.999584  0.001  -0.096844  0.000564  4.013867  0.001  0.019002  0.001127  -0.170371  -0.098412  0.000972  3.989539  0.001
C  C69  1  0.36690969  0.80294818  0.55453936  1  -0.05443  0.000479  3.739765  0.0  -0.098053  0.00097  3.998458  0.001  -0.097029  0.000742  4.012785  0.001  0.015057  0.001282  -0.16957  -0.098528  0.001191  3.988434  0.001
C  C70  1  0.27692020  0.30322189  0.05431149  1  -0.054974  0.000384  3.742076  0.0  -0.098012  0.000771  3.999538  0.001  -0.096933  0.000564  4.013828  0.001  0.019032  0.001127  -0.170439  -0.098498  0.000972  3.989497  0.001
C  C71  1  0.63309237  0.19705255  0.44545988  1  -0.054471  0.000488  3.739828  0.0  -0.098085  0.00097  3.99852  0.001  -0.09705  0.000743  4.012841  0.001  0.014985  0.001281  -0.16955  -0.098562  0.001191  3.988498  0.001
C  C72  1  0.65182602  0.67248379  0.01633098  1  -0.282686  0.0002  3.681928  0.0  -0.324674  0.00036  3.944021  0.0  -0.330886  0.000262  3.95308  0.0  -0.045252  0.000581  -0.167526  -0.320332  0.000463  3.937624  0.0
C  C73  1  0.34192473  0.82754539  0.48353084  1  -0.282143  0.000208  3.680612  0.0  -0.324027  0.000367  3.941476  0.0  -0.330222  0.000264  3.950565  0.0  -0.069397  0.000624  -0.167325  -0.319694  0.000474  3.935098  0.0
C  C74  1  0.34817355  0.32751542  0.98366857  1  -0.282735  0.000211  3.681827  0.0  -0.324688  0.000359  3.943924  0.0  -0.330888  0.000262  3.952968  0.0  -0.045238  0.000581  -0.167542  -0.320349  0.000463  3.937536  0.0
C  C75  1  0.65807604  0.17245230  0.51646974  1  -0.282104  0.000212  3.68055  0.0  -0.324037  0.000367  3.941469  0.0  -0.330225  0.000263  3.950546  0.0  -0.06939  0.000624  -0.167304  -0.319702  0.000474  3.935091  0.0
C  C76  1  0.73586333  0.76482774  0.06022822  1  0.723783  0.000246  3.7996  0.0  0.663967  0.000519  4.115146  0.001  0.696442  0.000317  4.109119  0.0  1.517528  0.000892  0.225359  0.641976  0.00078  4.118356  0.001
C  C77  1  0.56105264  0.73499342  0.44037685  1  0.724563  0.000246  3.80027  0.0  0.664861  0.000527  4.115615  0.001  0.697285  0.000318  4.109649  0.0  1.56364  0.000916  0.226524  0.6429  0.000799  4.118756  0.001
C  C78  1  0.26413066  0.23517147  0.93977250  1  0.723794  0.000248  3.799558  0.0  0.663937  0.000519  4.115169  0.001  0.696409  0.000317  4.109143  0.0  1.517562  0.000892  0.225355  0.641945  0.00078  4.118379  0.001
C  C79  1  0.43894693  0.26500579  0.55962270  1  0.724483  0.000238  3.800204  0.0  0.664804  0.000527  4.115534  0.001  0.69722  0.000318  4.109577  0.0  1.563613  0.000916  0.226502  0.642844  0.000799  4.118672  0.001
O  O80  1  0.67294942  0.54734457  0.78780356  1  -0.723909  0.03033  2.088134  0.02  -0.639872  0.037325  2.330131  0.025  -0.672379  0.033344  2.316606  0.021  -1.21467  0.056291  -0.309566  -0.616138  0.041165  2.338825  0.028
O  O81  1  0.01024660  0.94905706  0.71122491  1  -0.725803  0.030344  2.084187  0.02  -0.642386  0.037501  2.325869  0.025  -0.674612  0.033469  2.31213  0.021  -1.216082  0.056215  -0.31012  -0.618816  0.041385  2.334723  0.028
O  O82  1  0.32704388  0.45266071  0.21219627  1  -0.724016  0.030332  2.088131  0.02  -0.639915  0.037327  2.330156  0.025  -0.672427  0.033343  2.316642  0.021  -1.214785  0.056289  -0.309586  -0.616179  0.041166  2.338856  0.028
O  O83  1  0.98976005  0.05094367  0.28877561  1  -0.725793  0.030343  2.084196  0.02  -0.64238  0.037502  2.325888  0.025  -0.67461  0.033469  2.312157  0.021  -1.216116  0.056216  -0.310129  -0.61881  0.041385  2.334742  0.028
O  O84  1  0.80362107  0.75095071  0.81505373  1  -0.651691  0.027838  2.043383  0.015  -0.579214  0.037723  2.3052  0.022  -0.609178  0.033521  2.292866  0.019  -1.201083  0.056181  -0.294143  -0.557373  0.041769  2.313218  0.026
O  O85  1  0.37067569  0.74505309  0.68544027  1  -0.650667  0.02703  2.042669  0.014  -0.579501  0.036791  2.30324  0.022  -0.609116  0.032711  2.291018  0.018  -1.215549  0.054612  -0.294025  -0.557921  0.040704  2.311219  0.025
O  O86  1  0.19637563  0.24905609  0.18494635  1  -0.651712  0.02784  2.043402  0.015  -0.579239  0.037724  2.305289  0.022  -0.609148  0.033521  2.292905  0.019  -1.201064  0.056179  -0.29411  -0.557404  0.041769  2.313323  0.026
O  O87  1  0.62932741  0.25494460  0.31455946  1  -0.650598  0.027028  2.042684  0.014  -0.579434  0.03679  2.303233  0.022  -0.609045  0.032709  2.291006  0.018  -1.215487  0.054614  -0.293988  -0.557846  0.040702  2.311192  0.025
O  O88  1  0.85385256  0.84797297  0.03609848  1  -0.626635  8.4e-05  1.992283  0.0  -0.551627  0.000528  2.2058  0.001  -0.578163  0.000241  2.196641  0.001  -1.196695  0.002293  -0.297658  -0.533326  0.00086  2.211825  0.001
O  O89  1  0.73839451  0.65035404  0.46515499  1  -0.62531  9.7e-05  1.995582  0.0  -0.550696  0.000548  2.208999  0.001  -0.577294  0.000254  2.199888  0.001  -1.198903  0.002367  -0.297516  -0.532311  0.000885  2.214934  0.001
O  O90  1  0.14614370  0.15203383  0.96390058  1  -0.626547  8.2e-05  1.992341  0.0  -0.55156  0.000528  2.205911  0.001  -0.578095  0.000241  2.196754  0.001  -1.196678  0.002293  -0.297629  -0.533259  0.00086  2.211941  0.001
O  O91  1  0.26160689  0.34964517  0.53484568  1  -0.625307  0.000102  1.995698  0.001  -0.550705  0.000548  2.20911  0.001  -0.577302  0.000254  2.2  0.001  -1.198893  0.002367  -0.297526  -0.532321  0.000885  2.215044  0.001
O  O92  1  0.68115807  0.75557740  0.12131711  1  -0.681923  0.000332  2.030613  0.001  -0.603074  0.00093  2.244443  0.002  -0.630419  0.000505  2.232746  0.001  -1.20053  0.003413  -0.313241  -0.583975  0.001389  2.252226  0.002
O  O93  1  0.55738111  0.74519127  0.37914275  1  -0.68204  0.000335  2.034405  0.001  -0.603247  0.000931  2.24775  0.002  -0.630546  0.000508  2.236093  0.001  -1.217869  0.003432  -0.313405  -0.584146  0.001397  2.255447  0.002
O  O94  1  0.31884840  0.24441726  0.87868223  1  -0.681976  0.000331  2.030573  0.001  -0.60309  0.00093  2.244406  0.002  -0.630434  0.000506  2.232711  0.001  -1.200545  0.003413  -0.313251  -0.583986  0.001389  2.252184  0.002
O  O95  1  0.44261965  0.25480643  0.62085783  1  -0.681981  0.000336  2.034221  0.001  -0.603163  0.000931  2.247507  0.002  -0.630459  0.000509  2.235857  0.001  -1.217838  0.003432  -0.313365  -0.58406  0.001397  2.255201  0.002
O  O96  1  0.74471714  0.32414144  0.66761519  1  -0.869089  0.032769  1.901083  0.02  -0.809558  0.041759  2.120447  0.024  -0.832691  0.037332  2.082033  0.021  -1.300847  0.062215  -0.582894  -0.79209  0.045838  2.147606  0.027
O  O97  1  0.73629382  0.17364124  0.83121080  1  -0.86988  0.032658  1.899349  0.019  -0.809516  0.041767  2.119727  0.024  -0.832569  0.037349  2.080922  0.021  -1.311751  0.062337  -0.582211  -0.792117  0.045845  2.147169  0.027
O  O98  1  0.25528548  0.67585625  0.33238501  1  -0.869087  0.032768  1.901029  0.02  -0.809539  0.041758  2.120397  0.024  -0.832676  0.037333  2.081972  0.021  -1.300836  0.062216  -0.582888  -0.792071  0.045837  2.147556  0.027
O  O99  1  0.26370637  0.82635949  0.16878883  1  -0.869912  0.032661  1.899299  0.019  -0.809538  0.041768  2.119656  0.024  -0.832593  0.037349  2.080853  0.021  -1.312048  0.062339  -0.582214  -0.792138  0.045846  2.147098  0.027
O  O100  1  0.07708456  0.48490935  0.69815555  1  -0.865054  0.030748  1.868617  0.019  -0.802194  0.040189  2.078673  0.024  -0.825341  0.035692  2.040797  0.021  -1.296399  0.060174  -0.579479  -0.784642  0.044371  2.105289  0.028
O  O101  1  0.26150896  0.00926097  0.80265492  1  -0.865028  0.030752  1.870741  0.019  -0.801086  0.040131  2.083062  0.024  -0.824432  0.035663  2.045219  0.021  -1.312501  0.060363  -0.578368  -0.783412  0.044285  2.109731  0.028
O  O102  1  0.92291778  0.51508986  0.30184417  1  -0.865059  0.030747  1.868675  0.019  -0.802173  0.040188  2.078659  0.024  -0.825336  0.035691  2.04081  0.021  -1.296402  0.060172  -0.579478  -0.784621  0.04437  2.105278  0.028
O  O103  1  0.73849215  0.99073976  0.19734527  1  -0.865016  0.030754  1.87074  0.019  -0.801075  0.040131  2.083031  0.024  -0.824421  0.035663  2.045187  0.021  -1.312511  0.060363  -0.578357  -0.783401  0.044285  2.109699  0.028
O  O104  1  0.62912366  0.93238610  0.69922919  1  -0.852057  0.028812  1.943733  0.016  -0.789309  0.037442  2.154278  0.021  -0.81249  0.033706  2.11817  0.018  -1.275215  0.055232  -0.559608  -0.772137  0.040849  2.179776  0.023
O  O105  1  0.26209730  0.56612161  0.80049113  1  -0.852621  0.028873  1.951359  0.016  -0.788563  0.037484  2.161832  0.021  -0.812041  0.033766  2.125967  0.018  -1.275164  0.055107  -0.557728  -0.771175  0.040874  2.187155  0.023
O  O106  1  0.37088097  0.06761311  0.30077117  1  -0.85209  0.028809  1.943653  0.016  -0.789335  0.037443  2.154252  0.021  -0.812518  0.033708  2.118143  0.018  -1.27525  0.055233  -0.559608  -0.772164  0.04085  2.179751  0.023
O  O107  1  0.73790284  0.43387457  0.19950938  1  -0.852733  0.028877  1.95118  0.016  -0.788641  0.037484  2.161661  0.021  -0.812128  0.033766  2.125787  0.018  -1.27516  0.055106  -0.557755  -0.771252  0.040874  2.186986  0.023
O  O108  1  0.86488542  0.62723883  0.58262108  1  -0.880318  0.030091  1.905109  0.017  -0.82468  0.038853  2.129347  0.021  -0.848486  0.035123  2.090621  0.019  -1.304332  0.055426  -0.581322  -0.806679  0.042225  2.156327  0.024
O  O109  1  0.07400218  0.87110641  0.91797031  1  -0.879735  0.029833  1.900057  0.017  -0.823817  0.038698  2.122978  0.021  -0.847529  0.034977  2.084387  0.019  -1.313875  0.055175  -0.580671  -0.805927  0.042061  2.149964  0.024
O  O110  1  0.13511569  0.37276190  0.41737911  1  -0.880304  0.030087  1.905128  0.017  -0.824679  0.038853  2.129344  0.021  -0.848488  0.035123  2.090628  0.019  -1.304331  0.055425  -0.581354  -0.806678  0.042224  2.156326  0.024
O  O111  1  0.92599616  0.12889432  0.08202971  1  -0.879749  0.029834  1.900025  0.017  -0.823834  0.038698  2.122962  0.021  -0.847544  0.034977  2.084365  0.019  -1.313485  0.055174  -0.580659  -0.805942  0.04206  2.149946  0.024
