# generated using pymatgen
data_TbH18C24NO7
_symmetry_space_group_name_H-M   'P 1'
_cell_length_a   8.72141753
_cell_length_b   10.79891780
_cell_length_c   12.09931471
_cell_angle_alpha   70.10457640
_cell_angle_beta   84.33693874
_cell_angle_gamma   77.82548298
_symmetry_Int_Tables_number   1
_chemical_formula_structural   TbH18C24NO7
_chemical_formula_sum   'Tb2 H36 C48 N2 O14'
_cell_volume   1046.97543027
_cell_formula_units_Z   2
loop_
 _symmetry_equiv_pos_site_id
 _symmetry_equiv_pos_as_xyz
  1  'x, y, z'
loop_
 _atom_site_type_symbol
 _atom_site_label
 _atom_site_symmetry_multiplicity
 _atom_site_fract_x
 _atom_site_fract_y
 _atom_site_fract_z
 _atom_site_occupancy
 _atom_site_hle17_bader_spin_density
 _atom_site_hle17_ddec_charge
 _atom_site_hle17_ddec_spin_density
 _atom_site_hle17_ddec_sum_bond_order
 _atom_site_hle17_magmom
 _atom_site_hse06_10hf_bader_spin_density
 _atom_site_hse06_10hf_ddec_charge
 _atom_site_hse06_10hf_ddec_spin_density
 _atom_site_hse06_10hf_ddec_sum_bond_order
 _atom_site_hse06_10hf_magmom
 _atom_site_hse06_bader_spin_density
 _atom_site_hse06_ddec_charge
 _atom_site_hse06_ddec_spin_density
 _atom_site_hse06_ddec_sum_bond_order
 _atom_site_hse06_magmom
 _atom_site_pbe_bader_spin_density
 _atom_site_pbe_cm5_charge
 _atom_site_pbe_ddec_charge
 _atom_site_pbe_ddec_spin_density
 _atom_site_pbe_ddec_sum_bond_order
 _atom_site_pbe_magmom
Tb  Tb0  1  0.28407309  0.02319383  0.55758305  1  0  2.304772  0  1.689226  0  0  2.232244  0  2.030803  0  0  2.280453  0  1.986255  0  0  1.53843  2.130699  0  2.185764  0
Tb  Tb1  1  0.71592669  0.97680304  0.44242393  1  0  2.30471  0  1.689309  0  0  2.232155  0  2.0309  0  0  2.280369  0  1.986355  0  0  1.538432  2.130496  0  2.186061  0
H  H2  1  0.77024410  0.36357966  0.23692056  1  0  0.108429  0  0.943583  0  0  0.118284  0  1.005589  0  0  0.122166  0  1.002716  0  0  0.107193  0.115333  0  1.008036  0
H  H3  1  0.22975775  0.63642500  0.76307310  1  0  0.108451  0  0.94356  0  0  0.118282  0  1.005594  0  0  0.122163  0  1.002721  0  0  0.107203  0.115332  0  1.00804  0
H  H4  1  0.00305160  0.70105715  0.14897443  1  0  0.076528  0  0.985062  0  0  0.08766  0  1.052676  0  0  0.090581  0  1.050666  0  0  0.094383  0.085534  0  1.054243  0
H  H5  1  0.99695130  0.29894249  0.85102074  1  0  0.076564  0  0.985071  0  0  0.087695  0  1.052685  0  0  0.090615  0  1.050677  0  0  0.094398  0.085569  0  1.054253  0
H  H6  1  0.14315223  0.35227327  0.44902046  1  0  0.115158  0  0.966085  0  0  0.119741  0  1.03828  0  0  0.12397  0  1.034661  0  0  0.113046  0.117331  0  1.03948  0
H  H7  1  0.85685254  0.64772837  0.55097480  1  0  0.11515  0  0.966088  0  0  0.119733  0  1.038265  0  0  0.123964  0  1.034645  0  0  0.11304  0.117323  0  1.039458  0
H  H8  1  0.03584068  0.78598993  0.30751950  1  0  0.111686  0  0.970912  0  0  0.120593  0  1.032715  0  0  0.12414  0  1.031291  0  0  0.107634  0.117914  0  1.034033  0
H  H9  1  0.96415500  0.21400491  0.69248505  1  0  0.111709  0  0.971071  0  0  0.120707  0  1.032762  0  0  0.124254  0  1.031337  0  0  0.107647  0.118023  0  1.034078  0
H  H10  1  0.22131634  0.90249301  0.35417702  1  0  0.100873  0  0.945659  0  0  0.107581  0  1.011584  0  0  0.111764  0  1.007831  0  0  0.115154  0.105684  0  1.012351  0
H  H11  1  0.77867977  0.09749981  0.64582732  1  0  0.100879  0  0.945739  0  0  0.107603  0  1.011648  0  0  0.111787  0  1.007894  0  0  0.115176  0.105707  0  1.012415  0
H  H12  1  0.59109650  0.55844827  0.38731460  1  0  0.102058  0  0.949231  0  0  0.111879  0  1.010162  0  0  0.114499  0  1.009738  0  0  0.10495  0.10981  0  1.01086  0
H  H13  1  0.40890764  0.44155552  0.61268747  1  0  0.102095  0  0.949247  0  0  0.111921  0  1.010159  0  0  0.114543  0  1.009728  0  0  0.104947  0.109849  0  1.010858  0
H  H14  1  0.40152882  0.43694807  0.34622740  1  0  0.105176  0  0.935604  0  0  0.118282  0  0.989401  0  0  0.121041  0  0.98894  0  0  0.106631  0.116276  0  0.989948  0
H  H15  1  0.59848290  0.56305350  0.65376665  1  0  0.105211  0  0.935692  0  0  0.118299  0  0.989513  0  0  0.121064  0  0.989034  0  0  0.106637  0.116293  0  0.990064  0
H  H16  1  0.00851590  0.66922439  0.97563178  1  0  0.081809  0  0.968531  0  0  0.091263  0  1.035311  0  0  0.094094  0  1.034011  0  0  0.095378  0.089241  0  1.036293  0
H  H17  1  0.99148793  0.33076525  0.02436731  1  0  0.081808  0  0.968511  0  0  0.091253  0  1.03532  0  0  0.094088  0  1.034004  0  0  0.095409  0.089231  0  1.036299  0
H  H18  1  0.88398437  0.79708568  0.78331668  1  0  0.104474  0  0.956195  0  0  0.115266  0  1.014749  0  0  0.118049  0  1.013436  0  0  0.108514  0.113065  0  1.016123  0
H  H19  1  0.11602095  0.20290793  0.21668024  1  0  0.104407  0  0.956259  0  0  0.115209  0  1.014821  0  0  0.117982  0  1.013508  0  0  0.108493  0.113008  0  1.016194  0
H  H20  1  0.44548087  0.68431937  0.92938739  1  0  0.093111  0  0.94653  0  0  0.105535  0  1.004848  0  0  0.108562  0  1.003018  0  0  0.101849  0.103263  0  1.006409  0
H  H21  1  0.55450781  0.31569758  0.07061228  1  0  0.093123  0  0.946582  0  0  0.105557  0  1.004878  0  0  0.108578  0  1.00304  0  0  0.101874  0.103266  0  1.006457  0
H  H22  1  0.56677090  0.56070799  0.12390735  1  0  0.094597  0  0.960485  0  0  0.104265  0  1.023863  0  0  0.106905  0  1.023706  0  0  0.099759  0.102379  0  1.024051  0
H  H23  1  0.43321634  0.43930495  0.87609283  1  0  0.094599  0  0.96048  0  0  0.104288  0  1.023821  0  0  0.106927  0  1.023673  0  0  0.099767  0.102404  0  1.02401  0
H  H24  1  0.09202664  0.86814094  0.88758077  1  0  0.028551  0  0.928039  0  0  0.040898  0  0.995467  0  0  0.041981  0  0.990777  0  0  0.121662  0.039872  0  0.999245  0
H  H25  1  0.90795928  0.13185012  0.11243298  1  0  0.028748  0  0.927943  0  0  0.041051  0  0.995402  0  0  0.042134  0  0.990709  0  0  0.12171  0.04001  0  0.999193  0
H  H26  1  0.45797064  0.03194400  0.87608103  1  0  0.097717  0  0.931612  0  0  0.119087  0  0.994648  0  0  0.118795  0  0.995775  0  0  0.104691  0.119099  0  0.994113  0
H  H27  1  0.54202576  0.96805369  0.12391514  1  0  0.097718  0  0.931603  0  0  0.11908  0  0.994654  0  0  0.118787  0  0.995781  0  0  0.104688  0.119105  0  0.994104  0
H  H28  1  0.32217898  0.12920315  0.94995357  1  0  0.090873  0  0.972043  0  0  0.109756  0  1.039785  0  0  0.108987  0  1.042525  0  0  0.099153  0.110125  0  1.038043  0
H  H29  1  0.67781730  0.87079549  0.05003901  1  0  0.090902  0  0.972046  0  0  0.109793  0  1.03977  0  0  0.109022  0  1.042511  0  0  0.099161  0.11016  0  1.038035  0
H  H30  1  0.29553951  0.14973030  0.79909885  1  0  0.127995  0  0.959088  0  0  0.142285  0  1.025395  0  0  0.14407  0  1.024335  0  0  0.11598  0.140878  0  1.026152  0
H  H31  1  0.70445581  0.85026735  0.20089492  1  0  0.127994  0  0.959133  0  0  0.142249  0  1.02548  0  0  0.144034  0  1.02442  0  0  0.115942  0.140844  0  1.026235  0
H  H32  1  0.17252159  0.81471610  0.06174101  1  0  0.093579  0  0.965311  0  0  0.111375  0  1.035159  0  0  0.111946  0  1.034851  0  0  0.104872  0.110823  0  1.035525  0
H  H33  1  0.82748542  0.18527964  0.93826258  1  0  0.093581  0  0.965245  0  0  0.111376  0  1.035098  0  0  0.111944  0  1.034793  0  0  0.104881  0.110825  0  1.035465  0
H  H34  1  0.20208808  0.95169862  0.10274922  1  0  0.099516  0  0.943427  0  0  0.117965  0  1.009021  0  0  0.118186  0  1.009904  0  0  0.102511  0.117683  0  1.008564  0
H  H35  1  0.79791557  0.04829707  0.89725046  1  0  0.0995  0  0.9434  0  0  0.117925  0  1.009024  0  0  0.118144  0  1.009907  0  0  0.102507  0.117645  0  1.00857  0
H  H36  1  0.36614159  0.83894693  0.06896529  1  0  0.103996  0  0.94249  0  0  0.124622  0  1.004846  0  0  0.124823  0  1.006427  0  0  0.105486  0.124335  0  1.003903  0
H  H37  1  0.63386078  0.16105479  0.93103339  1  0  0.103923  0  0.942437  0  0  0.124548  0  1.004812  0  0  0.124748  0  1.006393  0  0  0.10546  0.124261  0  1.00387  0
C  C38  1  0.93849591  0.20713207  0.42433034  1  0  0.728423  0  3.857344  0  0  0.684457  0  4.147418  0  0  0.719905  0  4.13523  0  0  0.240317  0.659712  0  4.151294  0
C  C39  1  0.06149880  0.79286772  0.57566940  1  0  0.728582  0  3.857235  0  0  0.684593  0  4.147347  0  0  0.720042  0  4.135151  0  0  0.240366  0.659838  0  4.151245  0
C  C40  1  0.95223636  0.34778796  0.35088863  1  0  -0.063266  0  3.743512  0  0  -0.038912  0  3.974266  0  0  -0.047267  0  3.997617  0  0  -0.013023  -0.034176  0  3.960553  0
C  C41  1  0.04776799  0.65221569  0.64910603  1  0  -0.063468  0  3.743706  0  0  -0.039138  0  3.974473  0  0  -0.047495  0  3.997824  0  0  -0.013077  -0.034395  0  3.960764  0
C  C42  1  0.85563169  0.41500380  0.25410726  1  0  -0.103449  0  3.680007  0  0  -0.135395  0  3.925511  0  0  -0.135533  0  3.944742  0  0  -0.078352  -0.135208  0  3.913274  0
C  C43  1  0.14436973  0.58499693  0.74589179  1  0  -0.103378  0  3.679826  0  0  -0.135299  0  3.925355  0  0  -0.13544  0  3.944581  0  0  -0.078315  -0.135115  0  3.913122  0
C  C44  1  0.87698255  0.54108320  0.17757034  1  0  0.043703  0  3.804256  0  0  0.061179  0  4.039861  0  0  0.059358  0  4.064451  0  0  -0.010622  0.06222  0  4.023157  0
C  C45  1  0.12301925  0.45891556  0.82243096  1  0  0.043833  0  3.804189  0  0  0.061284  0  4.039797  0  0  0.059481  0  4.064362  0  0  -0.010609  0.062325  0  4.023096  0
C  C46  1  0.99002610  0.60046886  0.20509052  1  0  -0.133222  0  3.696382  0  0  -0.161934  0  3.938204  0  0  -0.162942  0  3.95724  0  0  -0.082763  -0.160982  0  3.925291  0
C  C47  1  0.00997984  0.39953275  0.79490385  1  0  -0.13336  0  3.696624  0  0  -0.162103  0  3.938419  0  0  -0.163118  0  3.957451  0  0  -0.082782  -0.161153  0  3.92551  0
C  C48  1  0.08733863  0.53485155  0.30132304  1  0  0.055127  0  3.789617  0  0  0.074365  0  4.021675  0  0  0.072699  0  4.045393  0  0  -0.003505  0.07528  0  4.005743  0
C  C49  1  0.91267106  0.46514899  0.69866897  1  0  0.055023  0  3.789924  0  0  0.074368  0  4.021808  0  0  0.072707  0  4.045523  0  0  -0.003567  0.075283  0  4.005877  0
C  C50  1  0.06857009  0.40650664  0.37390696  1  0  -0.077733  0  3.649055  0  0  -0.114024  0  3.897865  0  0  -0.112951  0  3.915791  0  0  -0.067804  -0.114414  0  3.885717  0
C  C51  1  0.93143516  0.59349295  0.62608643  1  0  -0.077581  0  3.649165  0  0  -0.113854  0  3.897855  0  0  -0.112785  0  3.915779  0  0  -0.06773  -0.114243  0  3.885704  0
C  C52  1  0.20500860  0.60297018  0.32446244  1  0  0.066667  0  3.773488  0  0  0.080995  0  4.001124  0  0  0.082706  0  4.025596  0  0  -0.000305  0.079771  0  3.984862  0
C  C53  1  0.79499735  0.39703144  0.67553193  1  0  0.066586  0  3.773554  0  0  0.080844  0  4.00125  0  0  0.082552  0  4.025726  0  0  -0.000362  0.079622  0  3.984985  0
C  C54  1  0.15756826  0.73571830  0.32374539  1  0  -0.121909  0  3.723379  0  0  -0.137563  0  3.966217  0  0  -0.14282  0  3.987877  0  0  -0.089742  -0.134391  0  3.952844  0
C  C55  1  0.84243667  0.26428237  0.67625182  1  0  -0.121942  0  3.723505  0  0  -0.137654  0  3.966334  0  0  -0.142911  0  3.987995  0  0  -0.089797  -0.134474  0  3.952957  0
C  C56  1  0.26204834  0.80131192  0.35079255  1  0  -0.048167  0  3.727973  0  0  -0.071387  0  3.974824  0  0  -0.069439  0  3.993529  0  0  -0.077176  -0.07278  0  3.962575  0
C  C57  1  0.73795506  0.19868481  0.64920847  1  0  -0.048159  0  3.727953  0  0  -0.071405  0  3.974786  0  0  -0.069454  0  3.9935  0  0  -0.077178  -0.072796  0  3.962534  0
C  C58  1  0.41778020  0.73691212  0.37666066  1  0  -0.07515  0  3.751253  0  0  -0.05037  0  3.978267  0  0  -0.059541  0  4.001676  0  0  -0.018465  -0.045173  0  3.964325  0
C  C59  1  0.58222111  0.26308869  0.62334251  1  0  -0.075172  0  3.75138  0  0  -0.050347  0  3.97835  0  0  -0.059537  0  4.001787  0  0  -0.018457  -0.045152  0  3.964409  0
C  C60  1  0.46887613  0.60705540  0.37038012  1  0  -0.063723  0  3.74184  0  0  -0.087029  0  3.990557  0  0  -0.086131  0  4.011439  0  0  -0.080915  -0.087493  0  3.977044  0
C  C61  1  0.53112635  0.39294625  0.62961445  1  0  -0.06373  0  3.741912  0  0  -0.08704  0  3.990598  0  0  -0.08614  0  4.011486  0  0  -0.080904  -0.087504  0  3.977088  0
C  C62  1  0.36265214  0.53966951  0.34685633  1  0  -0.122097  0  3.720592  0  0  -0.139897  0  3.970199  0  0  -0.144488  0  3.99104  0  0  -0.089068  -0.137025  0  3.956321  0
C  C63  1  0.63735250  0.46033307  0.65313533  1  0  -0.122103  0  3.720625  0  0  -0.139906  0  3.970277  0  0  -0.144494  0  3.99112  0  0  -0.089045  -0.137035  0  3.956397  0
C  C64  1  0.52379678  0.80499548  0.41463850  1  0  0.683151  0  3.881022  0  0  0.637398  0  4.177427  0  0  0.672557  0  4.166321  0  0  0.212999  0.613731  0  4.176835  0
C  C65  1  0.47620836  0.19499826  0.58536501  1  0  0.683137  0  3.881116  0  0  0.637343  0  4.177547  0  0  0.672508  0  4.166451  0  0  0.213028  0.613677  0  4.176965  0
C  C66  1  0.79617834  0.60937860  0.06489281  1  0  0.062054  0  3.780356  0  0  0.075964  0  4.008595  0  0  0.078048  0  4.032226  0  0  -0.004573  0.074787  0  3.992354  0
C  C67  1  0.20381659  0.39062525  0.93510896  1  0  0.061946  0  3.780436  0  0  0.07591  0  4.008615  0  0  0.077984  0  4.032245  0  0  -0.004622  0.074733  0  3.992377  0
C  C68  1  0.88340881  0.67663386  0.96680276  1  0  -0.130993  0  3.771026  0  0  -0.149452  0  4.024394  0  0  -0.154218  0  4.04629  0  0  -0.096611  -0.146333  0  4.009512  0
C  C69  1  0.11659031  0.32336689  0.03319642  1  0  -0.130942  0  3.771087  0  0  -0.149433  0  4.024457  0  0  -0.154194  0  4.046353  0  0  -0.096643  -0.146311  0  4.009568  0
C  C70  1  0.81516548  0.74657141  0.85888933  1  0  -0.068878  0  3.762317  0  0  -0.092838  0  4.010775  0  0  -0.092018  0  4.031943  0  0  -0.086841  -0.093356  0  3.997254  0
C  C71  1  0.18483410  0.25342731  0.14110882  1  0  -0.068773  0  3.762187  0  0  -0.092735  0  4.010668  0  0  -0.091902  0  4.031827  0  0  -0.086793  -0.093256  0  3.997147  0
C  C72  1  0.65644121  0.75096055  0.84424442  1  0  -0.072737  0  3.739366  0  0  -0.049276  0  3.969573  0  0  -0.05722  0  3.991636  0  0  -0.020838  -0.04486  0  3.956541  0
C  C73  1  0.34355901  0.24904023  0.15575634  1  0  -0.072734  0  3.739224  0  0  -0.049259  0  3.969428  0  0  -0.057205  0  3.991489  0  0  -0.020855  -0.04484  0  3.956387  0
C  C74  1  0.56864820  0.68233754  0.94064652  1  0  -0.071483  0  3.752915  0  0  -0.094482  0  3.999776  0  0  -0.09307  0  4.019269  0  0  -0.088004  -0.095277  0  3.987096  0
C  C75  1  0.43134987  0.31767329  0.05935286  1  0  -0.071485  0  3.752966  0  0  -0.094499  0  3.999834  0  0  -0.093074  0  4.019309  0  0  -0.088032  -0.095281  0  3.987163  0
C  C76  1  0.63754105  0.61174183  0.04945656  1  0  -0.130829  0  3.738312  0  0  -0.146396  0  3.984312  0  0  -0.150697  0  4.004917  0  0  -0.092853  -0.143547  0  3.970154  0
C  C77  1  0.36245186  0.38826606  0.95054488  1  0  -0.130835  0  3.738346  0  0  -0.146416  0  3.984325  0  0  -0.150722  0  4.004936  0  0  -0.092824  -0.143568  0  3.970165  0
C  C78  1  0.58926167  0.82739850  0.72485890  1  0  0.707417  0  3.865276  0  0  0.662563  0  4.161958  0  0  0.698196  0  4.149435  0  0  0.225556  0.637773  0  4.165831  0
C  C79  1  0.41075450  0.17260314  0.27514065  1  0  0.707401  0  3.865322  0  0  0.662536  0  4.162022  0  0  0.698169  0  4.149506  0  0  0.225602  0.637744  0  4.165894  0
C  C80  1  0.15598428  0.95174214  0.84680949  1  0  0.436255  0  3.811923  0  0  0.361348  0  4.10495  0  0  0.391192  0  4.102  0  0  0.1918  0.340857  0  4.103987  0
C  C81  1  0.84400403  0.04825392  0.15320338  1  0  0.435723  0  3.812513  0  0  0.360853  0  4.105499  0  0  0.390696  0  4.102551  0  0  0.191494  0.34037  0  4.104533  0
C  C82  1  0.33410233  0.07776984  0.88458781  1  0  -0.174573  0  3.626117  0  0  -0.274117  0  3.871256  0  0  -0.270187  0  3.881163  0  0  -0.134897  -0.276502  0  3.864843  0
C  C83  1  0.66589392  0.92222288  0.11541158  1  0  -0.17459  0  3.62625  0  0  -0.274093  0  3.87138  0  0  -0.270161  0  3.881288  0  0  -0.134858  -0.276489  0  3.864958  0
C  C84  1  0.24517561  0.89069170  0.04569716  1  0  -0.180748  0  3.68885  0  0  -0.285467  0  3.942735  0  0  -0.282221  0  3.954681  0  0  -0.132138  -0.287392  0  3.934707  0
C  C85  1  0.75482645  0.10930603  0.95430280  1  0  -0.180588  0  3.688656  0  0  -0.28528  0  3.942545  0  0  -0.282031  0  3.954496  0  0  -0.132085  -0.2872  0  3.934506  0
N  N86  1  0.23863863  0.97434966  0.92286816  1  0  -0.088751  0  3.505732  0  0  0.016235  0  3.738436  0  0  -0.004171  0  3.763119  0  0  -0.279023  0.029745  0  3.721962  0
N  N87  1  0.76135556  0.02564713  0.07713256  1  0  -0.088864  0  3.505793  0  0  0.016123  0  3.738509  0  0  -0.004285  0  3.763192  0  0  -0.279094  0.029633  0  3.722037  0
O  O88  1  0.04054161  0.13953768  0.50087053  1  0  -0.750541  0  2.101483  0  0  -0.715221  0  2.37413  0  0  -0.739082  0  2.358931  0  0  -0.413371  -0.687435  0  2.384647  0
O  O89  1  0.95945836  0.86046413  0.49913158  1  0  -0.750656  0  2.101445  0  0  -0.715326  0  2.374117  0  0  -0.739193  0  2.358932  0  0  -0.413427  -0.687506  0  2.38463  0
O  O90  1  0.82351045  0.16290776  0.40492632  1  0  -0.74615  0  2.07545  0  0  -0.709681  0  2.333228  0  0  -0.734511  0  2.320792  0  0  -0.412484  -0.682241  0  2.343812  0
O  O91  1  0.17648858  0.83709305  0.59507616  1  0  -0.74617  0  2.075265  0  0  -0.70969  0  2.333036  0  0  -0.73452  0  2.320599  0  0  -0.412478  -0.682263  0  2.343622  0
O  O92  1  0.67193650  0.77556940  0.40301689  1  0  -0.673968  0  1.947857  0  0  -0.638038  0  2.186227  0  0  -0.659763  0  2.174665  0  0  -0.355772  -0.616143  0  2.193993  0
O  O93  1  0.32806280  0.22442444  0.59698941  1  0  -0.67398  0  1.947658  0  0  -0.638064  0  2.186089  0  0  -0.659774  0  2.174487  0  0  -0.355814  -0.616151  0  2.19378  0
O  O94  1  0.46210260  0.89917249  0.45771765  1  0  -0.850585  0  2.233371  0  0  -0.804414  0  2.490496  0  0  -0.831143  0  2.480101  0  0  -0.449065  -0.769881  0  2.496418  0
O  O95  1  0.53789713  0.10082441  0.54229097  1  0  -0.85047  0  2.233541  0  0  -0.80429  0  2.490683  0  0  -0.831016  0  2.480285  0  0  -0.44905  -0.769757  0  2.496607  0
O  O96  1  0.68862836  0.84719565  0.63925454  1  0  -0.738822  0  2.097148  0  0  -0.700302  0  2.35706  0  0  -0.726258  0  2.347428  0  0  -0.394803  -0.672199  0  2.363113  0
O  O97  1  0.31138035  0.15280728  0.36075662  1  0  -0.738917  0  2.096897  0  0  -0.700408  0  2.356833  0  0  -0.72636  0  2.347183  0  0  -0.39489  -0.672318  0  2.362873  0
O  O98  1  0.44137797  0.86780649  0.71758406  1  0  -0.72446  0  2.003883  0  0  -0.686652  0  2.252876  0  0  -0.711056  0  2.241773  0  0  -0.382679  -0.661019  0  2.261741  0
O  O99  1  0.55862380  0.13220330  0.28241461  1  0  -0.724389  0  2.004093  0  0  -0.68658  0  2.253104  0  0  -0.710978  0  2.241994  0  0  -0.382657  -0.660935  0  2.261975  0
O  O100  1  0.14523067  0.01790500  0.73993151  1  0  -0.61145  0  2.136521  0  0  -0.570227  0  2.400366  0  0  -0.592954  0  2.391172  0  0  -0.362219  -0.545347  0  2.407534  0
O  O101  1  0.85474738  0.98209191  0.26006929  1  0  -0.61103  0  2.137155  0  0  -0.569773  0  2.400924  0  0  -0.592494  0  2.391737  0  0  -0.36195  -0.54488  0  2.408089  0
