# generated using pymatgen
data_ZnH11C12N3O5
_symmetry_space_group_name_H-M   'P 1'
_cell_length_a   8.17190300
_cell_length_b   8.66721493
_cell_length_c   9.93012905
_cell_angle_alpha   104.51091949
_cell_angle_beta   101.39505360
_cell_angle_gamma   99.99286912
_symmetry_Int_Tables_number   1
_chemical_formula_structural   ZnH11C12N3O5
_chemical_formula_sum   'Zn2 H22 C24 N6 O10'
_cell_volume   648.77564143
_cell_formula_units_Z   2
loop_
 _symmetry_equiv_pos_site_id
 _symmetry_equiv_pos_as_xyz
  1  'x, y, z'
loop_
 _atom_site_type_symbol
 _atom_site_label
 _atom_site_symmetry_multiplicity
 _atom_site_fract_x
 _atom_site_fract_y
 _atom_site_fract_z
 _atom_site_occupancy
 _atom_site_hle17_bader_spin_density
 _atom_site_hle17_ddec_charge
 _atom_site_hle17_ddec_spin_density
 _atom_site_hle17_ddec_sum_bond_order
 _atom_site_hle17_magmom
 _atom_site_hse06_10hf_bader_spin_density
 _atom_site_hse06_10hf_ddec_charge
 _atom_site_hse06_10hf_ddec_spin_density
 _atom_site_hse06_10hf_ddec_sum_bond_order
 _atom_site_hse06_10hf_magmom
 _atom_site_hse06_bader_spin_density
 _atom_site_hse06_ddec_charge
 _atom_site_hse06_ddec_spin_density
 _atom_site_hse06_ddec_sum_bond_order
 _atom_site_hse06_magmom
 _atom_site_pbe_bader_spin_density
 _atom_site_pbe_cm5_charge
 _atom_site_pbe_ddec_charge
 _atom_site_pbe_ddec_spin_density
 _atom_site_pbe_ddec_sum_bond_order
 _atom_site_pbe_magmom
Zn  Zn0  1  0.66330613  0.98233649  0.65077142  1  0  1.009633  0  1.832909  0  0  0.813034  0  2.301408  0  0  0.865489  0  2.243166  0  0  0.677909  0.776158  0  2.341629  0
Zn  Zn1  1  0.33668695  0.01766440  0.34922367  1  0  1.009642  0  1.832844  0  0  0.813047  0  2.301258  0  0  0.865508  0  2.243013  0  0  0.67786  0.776165  0  2.341475  0
H  H2  1  0.87396087  0.94054430  0.41839978  1  0  0.086025  0  0.951226  0  0  0.096878  0  1.012369  0  0  0.098726  0  1.01086  0  0  0.120092  0.095504  0  1.013517  0
H  H3  1  0.12603350  0.05946691  0.58158806  1  0  0.08608  0  0.951315  0  0  0.096932  0  1.012424  0  0  0.098774  0  1.010912  0  0  0.120111  0.095556  0  1.013575  0
H  H4  1  0.87697300  0.73999146  0.19880656  1  0  0.1223  0  0.955477  0  0  0.131695  0  1.016595  0  0  0.135262  0  1.014461  0  0  0.113821  0.129145  0  1.018283  0
H  H5  1  0.12302394  0.26000592  0.80118216  1  0  0.122295  0  0.955575  0  0  0.131725  0  1.016667  0  0  0.13529  0  1.014534  0  0  0.113856  0.129171  0  1.018357  0
H  H6  1  0.45278657  0.41345031  0.26529095  1  0  0.120654  0  0.978718  0  0  0.127648  0  1.043452  0  0  0.13177  0  1.040926  0  0  0.109528  0.124648  0  1.045382  0
H  H7  1  0.54721709  0.58654755  0.73471095  1  0  0.120665  0  0.978707  0  0  0.127662  0  1.043428  0  0  0.131784  0  1.040903  0  0  0.109517  0.12466  0  1.045358  0
H  H8  1  0.47184941  0.63120516  0.48548003  1  0  0.072663  0  0.967756  0  0  0.08319  0  1.030521  0  0  0.084565  0  1.030154  0  0  0.115138  0.082168  0  1.030821  0
H  H9  1  0.52814554  0.36879825  0.51451396  1  0  0.072643  0  0.967694  0  0  0.083158  0  1.030491  0  0  0.084532  0  1.030125  0  0  0.115098  0.082138  0  1.030792  0
H  H10  1  0.84946908  0.34628986  0.79780459  1  0  0.085664  0  0.945172  0  0  0.096113  0  1.004411  0  0  0.098543  0  1.002506  0  0  0.119005  0.094322  0  1.005826  0
H  H11  1  0.15052313  0.65370399  0.20218152  1  0  0.085695  0  0.945151  0  0  0.096191  0  1.004357  0  0  0.098626  0  1.002444  0  0  0.119022  0.094396  0  1.00577  0
H  H12  1  0.85549600  0.57290592  0.00758310  1  0  0.110004  0  0.967292  0  0  0.117252  0  1.033503  0  0  0.120639  0  1.031958  0  0  0.109335  0.114696  0  1.034988  0
H  H13  1  0.14449150  0.42708953  0.99239770  1  0  0.109914  0  0.967317  0  0  0.117208  0  1.033482  0  0  0.120596  0  1.031938  0  0  0.109279  0.114652  0  1.034966  0
H  H14  1  0.46143456  0.23737647  0.09912775  1  0  0.121096  0  0.977722  0  0  0.128206  0  1.042308  0  0  0.132187  0  1.039867  0  0  0.109466  0.125282  0  1.044372  0
H  H15  1  0.53859583  0.76260732  0.90089662  1  0  0.121217  0  0.977581  0  0  0.12816  0  1.042359  0  0  0.13214  0  1.039918  0  0  0.109445  0.125239  0  1.044416  0
H  H16  1  0.46985380  0.02943908  0.88098352  1  0  0.087112  0  0.951727  0  0  0.09552  0  1.014769  0  0  0.097888  0  1.012969  0  0  0.119259  0.093735  0  1.016165  0
H  H17  1  0.53015703  0.97053844  0.11902330  1  0  0.087062  0  0.951885  0  0  0.095489  0  1.014913  0  0  0.097847  0  1.013133  0  0  0.119221  0.093715  0  1.016284  0
H  H18  1  0.98725357  0.32524783  0.48368927  1  0  0.128443  0  0.96466  0  0  0.146674  0  1.024041  0  0  0.148563  0  1.024513  0  0  0.089784  0.145238  0  1.023831  0
H  H19  1  0.01274279  0.67475501  0.51631587  1  0  0.12838  0  0.964641  0  0  0.146612  0  1.024047  0  0  0.148501  0  1.024519  0  0  0.089729  0.145173  0  1.023833  0
H  H20  1  0.82142365  0.42557388  0.43780742  1  0  0.128487  0  0.95833  0  0  0.1478  0  1.018806  0  0  0.149604  0  1.019436  0  0  0.093961  0.146429  0  1.018491  0
H  H21  1  0.17858172  0.57443523  0.56219357  1  0  0.128468  0  0.958371  0  0  0.147791  0  1.018844  0  0  0.149596  0  1.019474  0  0  0.093953  0.146419  0  1.018531  0
H  H22  1  0.85669190  0.26738103  0.30198856  1  0  0.148357  0  0.955456  0  0  0.161774  0  1.020648  0  0  0.164683  0  1.019429  0  0  0.09627  0.159669  0  1.021541  0
H  H23  1  0.14330419  0.73262040  0.69802022  1  0  0.148359  0  0.95542  0  0  0.161798  0  1.020589  0  0  0.164704  0  1.019374  0  0  0.096311  0.159693  0  1.02148  0
C  C24  1  0.78275876  0.82217222  0.38193492  1  0  0.147539  0  3.685271  0  0  0.113081  0  3.94007  0  0  0.120483  0  3.958001  0  0  0.051708  0.108194  0  3.927828  0
C  C25  1  0.21722682  0.17782906  0.61805515  1  0  0.147382  0  3.685652  0  0  0.11295  0  3.94044  0  0  0.120358  0  3.958363  0  0  0.051639  0.108069  0  3.928195  0
C  C26  1  0.78335221  0.70648527  0.25681699  1  0  -0.14398  0  3.662218  0  0  -0.162916  0  3.909787  0  0  -0.169649  0  3.928992  0  0  -0.07341  -0.158363  0  3.896852  0
C  C27  1  0.21663587  0.29350242  0.74316897  1  0  -0.143821  0  3.662325  0  0  -0.162872  0  3.909917  0  0  -0.169605  0  3.92912  0  0  -0.07336  -0.158309  0  3.896975  0
C  C28  1  0.66505015  0.55395290  0.20943585  1  0  0.095699  0  3.741234  0  0  0.10717  0  3.971045  0  0  0.111108  0  3.993195  0  0  0.017181  0.104562  0  3.955826  0
C  C29  1  0.33494693  0.44603585  0.79055067  1  0  0.095685  0  3.740792  0  0  0.107251  0  3.970521  0  0  0.111188  0  3.992673  0  0  0.017112  0.104639  0  3.955301  0
C  C30  1  0.55007627  0.52756982  0.29421631  1  0  -0.158874  0  3.692035  0  0  -0.176418  0  3.94063  0  0  -0.183929  0  3.961159  0  0  -0.080534  -0.171463  0  3.926844  0
C  C31  1  0.44992426  0.47243084  0.70578081  1  0  -0.158932  0  3.691952  0  0  -0.176486  0  3.940502  0  0  -0.183997  0  3.961026  0  0  -0.080512  -0.171532  0  3.926718  0
C  C32  1  0.55902306  0.64966652  0.41808550  1  0  0.124113  0  3.720161  0  0  0.092699  0  3.971802  0  0  0.099227  0  3.991351  0  0  0.039968  0.088429  0  3.958466  0
C  C33  1  0.44096893  0.35033095  0.58190353  1  0  0.124183  0  3.720037  0  0  0.092743  0  3.971675  0  0  0.099274  0  3.991223  0  0  0.039994  0.088475  0  3.958343  0
C  C34  1  0.76805643  0.32760379  0.86958824  1  0  0.140136  0  3.689671  0  0  0.108026  0  3.941573  0  0  0.114913  0  3.96005  0  0  0.050193  0.103663  0  3.928948  0
C  C35  1  0.23193656  0.67239212  0.13040658  1  0  0.140043  0  3.689832  0  0  0.107876  0  3.941786  0  0  0.114756  0  3.960271  0  0  0.050187  0.103514  0  3.929164  0
C  C36  1  0.77079958  0.45368290  0.98881042  1  0  -0.147392  0  3.674032  0  0  -0.165591  0  3.922269  0  0  -0.173248  0  3.943693  0  0  -0.076681  -0.160841  0  3.908041  0
C  C37  1  0.22919305  0.54632009  0.01119321  1  0  -0.147323  0  3.674219  0  0  -0.165529  0  3.922438  0  0  -0.173188  0  3.943871  0  0  -0.076651  -0.160779  0  3.908202  0
C  C38  1  0.66299210  0.42553714  0.07844039  1  0  0.094295  0  3.738522  0  0  0.105095  0  3.969397  0  0  0.10845  0  3.99187  0  0  0.013927  0.103104  0  3.953875  0
C  C39  1  0.33702222  0.57446268  0.92156861  1  0  0.094211  0  3.738179  0  0  0.104988  0  3.969008  0  0  0.10834  0  3.991486  0  0  0.013919  0.103004  0  3.953483  0
C  C40  1  0.55257440  0.26912275  0.03822192  1  0  -0.145131  0  3.659266  0  0  -0.163736  0  3.907586  0  0  -0.171347  0  3.928005  0  0  -0.075526  -0.158771  0  3.893959  0
C  C41  1  0.44745350  0.73087984  0.96180185  1  0  -0.14523  0  3.659333  0  0  -0.1637  0  3.907685  0  0  -0.171308  0  3.928101  0  0  -0.075408  -0.15874  0  3.894068  0
C  C42  1  0.55660669  0.15049168  0.91627709  1  0  0.139818  0  3.680276  0  0  0.108485  0  3.930294  0  0  0.115505  0  3.94878  0  0  0.052337  0.103966  0  3.917711  0
C  C43  1  0.44341064  0.84950047  0.08373442  1  0  0.139752  0  3.680565  0  0  0.108404  0  3.930573  0  0  0.115419  0  3.949057  0  0  0.052277  0.103888  0  3.917993  0
C  C44  1  0.72979199  0.18677303  0.45154852  1  0  0.762083  0  3.832138  0  0  0.714904  0  4.131114  0  0  0.750447  0  4.120885  0  0  0.216509  0.690591  0  4.137353  0
C  C45  1  0.27020956  0.81323946  0.54846185  1  0  0.762264  0  3.831833  0  0  0.715007  0  4.130888  0  0  0.750563  0  4.12064  0  0  0.216638  0.690679  0  4.137159  0
C  C46  1  0.85838233  0.30747056  0.41611261  1  0  -0.456769  0  3.64416  0  0  -0.529319  0  3.875392  0  0  -0.536926  0  3.87774  0  0  -0.253309  -0.52382  0  3.873663  0
C  C47  1  0.14161878  0.69253581  0.58389513  1  0  -0.456687  0  3.644037  0  0  -0.529255  0  3.875283  0  0  -0.536867  0  3.87763  0  0  -0.253294  -0.523745  0  3.873556  0
N  N48  1  0.67256227  0.79591056  0.46261667  1  0  -0.338144  0  3.28475  0  0  -0.258735  0  3.554195  0  0  -0.278274  0  3.571506  0  0  -0.322792  -0.245247  0  3.54215  0
N  N49  1  0.32742966  0.20409535  0.53737853  1  0  -0.338176  0  3.284948  0  0  -0.258724  0  3.554344  0  0  -0.278262  0  3.571655  0  0  -0.322794  -0.245241  0  3.542307  0
N  N50  1  0.66373119  0.17728137  0.83325785  1  0  -0.317924  0  3.261034  0  0  -0.238791  0  3.529116  0  0  -0.258139  0  3.546582  0  0  -0.319159  -0.225732  0  3.517211  0
N  N51  1  0.33627098  0.82269861  0.16672718  1  0  -0.317627  0  3.260788  0  0  -0.238577  0  3.529015  0  0  -0.257916  0  3.546477  0  0  -0.319131  -0.225519  0  3.517108  0
N  N52  1  0.90151726  0.86884245  0.81311663  1  0  0.68588  0  4.140225  0  0  0.717289  0  4.434054  0  0  0.745233  0  4.440554  0  0  0.097512  0.698443  0  4.429236  0
N  N53  1  0.09847729  0.13116818  0.18688318  1  0  0.686261  0  4.140127  0  0  0.717632  0  4.433967  0  0  0.745583  0  4.440456  0  0  0.097577  0.698781  0  4.42916  0
O  O54  1  0.96937777  0.97661961  0.76213212  1  0  -0.465937  0  1.757511  0  0  -0.451429  0  1.979455  0  0  -0.467744  0  1.973151  0  0  -0.186238  -0.440062  0  1.98373  0
O  O55  1  0.03062087  0.02337858  0.23786511  1  0  -0.466156  0  1.757394  0  0  -0.451627  0  1.979328  0  0  -0.467946  0  1.973022  0  0  -0.186311  -0.440258  0  1.983606  0
O  O56  1  0.73425517  0.83114788  0.78406615  1  0  -0.510498  0  1.844203  0  0  -0.479457  0  2.0865  0  0  -0.499789  0  2.07647  0  0  -0.20885  -0.464971  0  2.092913  0
O  O57  1  0.26574026  0.16884811  0.21592602  1  0  -0.51056  0  1.844076  0  0  -0.479558  0  2.086448  0  0  -0.499885  0  2.076394  0  0  -0.20884  -0.465074  0  2.09287  0
O  O58  1  0.98623199  0.79859594  0.88609682  1  0  -0.410394  0  1.728215  0  0  -0.411491  0  1.928113  0  0  -0.422615  0  1.923389  0  0  -0.175648  -0.403718  0  1.931394  0
O  O59  1  0.01376447  0.20142004  0.11392077  1  0  -0.410463  0  1.728492  0  0  -0.411553  0  1.928423  0  0  -0.422696  0  1.923719  0  0  -0.175633  -0.403765  0  1.93168  0
O  O60  1  0.77320025  0.15929554  0.57224961  1  0  -0.65844  0  2.091732  0  0  -0.589531  0  2.37006  0  0  -0.618214  0  2.355182  0  0  -0.319808  -0.569558  0  2.379504  0
O  O61  1  0.22679426  0.84070996  0.42775292  1  0  -0.658714  0  2.091754  0  0  -0.58969  0  2.370047  0  0  -0.618383  0  2.35516  0  0  -0.31986  -0.569681  0  2.379432  0
O  O62  1  0.58576032  0.12379506  0.35969309  1  0  -0.656555  0  2.080692  0  0  -0.585111  0  2.356039  0  0  -0.613391  0  2.340959  0  0  -0.320916  -0.565415  0  2.365876  0
O  O63  1  0.41423691  0.87622010  0.64031533  1  0  -0.656476  0  2.080605  0  0  -0.585065  0  2.356039  0  0  -0.613347  0  2.340949  0  0  -0.320986  -0.565369  0  2.365891  0
