# generated using pymatgen
data_ZnH22C24(N3O4)2
_symmetry_space_group_name_H-M   'P 1'
_cell_length_a   6.61351420
_cell_length_b   13.15611109
_cell_length_c   15.75208715
_cell_angle_alpha   107.78016868
_cell_angle_beta   102.14599789
_cell_angle_gamma   104.55740177
_symmetry_Int_Tables_number   1
_chemical_formula_structural   ZnH22C24(N3O4)2
_chemical_formula_sum   'Zn2 H44 C48 N12 O16'
_cell_volume   1200.32148740
_cell_formula_units_Z   2
loop_
 _symmetry_equiv_pos_site_id
 _symmetry_equiv_pos_as_xyz
  1  'x, y, z'
loop_
 _atom_site_type_symbol
 _atom_site_label
 _atom_site_symmetry_multiplicity
 _atom_site_fract_x
 _atom_site_fract_y
 _atom_site_fract_z
 _atom_site_occupancy
 _atom_site_hle17_bader_spin_density
 _atom_site_hle17_ddec_charge
 _atom_site_hle17_ddec_spin_density
 _atom_site_hle17_ddec_sum_bond_order
 _atom_site_hle17_magmom
 _atom_site_hse06_10hf_bader_spin_density
 _atom_site_hse06_10hf_ddec_charge
 _atom_site_hse06_10hf_ddec_spin_density
 _atom_site_hse06_10hf_ddec_sum_bond_order
 _atom_site_hse06_10hf_magmom
 _atom_site_hse06_bader_spin_density
 _atom_site_hse06_ddec_charge
 _atom_site_hse06_ddec_spin_density
 _atom_site_hse06_ddec_sum_bond_order
 _atom_site_hse06_magmom
 _atom_site_pbe_bader_spin_density
 _atom_site_pbe_cm5_charge
 _atom_site_pbe_ddec_charge
 _atom_site_pbe_ddec_spin_density
 _atom_site_pbe_ddec_sum_bond_order
 _atom_site_pbe_magmom
Zn  Zn0  1  0.43401170  0.24970125  0.24987218  1  0  0.994616  0  1.876078  0  0  0.804755  0  2.354104  0  0  0.851787  0  2.299069  0  0  0.693165  0.771864  0  2.392143  0
Zn  Zn1  1  0.56599827  0.75029780  0.75012628  1  0  0.994601  0  1.876203  0  0  0.804726  0  2.354268  0  0  0.851757  0  2.299233  0  0  0.693178  0.771843  0  2.39232  0
H  H2  1  0.94794551  0.30468222  0.33928892  1  0  0.102849  0  0.952484  0  0  0.10809  0  1.024538  0  0  0.111051  0  1.020713  0  0  0.137385  0.105836  0  1.027408  0
H  H3  1  0.80324456  0.19480415  0.16033647  1  0  0.102698  0  0.95337  0  0  0.108428  0  1.024952  0  0  0.111464  0  1.021054  0  0  0.13749  0.106128  0  1.02782  0
H  H4  1  0.05205635  0.69531992  0.66070029  1  0  0.102793  0  0.952593  0  0  0.108103  0  1.024506  0  0  0.111066  0  1.020678  0  0  0.13734  0.105823  0  1.027411  0
H  H5  1  0.19676536  0.80519070  0.83966188  1  0  0.102636  0  0.953438  0  0  0.108376  0  1.025005  0  0  0.111418  0  1.021094  0  0  0.137457  0.106076  0  1.027892  0
H  H6  1  0.61175787  0.52017964  0.27603720  1  0  0.105794  0  0.986421  0  0  0.106362  0  1.060982  0  0  0.109984  0  1.058289  0  0  0.113167  0.103655  0  1.06311  0
H  H7  1  0.31532262  0.97918477  0.22366044  1  0  0.104753  0  0.985844  0  0  0.10544  0  1.06039  0  0  0.109158  0  1.057603  0  0  0.112561  0.102692  0  1.062564  0
H  H8  1  0.38824637  0.47982950  0.72396125  1  0  0.1058  0  0.986562  0  0  0.106391  0  1.06107  0  0  0.110053  0  1.058308  0  0  0.113195  0.103692  0  1.063202  0
H  H9  1  0.68467433  0.02080997  0.77633423  1  0  0.104731  0  0.98588  0  0  0.10544  0  1.060401  0  0  0.109159  0  1.057613  0  0  0.112556  0.102691  0  1.062571  0
H  H10  1  0.06098708  0.64025103  0.35253062  1  0  0.117063  0  0.952614  0  0  0.127437  0  1.012602  0  0  0.129767  0  1.011609  0  0  0.123125  0.125706  0  1.013489  0
H  H11  1  0.56807401  0.85927096  0.14725014  1  0  0.116679  0  0.953799  0  0  0.127048  0  1.013817  0  0  0.129358  0  1.012833  0  0  0.122883  0.125314  0  1.014721  0
H  H12  1  0.93902188  0.35975737  0.64747128  1  0  0.117103  0  0.952663  0  0  0.127497  0  1.012609  0  0  0.129833  0  1.011605  0  0  0.123137  0.12576  0  1.013488  0
H  H13  1  0.43191930  0.14071960  0.85274548  1  0  0.116614  0  0.953752  0  0  0.127015  0  1.013749  0  0  0.129288  0  1.012806  0  0  0.12293  0.125277  0  1.014645  0
H  H14  1  0.34480501  0.44130928  0.33663251  1  0  0.071355  0  0.954701  0  0  0.084795  0  1.025546  0  0  0.085492  0  1.024605  0  0  0.106565  0.084158  0  1.026397  0
H  H15  1  0.06655703  0.05820219  0.16333949  1  0  0.070974  0  0.955206  0  0  0.084666  0  1.025183  0  0  0.085349  0  1.024198  0  0  0.106414  0.084029  0  1.026062  0
H  H16  1  0.65520004  0.55869480  0.66336544  1  0  0.071355  0  0.954628  0  0  0.084823  0  1.025496  0  0  0.085521  0  1.024546  0  0  0.106584  0.084189  0  1.026344  0
H  H17  1  0.93344798  0.94179185  0.83666043  1  0  0.07097  0  0.955262  0  0  0.08468  0  1.025199  0  0  0.085363  0  1.024215  0  0  0.106419  0.084043  0  1.02608  0
H  H18  1  0.38891965  0.58713550  0.39428950  1  0  0.08105  0  0.933902  0  0  0.096578  0  0.998003  0  0  0.096882  0  0.998359  0  0  0.112114  0.096301  0  0.997829  0
H  H19  1  0.90692480  0.91240479  0.10537226  1  0  0.081057  0  0.936207  0  0  0.096189  0  1.000195  0  0  0.096528  0  1.000454  0  0  0.112186  0.09588  0  1.00009  0
H  H20  1  0.61108485  0.41286773  0.60570819  1  0  0.081085  0  0.933875  0  0  0.096615  0  0.998011  0  0  0.096925  0  0.998334  0  0  0.112131  0.096335  0  0.997833  0
H  H21  1  0.09307862  0.08759092  0.89462702  1  0  0.081113  0  0.936276  0  0  0.096218  0  1.000286  0  0  0.096558  0  1.000545  0  0  0.112194  0.095904  0  1.000172  0
H  H22  1  0.28035652  0.40909420  0.48176650  1  0  0.065619  0  0.952197  0  0  0.082886  0  1.016026  0  0  0.08266  0  1.018275  0  0  0.088836  0.082974  0  1.014526  0
H  H23  1  0.88950168  0.09087138  0.01832297  1  0  0.065735  0  0.952662  0  0  0.083442  0  1.015844  0  0  0.083238  0  1.018043  0  0  0.089047  0.083502  0  1.014394  0
H  H24  1  0.71964247  0.59090900  0.51823032  1  0  0.065645  0  0.952358  0  0  0.082923  0  1.016129  0  0  0.08269  0  1.018383  0  0  0.088843  0.083013  0  1.014633  0
H  H25  1  0.11051179  0.90912264  0.98167614  1  0  0.065784  0  0.952557  0  0  0.083441  0  1.015777  0  0  0.083252  0  1.017958  0  0  0.089047  0.083504  0  1.014337  0
H  H26  1  0.34260732  0.55704396  0.53736197  1  0  0.0785  0  0.967686  0  0  0.094049  0  1.030927  0  0  0.094807  0  1.032148  0  0  0.091164  0.093426  0  1.030228  0
H  H27  1  0.74814713  0.94295801  0.96246602  1  0  0.077991  0  0.968354  0  0  0.093698  0  1.031644  0  0  0.094421  0  1.032908  0  0  0.090835  0.093093  0  1.030917  0
H  H28  1  0.65739145  0.44296012  0.46263587  1  0  0.078513  0  0.96772  0  0  0.094061  0  1.030933  0  0  0.09482  0  1.032153  0  0  0.091166  0.093436  0  1.030229  0
H  H29  1  0.25186312  0.05703855  0.03753361  1  0  0.077984  0  0.968421  0  0  0.093677  0  1.031717  0  0  0.094399  0  1.032985  0  0  0.090824  0.09307  0  1.030984  0
H  H30  1  0.91335367  0.14157776  0.37284952  1  0  0.112335  0  0.941691  0  0  0.120215  0  1.003717  0  0  0.123594  0  1.002405  0  0  0.108881  0.11775  0  1.004851  0
H  H31  1  0.89856201  0.35836546  0.12741164  1  0  0.113806  0  0.9395  0  0  0.121511  0  1.001751  0  0  0.124925  0  1.000384  0  0  0.109121  0.119036  0  1.002878  0
H  H32  1  0.08665224  0.85843073  0.62715549  1  0  0.112394  0  0.941654  0  0  0.120294  0  1.003655  0  0  0.123674  0  1.002339  0  0  0.108905  0.11783  0  1.004786  0
H  H33  1  0.10141158  0.64163440  0.87258571  1  0  0.113893  0  0.939458  0  0  0.121574  0  1.001731  0  0  0.124988  0  1.000363  0  0  0.109162  0.119056  0  1.002917  0
H  H34  1  0.71113230  0.09538063  0.48021383  1  0  0.129591  0  0.949075  0  0  0.133521  0  1.015642  0  0  0.137738  0  1.012023  0  0  0.115417  0.130398  0  1.018473  0
H  H35  1  0.63499909  0.40486534  0.02021468  1  0  0.129164  0  0.951092  0  0  0.133219  0  1.017486  0  0  0.137414  0  1.013916  0  0  0.115226  0.130156  0  1.02019  0
H  H36  1  0.28887141  0.90462447  0.51979017  1  0  0.129562  0  0.949055  0  0  0.133493  0  1.015653  0  0  0.137708  0  1.012037  0  0  0.115413  0.130374  0  1.018464  0
H  H37  1  0.36498184  0.59512938  0.97977943  1  0  0.129149  0  0.950931  0  0  0.133174  0  1.017395  0  0  0.137347  0  1.013851  0  0  0.115211  0.130109  0  1.020101  0
H  H38  1  0.32608099  0.16554906  0.68584604  1  0  0.112896  0  0.949101  0  0  0.116829  0  1.016485  0  0  0.120614  0  1.013861  0  0  0.109761  0.114086  0  1.018396  0
H  H39  1  0.97291103  0.33443574  0.81433429  1  0  0.114437  0  0.948194  0  0  0.11853  0  1.015186  0  0  0.122356  0  1.012529  0  0  0.110396  0.11578  0  1.017131  0
H  H40  1  0.67392298  0.83444750  0.31415349  1  0  0.11292  0  0.949042  0  0  0.11683  0  1.016451  0  0  0.12062  0  1.013834  0  0  0.109767  0.114088  0  1.018346  0
H  H41  1  0.02709491  0.66556771  0.18567100  1  0  0.114385  0  0.94822  0  0  0.118478  0  1.015222  0  0  0.122247  0  1.012644  0  0  0.110369  0.115726  0  1.017161  0
H  H42  1  0.52752094  0.21253279  0.57721393  1  0  0.103189  0  0.959473  0  0  0.107198  0  1.030412  0  0  0.11123  0  1.027181  0  0  0.104982  0.104171  0  1.033058  0
H  H43  1  0.23596677  0.28707979  0.92273374  1  0  0.104136  0  0.958176  0  0  0.10806  0  1.029081  0  0  0.112054  0  1.025886  0  0  0.105252  0.105087  0  1.031661  0
H  H44  1  0.47248683  0.78746550  0.42278724  1  0  0.103179  0  0.959526  0  0  0.107218  0  1.030428  0  0  0.111263  0  1.027189  0  0  0.104989  0.10419  0  1.03308  0
H  H45  1  0.76403072  0.71292369  0.07727236  1  0  0.104201  0  0.957959  0  0  0.108055  0  1.028996  0  0  0.112023  0  1.025838  0  0  0.105209  0.105087  0  1.031577  0
C  C46  1  0.91212696  0.37842470  0.33270907  1  0  0.171325  0  3.626454  0  0  0.110415  0  3.890501  0  0  0.125065  0  3.901231  0  0  0.148372  0.100915  0  3.883109  0
C  C47  1  0.70045947  0.12105726  0.16698683  1  0  0.170708  0  3.630396  0  0  0.109281  0  3.89435  0  0  0.123859  0  3.905107  0  0  0.148392  0.099847  0  3.886945  0
C  C48  1  0.08787478  0.62157748  0.66728156  1  0  0.171322  0  3.626684  0  0  0.110405  0  3.890683  0  0  0.12505  0  3.901419  0  0  0.148459  0.100919  0  3.88331  0
C  C49  1  0.29954340  0.87893760  0.83301220  1  0  0.170853  0  3.630417  0  0  0.1094  0  3.894392  0  0  0.123979  0  3.905144  0  0  0.148449  0.099955  0  3.887005  0
C  C50  1  0.74621770  0.49295894  0.30111250  1  0  -0.000287  0  3.744097  0  0  -0.032599  0  4.011787  0  0  -0.031524  0  4.031944  0  0  -0.004203  -0.033265  0  3.998283  0
C  C51  1  0.45182277  0.00642969  0.19858161  1  0  0.000861  0  3.740719  0  0  -0.031538  0  4.008328  0  0  -0.030583  0  4.028475  0  0  -0.003478  -0.032141  0  3.99483  0
C  C52  1  0.25379583  0.50704854  0.69888655  1  0  -0.000322  0  3.743981  0  0  -0.032657  0  4.011661  0  0  -0.031574  0  4.031775  0  0  -0.004218  -0.033321  0  3.998145  0
C  C53  1  0.54817525  0.99356595  0.80141538  1  0  0.000907  0  3.740783  0  0  -0.031515  0  4.008395  0  0  -0.03056  0  4.028532  0  0  -0.003447  -0.032116  0  3.994884  0
C  C54  1  0.96741285  0.55319503  0.33779929  1  0  -0.05285  0  3.661215  0  0  -0.092899  0  3.914057  0  0  -0.091534  0  3.933695  0  0  0.005139  -0.093785  0  3.900876  0
C  C55  1  0.57620263  0.94627763  0.16194630  1  0  -0.05221  0  3.66036  0  0  -0.092301  0  3.913308  0  0  -0.090915  0  3.933015  0  0  0.005505  -0.093179  0  3.9001  0
C  C56  1  0.03258534  0.44680741  0.66220011  1  0  -0.052895  0  3.661189  0  0  -0.092972  0  3.914046  0  0  -0.091595  0  3.933668  0  0  0.005092  -0.093843  0  3.900844  0
C  C57  1  0.42379577  0.05371469  0.83805225  1  0  -0.052094  0  3.660375  0  0  -0.092234  0  3.913359  0  0  -0.090809  0  3.933091  0  0  0.005465  -0.093102  0  3.900119  0
C  C58  1  0.30588534  0.50184605  0.39046713  1  0  0.009767  0  3.61043  0  0  -0.052385  0  3.863953  0  0  -0.047596  0  3.87488  0  0  -0.05221  -0.055491  0  3.85663  0
C  C59  1  0.91324418  0.99776771  0.10935734  1  0  0.009649  0  3.613857  0  0  -0.051573  0  3.86575  0  0  -0.046645  0  3.876387  0  0  -0.051969  -0.054741  0  3.85854  0
C  C60  1  0.69411665  0.49815549  0.60953020  1  0  0.009845  0  3.610264  0  0  -0.052469  0  3.863987  0  0  -0.047645  0  3.874857  0  0  -0.052261  -0.055573  0  3.856661  0
C  C61  1  0.08676074  0.00222717  0.89064220  1  0  0.009455  0  3.614046  0  0  -0.051735  0  3.865832  0  0  -0.046809  0  3.87648  0  0  -0.052045  -0.054904  0  3.85862  0
C  C62  1  0.37771931  0.49233289  0.48525913  1  0  -0.132757  0  3.681142  0  0  -0.171142  0  3.934256  0  0  -0.173463  0  3.949464  0  0  -0.169311  -0.1694  0  3.923851  0
C  C63  1  0.90010705  0.00760890  0.01470656  1  0  -0.13248  0  3.680028  0  0  -0.171444  0  3.932193  0  0  -0.173815  0  3.947484  0  0  -0.169155  -0.169657  0  3.921697  0
C  C64  1  0.62227967  0.50767032  0.51473769  1  0  -0.13293  0  3.681392  0  0  -0.171199  0  3.934417  0  0  -0.173522  0  3.949631  0  0  -0.169306  -0.169453  0  3.924007  0
C  C65  1  0.09990611  0.99238682  0.98529319  1  0  -0.132528  0  3.680039  0  0  -0.171444  0  3.932149  0  0  -0.173825  0  3.947439  0  0  -0.16918  -0.169655  0  3.921655  0
C  C66  1  0.36310787  0.21238814  0.40675935  1  0  0.624159  0  3.92883  0  0  0.576253  0  4.222877  0  0  0.609626  0  4.215981  0  0  0.198293  0.553683  0  4.226585  0
C  C67  1  0.24290054  0.28731224  0.09332497  1  0  0.622439  0  3.928252  0  0  0.574746  0  4.22238  0  0  0.608121  0  4.215498  0  0  0.197419  0.552175  0  4.226097  0
C  C68  1  0.63690429  0.78761693  0.59324384  1  0  0.624142  0  3.928698  0  0  0.576245  0  4.222763  0  0  0.609618  0  4.215863  0  0  0.198235  0.553681  0  4.226471  0
C  C69  1  0.75708857  0.71268701  0.90668042  1  0  0.622371  0  3.92826  0  0  0.574678  0  4.222377  0  0  0.608062  0  4.215469  0  0  0.197348  0.552112  0  4.226105  0
C  C70  1  0.23400839  0.18200184  0.46931451  1  0  -0.041663  0  3.708229  0  0  -0.026433  0  3.948595  0  0  -0.031458  0  3.970376  0  0  -0.007719  -0.023129  0  3.933877  0
C  C71  1  0.08158154  0.31777476  0.03078971  1  0  -0.041477  0  3.71089  0  0  -0.026554  0  3.951263  0  0  -0.031585  0  3.973044  0  0  -0.007418  -0.023242  0  3.936524  0
C  C72  1  0.76599625  0.81799816  0.53068758  1  0  -0.041593  0  3.708086  0  0  -0.026383  0  3.948519  0  0  -0.031408  0  3.970299  0  0  -0.007668  -0.023081  0  3.933809  0
C  C73  1  0.91840989  0.68222784  0.96921527  1  0  -0.041599  0  3.711207  0  0  -0.026633  0  3.951521  0  0  -0.031684  0  3.973324  0  0  -0.007443  -0.023323  0  3.936792  0
C  C74  1  0.00380822  0.14797634  0.44161943  1  0  -0.053734  0  3.678864  0  0  -0.078302  0  3.933091  0  0  -0.080302  0  3.952968  0  0  -0.076427  -0.07699  0  3.919748  0
C  C75  1  0.91343434  0.35192238  0.05859980  1  0  -0.056106  0  3.682634  0  0  -0.080513  0  3.937148  0  0  -0.082474  0  3.956991  0  0  -0.077117  -0.079175  0  3.923778  0
C  C76  1  0.99619644  0.85202444  0.55838086  1  0  -0.05389  0  3.67877  0  0  -0.078488  0  3.933076  0  0  -0.080486  0  3.952947  0  0  -0.076463  -0.077169  0  3.919731  0
C  C77  1  0.08654940  0.64807759  0.94140149  1  0  -0.05612  0  3.682751  0  0  -0.080499  0  3.937238  0  0  -0.082498  0  3.957142  0  0  -0.077111  -0.07912  0  3.923888  0
C  C78  1  0.88942068  0.12132706  0.50113909  1  0  -0.081105  0  3.696397  0  0  -0.105322  0  3.954846  0  0  -0.105173  0  3.973081  0  0  -0.071865  -0.105435  0  3.942489  0
C  C79  1  0.76605259  0.37868895  0.99916917  1  0  -0.080232  0  3.698849  0  0  -0.105099  0  3.956633  0  0  -0.104768  0  3.974939  0  0  -0.071962  -0.105194  0  3.944332  0
C  C80  1  0.11058486  0.87867629  0.49886272  1  0  -0.080957  0  3.696377  0  0  -0.105224  0  3.954813  0  0  -0.105075  0  3.973046  0  0  -0.071838  -0.105335  0  3.942466  0
C  C81  1  0.23393938  0.62131187  0.00083233  1  0  -0.080133  0  3.698701  0  0  -0.105013  0  3.956525  0  0  -0.104866  0  3.974691  0  0  -0.07193  -0.10511  0  3.944209  0
C  C82  1  0.00962312  0.12963899  0.58873076  1  0  0.060328  0  3.72826  0  0  0.048753  0  3.981721  0  0  0.04604  0  4.006313  0  0  0.073953  0.051088  0  3.964681  0
C  C83  1  0.78998047  0.37044376  0.91156792  1  0  0.061229  0  3.730453  0  0  0.051348  0  3.981503  0  0  0.047751  0  4.006471  0  0  0.074559  0.053594  0  3.964633  0
C  C84  1  0.99037686  0.87036013  0.41127006  1  0  0.060195  0  3.728408  0  0  0.048795  0  3.981728  0  0  0.046085  0  4.00632  0  0  0.073968  0.051129  0  3.964685  0
C  C85  1  0.21001609  0.62955956  0.08843264  1  0  0.061228  0  3.730418  0  0  0.051329  0  3.981399  0  0  0.048647  0  4.005784  0  0  0.074601  0.053584  0  3.964521  0
C  C86  1  0.23896324  0.16251046  0.61793162  1  0  -0.086145  0  3.722817  0  0  -0.110084  0  3.980549  0  0  -0.110578  0  3.999881  0  0  -0.077464  -0.109602  0  3.967163  0
C  C87  1  0.95692387  0.33741524  0.88223173  1  0  -0.091226  0  3.727221  0  0  -0.115975  0  3.985072  0  0  -0.116324  0  4.004463  0  0  -0.079595  -0.115479  0  3.971737  0
C  C88  1  0.76104042  0.83748780  0.38206855  1  0  -0.086154  0  3.722841  0  0  -0.110107  0  3.98054  0  0  -0.110628  0  3.999899  0  0  -0.077521  -0.109615  0  3.967145  0
C  C89  1  0.04307699  0.66258908  0.11777435  1  0  -0.091137  0  3.726986  0  0  -0.115903  0  3.984835  0  0  -0.116444  0  4.004148  0  0  -0.079616  -0.115393  0  3.971482  0
C  C90  1  0.34954880  0.18839111  0.55750946  1  0  -0.058635  0  3.718256  0  0  -0.083116  0  3.974132  0  0  -0.08531  0  3.99449  0  0  -0.079192  -0.081658  0  3.960504  0
C  C91  1  0.10209831  0.31135490  0.94255151  1  0  -0.05685  0  3.719229  0  0  -0.081232  0  3.975555  0  0  -0.083325  0  3.995876  0  0  -0.078293  -0.079815  0  3.961869  0
C  C92  1  0.65045084  0.81160629  0.44249009  1  0  -0.058647  0  3.718168  0  0  -0.083155  0  3.974061  0  0  -0.085378  0  3.994439  0  0  -0.079185  -0.081698  0  3.960434  0
C  C93  1  0.89789863  0.68864773  0.05745434  1  0  -0.056941  0  3.719015  0  0  -0.081306  0  3.975397  0  0  -0.083442  0  3.995803  0  0  -0.078231  -0.079887  0  3.961721  0
N  N94  1  0.06937748  0.47950263  0.35679639  1  0  -0.041019  0  3.54839  0  0  0.053735  0  3.763333  0  0  0.039672  0  3.788407  0  0  -0.235054  0.063011  0  3.746275  0
N  N95  1  0.73266583  0.02003479  0.14292140  1  0  -0.040851  0  3.550333  0  0  0.053246  0  3.76563  0  0  0.039128  0  3.790731  0  0  -0.235958  0.062549  0  3.748549  0
N  N96  1  0.93062855  0.52050056  0.64319975  1  0  -0.041021  0  3.548343  0  0  0.053759  0  3.763321  0  0  0.039695  0  3.78839  0  0  -0.235037  0.063041  0  3.746249  0
N  N97  1  0.26733508  0.97995923  0.85707751  1  0  -0.040815  0  3.550352  0  0  0.053299  0  3.7656  0  0  0.039182  0  3.790696  0  0  -0.23587  0.062609  0  3.74851  0
N  N98  1  0.71383810  0.38383901  0.29870119  1  0  -0.400241  0  3.335658  0  0  -0.318045  0  3.634927  0  0  -0.338373  0  3.646917  0  0  -0.362286  -0.304296  0  3.626661  0
N  N99  1  0.53080543  0.11556871  0.20099629  1  0  -0.399561  0  3.337013  0  0  -0.317389  0  3.636519  0  0  -0.33773  0  3.648591  0  0  -0.362301  -0.303619  0  3.628198  0
N  N100  1  0.28616213  0.61616664  0.70129291  1  0  -0.400223  0  3.335729  0  0  -0.317989  0  3.634943  0  0  -0.338309  0  3.646936  0  0  -0.362285  -0.30424  0  3.626687  0
N  N101  1  0.46919724  0.88442781  0.79900195  1  0  -0.399624  0  3.337076  0  0  -0.317446  0  3.636604  0  0  -0.337787  0  3.648681  0  0  -0.362327  -0.303677  0  3.628298  0
N  N102  1  0.89207921  0.10184218  0.65213557  1  0  0.464654  0  3.943427  0  0  0.508151  0  4.223774  0  0  0.52601  0  4.234404  0  0  0.054036  0.494832  0  4.216853  0
N  N103  1  0.63712129  0.39868574  0.84836706  1  0  0.466051  0  3.945827  0  0  0.509435  0  4.225279  0  0  0.529383  0  4.235383  0  0  0.054944  0.496112  0  4.218401  0
N  N104  1  0.10792989  0.89816035  0.34786700  1  0  0.464802  0  3.943325  0  0  0.508079  0  4.223907  0  0  0.525938  0  4.23454  0  0  0.053958  0.494763  0  4.216977  0
N  N105  1  0.36286830  0.60131335  0.15163265  1  0  0.465867  0  3.945994  0  0  0.50946  0  4.225101  0  0  0.527584  0  4.235618  0  0  0.054863  0.496131  0  4.218214  0
O  O106  1  0.24846645  0.21378094  0.32933568  1  0  -0.648432  0  2.019929  0  0  -0.575  0  2.29172  0  0  -0.603504  0  2.277307  0  0  -0.335225  -0.554937  0  2.300889  0
O  O107  1  0.20437308  0.28574493  0.17068927  1  0  -0.64712  0  2.020344  0  0  -0.573837  0  2.2921  0  0  -0.60238  0  2.277754  0  0  -0.334287  -0.553762  0  2.301227  0
O  O108  1  0.75154396  0.78622242  0.67066636  1  0  -0.648368  0  2.019789  0  0  -0.574941  0  2.291558  0  0  -0.603446  0  2.277145  0  0  -0.335223  -0.554879  0  2.300728  0
O  O109  1  0.79561020  0.71425863  0.82931961  1  0  -0.647008  0  2.020709  0  0  -0.573723  0  2.292445  0  0  -0.602261  0  2.278092  0  0  -0.33422  -0.553639  0  2.301569  0
O  O110  1  0.56678820  0.23569452  0.43193823  1  0  -0.596472  0  1.91083  0  0  -0.552778  0  2.136346  0  0  -0.575412  0  2.129664  0  0  -0.316284  -0.536768  0  2.140256  0
O  O111  1  0.39805413  0.26401281  0.06815853  1  0  -0.595927  0  1.910755  0  0  -0.551993  0  2.136003  0  0  -0.574611  0  2.129333  0  0  -0.315873  -0.535961  0  2.139828  0
O  O112  1  0.43321696  0.76430553  0.56806591  1  0  -0.596486  0  1.910781  0  0  -0.552787  0  2.136291  0  0  -0.575429  0  2.129624  0  0  -0.316215  -0.53677  0  2.140199  0
O  O113  1  0.60191471  0.73597982  0.93185060  1  0  -0.595955  0  1.910352  0  0  -0.552035  0  2.135603  0  0  -0.574679  0  2.128964  0  0  -0.315876  -0.53599  0  2.139432  0
O  O114  1  0.00237877  0.10968397  0.72997492  1  0  -0.366376  0  1.771727  0  0  -0.350366  0  1.981159  0  0  -0.361589  0  1.979228  0  0  -0.130182  -0.342154  0  1.982503  0
O  O115  1  0.66184162  0.39124762  0.77063867  1  0  -0.367249  0  1.772521  0  0  -0.351597  0  1.982067  0  0  -0.363813  0  1.980048  0  0  -0.130433  -0.343421  0  1.983494  0
O  O116  1  0.99763057  0.89032111  0.27002854  1  0  -0.366502  0  1.771533  0  0  -0.350424  0  1.981056  0  0  -0.361656  0  1.979137  0  0  -0.13018  -0.342212  0  1.982397  0
O  O117  1  0.33815390  0.60875821  0.22936150  1  0  -0.367139  0  1.772604  0  0  -0.35157  0  1.982042  0  0  -0.362881  0  1.980016  0  0  -0.130411  -0.343393  0  1.983461  0
O  O118  1  0.68811927  0.07205690  0.62585223  1  0  -0.348428  0  1.765946  0  0  -0.329469  0  1.965736  0  0  -0.340551  0  1.964219  0  0  -0.120633  -0.321363  0  1.966897  0
O  O119  1  0.48942504  0.42854581  0.87474859  1  0  -0.347958  0  1.766103  0  0  -0.329312  0  1.966365  0  0  -0.341366  0  1.964775  0  0  -0.120761  -0.321213  0  1.967541  0
O  O120  1  0.31188518  0.92794475  0.37414908  1  0  -0.348387  0  1.766133  0  0  -0.32937  0  1.966013  0  0  -0.340449  0  1.964496  0  0  -0.120556  -0.321265  0  1.967169  0
O  O121  1  0.51055616  0.57144642  0.12524669  1  0  -0.347991  0  1.76619  0  0  -0.329338  0  1.966246  0  0  -0.340488  0  1.964631  0  0  -0.120735  -0.321239  0  1.967419  0
