# generated using pymatgen
data_CuH11C8IN
_symmetry_space_group_name_H-M   'P 1'
_cell_length_a   4.07496355
_cell_length_b   10.27876737
_cell_length_c   11.34089995
_cell_angle_alpha   90.00026989
_cell_angle_beta   90.00119800
_cell_angle_gamma   89.99968015
_symmetry_Int_Tables_number   1
_chemical_formula_structural   CuH11C8IN
_chemical_formula_sum   'Cu2 H22 C16 I2 N2'
_cell_volume   475.02042590
_cell_formula_units_Z   2
loop_
 _symmetry_equiv_pos_site_id
 _symmetry_equiv_pos_as_xyz
  1  'x, y, z'
loop_
 _atom_site_type_symbol
 _atom_site_label
 _atom_site_symmetry_multiplicity
 _atom_site_fract_x
 _atom_site_fract_y
 _atom_site_fract_z
 _atom_site_occupancy
 _atom_site_hle17_bader_spin_density
 _atom_site_hle17_ddec_charge
 _atom_site_hle17_ddec_spin_density
 _atom_site_hle17_ddec_sum_bond_order
 _atom_site_hle17_magmom
 _atom_site_hse06_10hf_bader_spin_density
 _atom_site_hse06_10hf_ddec_charge
 _atom_site_hse06_10hf_ddec_spin_density
 _atom_site_hse06_10hf_ddec_sum_bond_order
 _atom_site_hse06_10hf_magmom
 _atom_site_hse06_bader_spin_density
 _atom_site_hse06_ddec_charge
 _atom_site_hse06_ddec_spin_density
 _atom_site_hse06_ddec_sum_bond_order
 _atom_site_hse06_magmom
 _atom_site_pbe_bader_spin_density
 _atom_site_pbe_cm5_charge
 _atom_site_pbe_ddec_charge
 _atom_site_pbe_ddec_spin_density
 _atom_site_pbe_ddec_sum_bond_order
 _atom_site_pbe_magmom
Cu  Cu0  1  0.40549580  0.49999751  0.86482018  1  0  0.339334  0  2.003037  0  0  0.243267  0  2.482422  0  0  0.258737  0  2.430891  0  0  0.296429  0.233855  0  2.517576  0
Cu  Cu1  1  0.59445624  0.99999855  0.36482371  1  0  0.339359  0  2.003087  0  0  0.243274  0  2.482537  0  0  0.258692  0  2.430958  0  0  0.296432  0.233864  0  2.517691  0
H  H2  1  0.23732170  0.74144167  0.72329162  1  0  0.121564  0  0.949363  0  0  0.144567  0  1.010139  0  0  0.145978  0  1.009937  0  0  0.093297  0.143576  0  1.010026  0
H  H3  1  0.23733953  0.25855205  0.72328707  1  0  0.121595  0  0.949384  0  0  0.144566  0  1.010189  0  0  0.145974  0  1.009989  0  0  0.093263  0.143575  0  1.010077  0
H  H4  1  0.76265969  0.24145469  0.22330661  1  0  0.121583  0  0.949317  0  0  0.144628  0  1.010044  0  0  0.146039  0  1.009847  0  0  0.093347  0.143642  0  1.009929  0
H  H5  1  0.76264654  0.75854101  0.22330331  1  0  0.121647  0  0.949387  0  0  0.144672  0  1.010113  0  0  0.146082  0  1.009915  0  0  0.093346  0.143687  0  1.009995  0
H  H6  1  0.62102302  0.73479663  0.79610736  1  0  0.105499  0  0.970117  0  0  0.122767  0  1.0426  0  0  0.125779  0  1.039029  0  0  0.085094  0.120484  0  1.045155  0
H  H7  1  0.62103586  0.26519655  0.79610107  1  0  0.105496  0  0.970125  0  0  0.122779  0  1.042574  0  0  0.125791  0  1.039003  0  0  0.085112  0.120497  0  1.045127  0
H  H8  1  0.37894801  0.23478333  0.29610804  1  0  0.105412  0  0.970066  0  0  0.122677  0  1.042579  0  0  0.125703  0  1.038993  0  0  0.085029  0.120394  0  1.04513  0
H  H9  1  0.37894460  0.76521853  0.29610564  1  0  0.105457  0  0.970079  0  0  0.122722  0  1.042584  0  0  0.125744  0  1.039001  0  0  0.085033  0.120439  0  1.045135  0
H  H10  1  0.58081931  0.82258506  0.65984837  1  0  0.118532  0  0.970899  0  0  0.135801  0  1.036049  0  0  0.13765  0  1.036257  0  0  0.082212  0.134243  0  1.036474  0
H  H11  1  0.58083819  0.17741821  0.65984259  1  0  0.118503  0  0.971061  0  0  0.135796  0  1.036169  0  0  0.137644  0  1.036377  0  0  0.082208  0.134235  0  1.036595  0
H  H12  1  0.41913521  0.32258334  0.15985728  1  0  0.118476  0  0.971005  0  0  0.135744  0  1.03618  0  0  0.137594  0  1.036385  0  0  0.082217  0.134187  0  1.03661  0
H  H13  1  0.41912556  0.67741869  0.15985804  1  0  0.118539  0  0.971053  0  0  0.135818  0  1.036193  0  0  0.13767  0  1.036394  0  0  0.082252  0.134261  0  1.036628  0
H  H14  1  0.77576646  0.71023920  0.48936415  1  0  0.10343  0  0.978213  0  0  0.110762  0  1.048354  0  0  0.114444  0  1.047198  0  0  0.091364  0.107157  0  1.051027  0
H  H15  1  0.77576917  0.28975882  0.48936237  1  0  0.103474  0  0.978132  0  0  0.110794  0  1.048286  0  0  0.11448  0  1.047115  0  0  0.091376  0.107191  0  1.050957  0
H  H16  1  0.22423590  0.21024930  0.98935310  1  0  0.103422  0  0.977925  0  0  0.110709  0  1.048146  0  0  0.114417  0  1.04696  0  0  0.091384  0.107096  0  1.050825  0
H  H17  1  0.22422481  0.78976042  0.98935345  1  0  0.103377  0  0.978148  0  0  0.110704  0  1.048322  0  0  0.114397  0  1.047159  0  0  0.091347  0.107092  0  1.051003  0
H  H18  1  0.74372463  0.50000240  0.28250169  1  0  0.118431  0  0.94924  0  0  0.143859  0  1.004602  0  0  0.145145  0  1.005443  0  0  0.091459  0.142752  0  1.004184  0
H  H19  1  0.25633698  0.00000173  0.78249882  1  0  0.118622  0  0.948955  0  0  0.143993  0  1.004391  0  0  0.145292  0  1.005214  0  0  0.091527  0.142887  0  1.00397  0
H  H20  1  0.08864245  0.58653997  0.33472634  1  0  0.108592  0  0.967011  0  0  0.131879  0  1.027483  0  0  0.133038  0  1.02789  0  0  0.090335  0.130918  0  1.027298  0
H  H21  1  0.08864847  0.41346571  0.33472244  1  0  0.108595  0  0.967059  0  0  0.131856  0  1.027581  0  0  0.133017  0  1.027984  0  0  0.090318  0.130894  0  1.027394  0
H  H22  1  0.91139658  0.08653966  0.83470452  1  0  0.108629  0  0.967124  0  0  0.13186  0  1.027673  0  0  0.13303  0  1.028064  0  0  0.090335  0.130895  0  1.027493  0
H  H23  1  0.91139861  0.91346567  0.83470540  1  0  0.108626  0  0.967161  0  0  0.131876  0  1.027675  0  0  0.133042  0  1.028071  0  0  0.090343  0.13091  0  1.027496  0
C  C24  1  0.58572081  0.61401623  0.64269146  1  0  0.320637  0  3.729204  0  0  0.327593  0  3.970029  0  0  0.338902  0  3.988848  0  0  0.112588  0.320216  0  3.956982  0
C  C25  1  0.58572228  0.38597916  0.64269450  1  0  0.320699  0  3.729245  0  0  0.32781  0  3.969832  0  0  0.339121  0  3.988648  0  0  0.112668  0.320429  0  3.956793  0
C  C26  1  0.41425257  0.11402327  0.14268711  1  0  0.320576  0  3.729455  0  0  0.32746  0  3.970373  0  0  0.338764  0  3.989199  0  0  0.112409  0.320082  0  3.957329  0
C  C27  1  0.41424760  0.88597965  0.14268258  1  0  0.320618  0  3.729058  0  0  0.327559  0  3.969905  0  0  0.338866  0  3.988724  0  0  0.112489  0.320181  0  3.956865  0
C  C28  1  0.50358626  0.73566922  0.70855215  1  0  -0.382092  0  3.727216  0  0  -0.463975  0  3.962844  0  0  -0.466856  0  3.967231  0  0  -0.247457  -0.461379  0  3.959413  0
C  C29  1  0.50360893  0.26432671  0.70854850  1  0  -0.382104  0  3.727422  0  0  -0.464041  0  3.963021  0  0  -0.46692  0  3.967402  0  0  -0.24745  -0.461434  0  3.959568  0
C  C30  1  0.49639188  0.23566439  0.20855546  1  0  -0.381965  0  3.727224  0  0  -0.463873  0  3.962917  0  0  -0.466767  0  3.96729  0  0  -0.247438  -0.461295  0  3.959501  0
C  C31  1  0.49639338  0.76433089  0.20855659  1  0  -0.382233  0  3.727185  0  0  -0.46416  0  3.962865  0  0  -0.467045  0  3.967232  0  0  -0.247557  -0.461573  0  3.959449  0
C  C32  1  0.72161317  0.61637695  0.53002807  1  0  -0.239989  0  3.667127  0  0  -0.261232  0  3.900399  0  0  -0.272407  0  3.921605  0  0  -0.09757  -0.253777  0  3.887211  0
C  C33  1  0.72161467  0.38362141  0.53003022  1  0  -0.240122  0  3.667211  0  0  -0.261383  0  3.900406  0  0  -0.272559  0  3.921615  0  0  -0.097634  -0.253932  0  3.88722  0
C  C34  1  0.27844680  0.11637946  0.03003065  1  0  -0.23996  0  3.667087  0  0  -0.261208  0  3.900304  0  0  -0.272408  0  3.921501  0  0  -0.097574  -0.253743  0  3.887128  0
C  C35  1  0.27843204  0.88362223  0.03002523  1  0  -0.239843  0  3.667054  0  0  -0.261142  0  3.900228  0  0  -0.272335  0  3.921428  0  0  -0.097509  -0.253682  0  3.887056  0
C  C36  1  0.79394414  0.49999602  0.47149834  1  0  0.219293  0  3.750859  0  0  0.241232  0  3.986998  0  0  0.25013  0  4.007383  0  0  0.006978  0.23515  0  3.972819  0
C  C37  1  0.20605988  0.00000228  0.97147922  1  0  0.218977  0  3.750909  0  0  0.241188  0  3.986699  0  0  0.25009  0  4.007097  0  0  0.007074  0.235108  0  3.972523  0
C  C38  1  0.93734553  0.50000040  0.35003938  1  0  -0.344324  0  3.708381  0  0  -0.424681  0  3.933607  0  0  -0.428224  0  3.942107  0  0  -0.240773  -0.421735  0  3.927355  0
C  C39  1  0.06268324  0.00000311  0.85002008  1  0  -0.344396  0  3.708919  0  0  -0.424755  0  3.933975  0  0  -0.428311  0  3.942496  0  0  -0.240834  -0.421811  0  3.927721  0
I  I40  1  0.92226996  0.49999821  0.99735656  1  0  -0.452932  0  1.634089  0  0  -0.377216  0  2.091079  0  0  -0.398191  0  2.047104  0  0  -0.196641  -0.36184  0  2.124436  0
I  I41  1  0.07771441  0.99999951  0.49735889  1  0  -0.452966  0  1.634238  0  0  -0.3772  0  2.091128  0  0  -0.398141  0  2.047104  0  0  -0.1966  -0.361844  0  2.124529  0
N  N42  1  0.52163427  0.49999694  0.69853751  1  0  -0.392138  0  3.313749  0  0  -0.322825  0  3.595311  0  0  -0.340706  0  3.603397  0  0  -0.377191  -0.311084  0  3.588861  0
N  N43  1  0.47839386  0.00000020  0.19853313  1  0  -0.391928  0  3.313254  0  0  -0.322521  0  3.594834  0  0  -0.340379  0  3.602875  0  0  -0.377037  -0.310769  0  3.588376  0
