# generated using pymatgen
data_CuH8C12(SN2)2
_symmetry_space_group_name_H-M   'P 1'
_cell_length_a   7.94595080
_cell_length_b   8.64682150
_cell_length_c   10.35457512
_cell_angle_alpha   88.22846758
_cell_angle_beta   86.16294282
_cell_angle_gamma   62.66111361
_symmetry_Int_Tables_number   1
_chemical_formula_structural   CuH8C12(SN2)2
_chemical_formula_sum   'Cu2 H16 C24 S4 N8'
_cell_volume   630.55431405
_cell_formula_units_Z   2
loop_
 _symmetry_equiv_pos_site_id
 _symmetry_equiv_pos_as_xyz
  1  'x, y, z'
loop_
 _atom_site_type_symbol
 _atom_site_label
 _atom_site_symmetry_multiplicity
 _atom_site_fract_x
 _atom_site_fract_y
 _atom_site_fract_z
 _atom_site_occupancy
 _atom_site_pbe_cm5_charge
 _atom_site_pbe_ddec_charge
 _atom_site_pbe_ddec_spin_density
 _atom_site_pbe_ddec_sum_bond_order
 _atom_site_pbe_magmom
Cu  Cu0  1  0.10138946  0.79689998  0.24985042  1  0.787947  0.741498  -0.737324  2.51035  -0.577
Cu  Cu1  1  0.89861086  0.20309843  0.75015741  1  0.787966  0.741538  -0.737345  2.510323  -0.577
H  H2  1  0.29834515  0.15811783  0.29857363  1  0.109722  0.121459  -0.000977  1.011711  -0.001
H  H3  1  0.54300900  0.15811629  0.20140873  1  0.109829  0.12149  -0.000971  1.011186  -0.001
H  H4  1  0.70165690  0.84188188  0.70142536  1  0.109721  0.121454  -0.000977  1.011686  -0.001
H  H5  1  0.45698791  0.84188082  0.79858292  1  0.109841  0.121515  -0.00097  1.011202  -0.001
H  H6  1  0.99115546  0.18720315  0.39314135  1  0.10777  0.11363  7e-05  1.030178  0.0
H  H7  1  0.82132526  0.18717010  0.10715151  1  0.107526  0.112769  7.2e-05  1.030408  0.0
H  H8  1  0.00884402  0.81279656  0.60685490  1  0.107792  0.113643  7e-05  1.030236  0.0
H  H9  1  0.17867476  0.81282832  0.89283798  1  0.107502  0.112738  7.2e-05  1.030526  0.0
H  H10  1  0.71793194  0.48580946  0.42953982  1  0.097515  0.108491  -0.000688  1.033214  -0.001
H  H11  1  0.79605062  0.48587238  0.07088132  1  0.097252  0.107803  -0.000684  1.033727  -0.001
H  H12  1  0.28206621  0.51419026  0.57045265  1  0.097493  0.108455  -0.000688  1.03326  -0.001
H  H13  1  0.20394304  0.51413124  0.92911033  1  0.097249  0.107784  -0.000684  1.033785  -0.001
H  H14  1  0.76840055  0.74587763  0.36821543  1  0.114069  0.094123  -0.001779  1.020706  -0.002
H  H15  1  0.48561888  0.74587829  0.13208049  1  0.113798  0.093564  -0.001776  1.02134  -0.002
H  H16  1  0.23160024  0.25412208  0.63178363  1  0.114018  0.094053  -0.001779  1.02068  -0.002
H  H17  1  0.51437813  0.25412142  0.86791880  1  0.113827  0.093639  -0.001775  1.021267  -0.002
C  C18  1  0.19521560  0.43686519  0.27979556  1  0.118307  0.160788  -0.000797  4.004154  -0.002
C  C19  1  0.36757361  0.43684819  0.22021712  1  0.118565  0.160828  -0.0008  4.003502  -0.002
C  C20  1  0.80478709  0.56313582  0.72020528  1  0.118317  0.16078  -0.000798  4.00404  -0.002
C  C21  1  0.63242404  0.56315022  0.77978218  1  0.118561  0.160839  -0.0008  4.003576  -0.002
C  C22  1  0.17874670  0.28669194  0.31357262  1  -0.069556  -0.132875  -0.003436  3.910578  -0.004
C  C23  1  0.53414173  0.28666945  0.18646481  1  -0.069785  -0.133302  -0.003441  3.908294  -0.004
C  C24  1  0.82125531  0.71331038  0.68642629  1  -0.069513  -0.132777  -0.003435  3.9104  -0.004
C  C25  1  0.46585581  0.71333156  0.81352958  1  -0.069786  -0.133411  -0.003441  3.908266  -0.004
C  C26  1  0.00640623  0.30309005  0.36757690  1  -0.059503  -0.001399  0.004443  3.899679  0.002
C  C27  1  0.69018419  0.30312243  0.13266495  1  -0.059348  -0.000103  0.004419  3.898042  0.002
C  C28  1  0.99359389  0.69691097  0.63242120  1  -0.059527  -0.001458  0.004443  3.899789  0.002
C  C29  1  0.30980898  0.69687728  0.86733169  1  -0.059299  -1.6e-05  0.004419  3.897925  0.002
C  C30  1  0.85469379  0.46863838  0.38726985  1  -0.081229  -0.116842  -0.004834  3.942415  -0.006
C  C31  1  0.67642630  0.46866522  0.11304567  1  -0.081054  -0.116428  -0.004835  3.941446  -0.006
C  C32  1  0.14530502  0.53136263  0.61272543  1  -0.081184  -0.116697  -0.004834  3.942412  -0.006
C  C33  1  0.32357257  0.53133319  0.88695066  1  -0.081057  -0.116368  -0.004834  3.941528  -0.006
C  C34  1  0.88097364  0.61339790  0.35352481  1  0.04797  0.103257  0.001638  3.919811  0.001
C  C35  1  0.50540481  0.61343362  0.14668695  1  0.048409  0.103798  0.001624  3.919664  0.001
C  C36  1  0.11902519  0.38660572  0.64647426  1  0.047982  0.103231  0.001637  3.919851  0.001
C  C37  1  0.49459221  0.38656610  0.85331331  1  0.048359  0.103662  0.001624  3.919647  0.001
C  C38  1  0.83371565  0.94143121  0.93222096  1  0.151277  0.286996  0.001005  4.328393  -0.005
C  C39  1  0.22511444  0.94150545  0.56813373  1  0.151722  0.286858  0.00099  4.329345  -0.005
C  C40  1  0.16629489  0.05856199  0.06778930  1  0.15116  0.286735  0.001004  4.328606  -0.005
C  C41  1  0.77489334  0.05849296  0.43186687  1  0.151872  0.287134  0.000993  4.329496  -0.005
S  S42  1  0.81854569  0.80911485  0.04022864  1  -0.156626  -0.332058  -0.005054  2.332507  -0.008
S  S43  1  0.37305622  0.80936390  0.46028500  1  -0.157112  -0.332261  -0.004627  2.331056  -0.008
S  S44  1  0.18147061  0.19087185  0.95978050  1  -0.156564  -0.331916  -0.005049  2.332659  -0.008
S  S45  1  0.62694133  0.19064753  0.53971970  1  -0.157202  -0.332478  -0.004634  2.330734  -0.008
N  N46  1  0.04741343  0.59711886  0.30123029  1  -0.339927  -0.261398  -0.074941  3.616768  -0.099
N  N47  1  0.35519948  0.59709748  0.19880950  1  -0.33977  -0.261504  -0.074744  3.618045  -0.099
N  N48  1  0.95258935  0.40287955  0.69877352  1  -0.339949  -0.261458  -0.074936  3.616804  -0.099
N  N49  1  0.64480257  0.40290223  0.80118949  1  -0.339766  -0.261482  -0.07473  3.618023  -0.099
N  N50  1  0.84579661  0.03767445  0.85211843  1  -0.433465  -0.514218  -0.046354  3.392142  -0.057
N  N51  1  0.11637543  0.03773851  0.64802922  1  -0.434317  -0.514953  -0.0462  3.39379  -0.057
N  N52  1  0.15420641  0.96232136  0.14789704  1  -0.433407  -0.514045  -0.046356  3.392065  -0.057
N  N53  1  0.88362036  0.96227162  0.35198238  1  -0.434393  -0.515104  -0.046197  3.394395  -0.057
