# generated using pymatgen
data_CdH12C19(SN4)2
_symmetry_space_group_name_H-M   'P 1'
_cell_length_a   8.77614196
_cell_length_b   9.91480659
_cell_length_c   12.20444703
_cell_angle_alpha   73.33997283
_cell_angle_beta   75.13152510
_cell_angle_gamma   79.80862861
_symmetry_Int_Tables_number   1
_chemical_formula_structural   CdH12C19(SN4)2
_chemical_formula_sum   'Cd2 H24 C38 S4 N16'
_cell_volume   977.16557355
_cell_formula_units_Z   2
loop_
 _symmetry_equiv_pos_site_id
 _symmetry_equiv_pos_as_xyz
  1  'x, y, z'
loop_
 _atom_site_type_symbol
 _atom_site_label
 _atom_site_symmetry_multiplicity
 _atom_site_fract_x
 _atom_site_fract_y
 _atom_site_fract_z
 _atom_site_occupancy
 _atom_site_hle17_bader_spin_density
 _atom_site_hle17_ddec_charge
 _atom_site_hle17_ddec_spin_density
 _atom_site_hle17_ddec_sum_bond_order
 _atom_site_hle17_magmom
 _atom_site_hse06_10hf_bader_spin_density
 _atom_site_hse06_10hf_ddec_charge
 _atom_site_hse06_10hf_ddec_spin_density
 _atom_site_hse06_10hf_ddec_sum_bond_order
 _atom_site_hse06_10hf_magmom
 _atom_site_hse06_bader_spin_density
 _atom_site_hse06_ddec_charge
 _atom_site_hse06_ddec_spin_density
 _atom_site_hse06_ddec_sum_bond_order
 _atom_site_hse06_magmom
 _atom_site_pbe_bader_spin_density
 _atom_site_pbe_cm5_charge
 _atom_site_pbe_ddec_charge
 _atom_site_pbe_ddec_spin_density
 _atom_site_pbe_ddec_sum_bond_order
 _atom_site_pbe_magmom
Cd  Cd0  1  0.63600530  0.80574899  0.68453064  1  0  0.990433  0  1.977468  0  0  0.794844  0  2.454509  0  0  0.842176  0  2.414726  0  0  0.771797  0.762388  0  2.480256  0
Cd  Cd1  1  0.36399376  0.19425178  0.31547353  1  0  0.990483  0  1.97745  0  0  0.794909  0  2.454491  0  0  0.842238  0  2.414708  0  0  0.771822  0.76245  0  2.480246  0
H  H2  1  0.90927561  0.92269401  0.44221294  1  0  0.07541  0  0.940264  0  0  0.084696  0  1.0043  0  0  0.086727  0  1.00284  0  0  0.114258  0.083212  0  1.005565  0
H  H3  1  0.09073114  0.07730144  0.55778448  1  0  0.075406  0  0.940272  0  0  0.084675  0  1.004333  0  0  0.086706  0  1.002873  0  0  0.114243  0.08319  0  1.005593  0
H  H4  1  0.16895542  0.84066408  0.32133416  1  0  0.103374  0  0.979328  0  0  0.108077  0  1.04879  0  0  0.111316  0  1.04786  0  0  0.100024  0.105637  0  1.049791  0
H  H5  1  0.83105060  0.15932822  0.67866742  1  0  0.103404  0  0.97934  0  0  0.108115  0  1.048782  0  0  0.111338  0  1.047868  0  0  0.100049  0.105672  0  1.049783  0
H  H6  1  0.31131702  0.60447644  0.40576346  1  0  0.100728  0  0.934668  0  0  0.11213  0  0.993347  0  0  0.114815  0  0.991784  0  0  0.105892  0.11069  0  0.993392  0
H  H7  1  0.68868545  0.39551584  0.59423716  1  0  0.100743  0  0.934649  0  0  0.112149  0  0.993331  0  0  0.114835  0  0.991764  0  0  0.105894  0.110706  0  0.993377  0
H  H8  1  0.18860809  0.45959049  0.60106618  1  0  0.108304  0  0.978228  0  0  0.114765  0  1.045689  0  0  0.117767  0  1.045541  0  0  0.101101  0.112669  0  1.04553  0
H  H9  1  0.81139189  0.54040285  0.39893548  1  0  0.10832  0  0.978218  0  0  0.114768  0  1.04569  0  0  0.117773  0  1.04554  0  0  0.101109  0.112671  0  1.045535  0
H  H10  1  0.05918893  0.27202802  0.03899811  1  0  0.106409  0  0.952519  0  0  0.116669  0  1.012481  0  0  0.118716  0  1.011987  0  0  0.110266  0.115313  0  1.012537  0
H  H11  1  0.94081035  0.72797059  0.96099997  1  0  0.106367  0  0.95255  0  0  0.116625  0  1.012526  0  0  0.118671  0  1.012032  0  0  0.110252  0.115272  0  1.01258  0
H  H12  1  0.00818961  0.12910394  0.24355926  1  0  0.103532  0  0.96879  0  0  0.112781  0  1.0292  0  0  0.115083  0  1.029821  0  0  0.104273  0.111238  0  1.029017  0
H  H13  1  0.99180877  0.87089256  0.75644113  1  0  0.103515  0  0.968871  0  0  0.112756  0  1.029281  0  0  0.115058  0  1.029904  0  0  0.104262  0.111217  0  1.029093  0
H  H14  1  0.72670200  0.09768252  0.35363470  1  0  0.072062  0  0.97096  0  0  0.081297  0  1.036556  0  0  0.082943  0  1.035307  0  0  0.109803  0.080047  0  1.037692  0
H  H15  1  0.27329377  0.90231610  0.64636732  1  0  0.072007  0  0.970933  0  0  0.081229  0  1.036551  0  0  0.082875  0  1.035302  0  0  0.109781  0.079976  0  1.03769  0
H  H16  1  0.55207413  0.32508537  0.06111517  1  0  0.094406  0  0.947342  0  0  0.09351  0  1.026598  0  0  0.097103  0  1.022211  0  0  0.120702  0.090829  0  1.029805  0
H  H17  1  0.44792226  0.67491749  0.93888490  1  0  0.094423  0  0.947324  0  0  0.093504  0  1.026639  0  0  0.097097  0  1.022249  0  0  0.120702  0.090824  0  1.029844  0
H  H18  1  0.44146801  0.46088478  0.83705376  1  0  0.07489  0  0.966175  0  0  0.076907  0  1.039791  0  0  0.079774  0  1.037409  0  0  0.107795  0.074604  0  1.042109  0
H  H19  1  0.55852931  0.53912022  0.16294809  1  0  0.07495  0  0.966145  0  0  0.076952  0  1.039777  0  0  0.079817  0  1.037395  0  0  0.107802  0.07465  0  1.042103  0
H  H20  1  0.53770090  0.21359099  0.82051320  1  0  0.099125  0  0.985774  0  0  0.105616  0  1.052426  0  0  0.108783  0  1.052143  0  0  0.094629  0.103513  0  1.052537  0
H  H21  1  0.46230319  0.78641613  0.17948359  1  0  0.099112  0  0.985817  0  0  0.105572  0  1.052488  0  0  0.108738  0  1.052202  0  0  0.09463  0.103467  0  1.052595  0
H  H22  1  0.34619017  0.06499673  0.80266658  1  0  0.097642  0  0.950121  0  0  0.106866  0  1.010513  0  0  0.108652  0  1.010455  0  0  0.104614  0.105364  0  1.011051  0
H  H23  1  0.65382062  0.93500403  0.19732799  1  0  0.097574  0  0.950173  0  0  0.106868  0  1.010489  0  0  0.108655  0  1.010427  0  0  0.104617  0.105365  0  1.011025  0
H  H24  1  0.06023009  0.16969779  0.80795741  1  0  0.114035  0  0.975537  0  0  0.117778  0  1.048243  0  0  0.121598  0  1.047148  0  0  0.097606  0.114638  0  1.0501  0
H  H25  1  0.93977481  0.83030297  0.19203991  1  0  0.114056  0  0.97548  0  0  0.117798  0  1.048208  0  0  0.121617  0  1.047121  0  0  0.097614  0.114663  0  1.050054  0
C  C26  1  0.97561207  0.82084669  0.47397641  1  0  0.132427  0  3.718219  0  0  0.104375  0  3.969835  0  0  0.110331  0  3.988065  0  0  0.048978  0.100437  0  3.957383  0
C  C27  1  0.02439219  0.17914981  0.52602041  1  0  0.132435  0  3.718319  0  0  0.104376  0  3.969904  0  0  0.110333  0  3.988131  0  0  0.049  0.100442  0  3.957443  0
C  C28  1  0.11981682  0.77511724  0.40747587  1  0  -0.099839  0  3.699198  0  0  -0.113485  0  3.948815  0  0  -0.118587  0  3.968608  0  0  -0.079089  -0.109739  0  3.935359  0
C  C29  1  0.88018760  0.22487823  0.59252444  1  0  -0.099909  0  3.699397  0  0  -0.113529  0  3.948962  0  0  -0.118618  0  3.968767  0  0  -0.079098  -0.109784  0  3.935504  0
C  C30  1  0.19792436  0.64400613  0.45426451  1  0  0.00611  0  3.701878  0  0  -0.012231  0  3.95327  0  0  -0.009388  0  3.970615  0  0  -0.065442  -0.014271  0  3.940995  0
C  C31  1  0.80207994  0.35599040  0.54573721  1  0  0.00614  0  3.701974  0  0  -0.012223  0  3.953353  0  0  -0.009381  0  3.970698  0  0  -0.065454  -0.014259  0  3.941073  0
C  C32  1  0.13009554  0.56304258  0.56431447  1  0  -0.125344  0  3.68605  0  0  -0.149376  0  3.936962  0  0  -0.154246  0  3.956443  0  0  -0.079308  -0.145434  0  3.923555  0
C  C33  1  0.86990441  0.43695073  0.43568392  1  0  -0.125419  0  3.686117  0  0  -0.149438  0  3.937023  0  0  -0.154313  0  3.956506  0  0  -0.07934  -0.14549  0  3.923619  0
C  C34  1  0.98483994  0.61660189  0.62489320  1  0  0.162226  0  3.783046  0  0  0.162319  0  4.027853  0  0  0.167318  0  4.047543  0  0  0.121214  0.158632  0  4.015073  0
C  C35  1  0.01516053  0.38339673  0.37510629  1  0  0.162348  0  3.783161  0  0  0.162439  0  4.027933  0  0  0.167441  0  4.047625  0  0  0.121249  0.158737  0  4.015168  0
C  C36  1  0.89624647  0.54055127  0.73820669  1  0  0.250253  0  3.70737  0  0  0.213404  0  3.972987  0  0  0.226328  0  3.986689  0  0  0.233589  0.204712  0  3.963659  0
C  C37  1  0.10375270  0.45944842  0.26179361  1  0  0.250107  0  3.707586  0  0  0.21327  0  3.973168  0  0  0.226186  0  3.986882  0  0  0.23355  0.204582  0  3.963839  0
C  C38  1  0.81738231  0.40717395  0.91551058  1  0  0.282924  0  3.693962  0  0  0.245901  0  3.96802  0  0  0.259756  0  3.981753  0  0  0.234968  0.237406  0  3.956963  0
C  C39  1  0.18261659  0.59282787  0.08449090  1  0  0.282883  0  3.694121  0  0  0.245866  0  3.968132  0  0  0.259721  0  3.981866  0  0  0.234947  0.237376  0  3.957067  0
C  C40  1  0.80881176  0.31224179  0.03242600  1  0  -0.038378  0  3.763416  0  0  -0.014822  0  4.001087  0  0  -0.021047  0  4.019983  0  0  0.001667  -0.011259  0  3.988139  0
C  C41  1  0.19118269  0.68775789  0.96757520  1  0  -0.038436  0  3.763536  0  0  -0.014831  0  4.001137  0  0  -0.021057  0  4.020033  0  0  0.001676  -0.01127  0  3.988197  0
C  C42  1  0.93791679  0.25420160  0.08503294  1  0  -0.009792  0  3.654927  0  0  -0.0481  0  3.915557  0  0  -0.041712  0  3.929383  0  0  -0.058846  -0.051886  0  3.906485  0
C  C43  1  0.06208104  0.74579913  0.91496573  1  0  -0.009678  0  3.655015  0  0  -0.048005  0  3.91564  0  0  -0.041612  0  3.929462  0  0  -0.058821  -0.051799  0  3.906579  0
C  C44  1  0.90939000  0.17414161  0.20101982  1  0  -0.109278  0  3.739527  0  0  -0.122447  0  3.998353  0  0  -0.129839  0  4.019349  0  0  -0.08498  -0.118653  0  3.985984  0
C  C45  1  0.09060680  0.82585807  0.79898011  1  0  -0.109374  0  3.739627  0  0  -0.12254  0  3.998463  0  0  -0.129933  0  4.019458  0  0  -0.085003  -0.118748  0  3.986093  0
C  C46  1  0.75456889  0.15618454  0.26189221  1  0  0.122746  0  3.708181  0  0  0.090482  0  3.95796  0  0  0.098162  0  3.976537  0  0  0.042316  0.085182  0  3.946831  0
C  C47  1  0.24542688  0.84381408  0.73810899  1  0  0.122993  0  3.70795  0  0  0.090744  0  3.957723  0  0  0.098427  0  3.9763  0  0  0.042415  0.08545  0  3.946581  0
C  C48  1  0.65580759  0.28409830  0.09919748  1  0  0.131333  0  3.630513  0  0  0.09186  0  3.880556  0  0  0.101222  0  3.894812  0  0  0.06464  0.085797  0  3.871327  0
C  C49  1  0.34418646  0.71590457  0.90080468  1  0  0.13129  0  3.630487  0  0  0.091782  0  3.880551  0  0  0.101144  0  3.894811  0  0  0.064595  0.085717  0  3.871319  0
C  C50  1  0.11079360  0.36935984  0.82187677  1  0  0.309436  0  3.813607  0  0  0.2944  0  4.072714  0  0  0.305172  0  4.089611  0  0  0.207515  0.287004  0  4.061479  0
C  C51  1  0.88920661  0.63064092  0.17812390  1  0  0.30938  0  3.813767  0  0  0.294409  0  4.072774  0  0  0.305183  0  4.089668  0  0  0.20749  0.287022  0  4.061533  0
C  C52  1  0.36114481  0.39424451  0.82804186  1  0  0.133127  0  3.706561  0  0  0.112235  0  3.964648  0  0  0.11771  0  3.981201  0  0  0.04477  0.108907  0  3.953174  0
C  C53  1  0.63885394  0.60575836  0.17195858  1  0  0.133045  0  3.706729  0  0  0.112162  0  3.964792  0  0  0.117639  0  3.981342  0  0  0.044731  0.108823  0  3.953333  0
C  C54  1  0.41496457  0.25627951  0.81801353  1  0  -0.107709  0  3.704467  0  0  -0.120255  0  3.945769  0  0  -0.126743  0  3.967134  0  0  -0.082068  -0.116206  0  3.931203  0
C  C55  1  0.58503745  0.74372549  0.18198579  1  0  -0.107705  0  3.704412  0  0  -0.120221  0  3.945746  0  0  -0.126705  0  3.967103  0  0  -0.082075  -0.11616  0  3.931169  0
C  C56  1  0.30784917  0.17328406  0.80957798  1  0  0.014466  0  3.72523  0  0  -0.000827  0  3.970222  0  0  0.002032  0  3.989611  0  0  -0.06569  -0.002114  0  3.957154  0
C  C57  1  0.69215782  0.82671883  0.19041926  1  0  0.014596  0  3.725122  0  0  -0.000748  0  3.970078  0  0  0.002099  0  3.9895  0  0  -0.06563  -0.00203  0  3.957001  0
C  C58  1  0.15027537  0.23069683  0.81120610  1  0  -0.193152  0  3.71653  0  0  -0.213648  0  3.967251  0  0  -0.22036  0  3.985938  0  0  -0.086823  -0.209235  0  3.955305  0
C  C59  1  0.84972836  0.76930392  0.18879227  1  0  -0.19314  0  3.716597  0  0  -0.213672  0  3.967322  0  0  -0.220387  0  3.985995  0  0  -0.08683  -0.209271  0  3.955394  0
C  C60  1  0.45765025  0.85830386  0.46042140  1  0  0.307476  0  4.02596  0  0  0.288198  0  4.324788  0  0  0.31008  0  4.340301  0  0  0.148934  0.273664  0  4.313911  0
C  C61  1  0.54233635  0.14169261  0.53958204  1  0  0.307542  0  4.025766  0  0  0.288268  0  4.324587  0  0  0.310147  0  4.340101  0  0  0.149047  0.273729  0  4.313723  0
C  C62  1  0.71987208  0.94892439  0.87495201  1  0  0.295803  0  4.07224  0  0  0.281167  0  4.366097  0  0  0.304329  0  4.380415  0  0  0.136304  0.265779  0  4.356278  0
C  C63  1  0.28013450  0.05108167  0.12504374  1  0  0.295785  0  4.072022  0  0  0.281152  0  4.365886  0  0  0.304314  0  4.380206  0  0  0.136278  0.265769  0  4.356056  0
S  S64  1  0.55269442  0.70879801  0.51713816  1  0  -0.342318  0  2.138302  0  0  -0.315737  0  2.463902  0  0  -0.333092  0  2.460469  0  0  -0.142942  -0.303626  0  2.461898  0
S  S65  1  0.44729430  0.29120061  0.48286765  1  0  -0.342329  0  2.138297  0  0  -0.315755  0  2.463914  0  0  -0.333104  0  2.460471  0  0  -0.142963  -0.303644  0  2.461916  0
S  S66  1  0.76905988  0.06512556  0.92533479  1  0  -0.373265  0  2.097635  0  0  -0.351577  0  2.396412  0  0  -0.370593  0  2.39707  0  0  -0.160731  -0.339246  0  2.395981  0
S  S67  1  0.23094097  0.93487944  0.07466557  1  0  -0.373195  0  2.097612  0  0  -0.351496  0  2.396384  0  0  -0.370511  0  2.39704  0  0  -0.160675  -0.339168  0  2.395949  0
N  N68  1  0.90965081  0.74467339  0.57996178  1  0  -0.357927  0  3.227184  0  0  -0.291324  0  3.480873  0  0  -0.308477  0  3.500096  0  0  -0.31825  -0.279863  0  3.467862  0
N  N69  1  0.09035199  0.25532523  0.42003481  1  0  -0.357969  0  3.227231  0  0  -0.291358  0  3.480914  0  0  -0.308511  0  3.500135  0  0  -0.318266  -0.279891  0  3.4679  0
N  N70  1  0.74073076  0.57144523  0.77365856  1  0  -0.279981  0  3.165447  0  0  -0.226293  0  3.455419  0  0  -0.240661  0  3.471036  0  0  -0.229165  -0.216072  0  3.443461  0
N  N71  1  0.25927076  0.42855446  0.22634048  1  0  -0.279892  0  3.165401  0  0  -0.22621  0  3.455366  0  0  -0.240577  0  3.470987  0  0  -0.229143  -0.215988  0  3.443405  0
N  N72  1  0.69114690  0.49032862  0.88333160  1  0  -0.232607  0  2.933809  0  0  -0.215709  0  3.220068  0  0  -0.225175  0  3.234938  0  0  -0.200864  -0.208708  0  3.208091  0
N  N73  1  0.30885435  0.50967320  0.11666781  1  0  -0.232621  0  2.933786  0  0  -0.215732  0  3.220038  0  0  -0.225197  0  3.234908  0  0  -0.200854  -0.20873  0  3.208055  0
N  N74  1  0.94941172  0.43455310  0.82504025  1  0  -0.201148  0  3.447111  0  0  -0.120562  0  3.665399  0  0  -0.13706  0  3.68458  0  0  -0.199666  -0.109696  0  3.65203  0
N  N75  1  0.05058954  0.56544873  0.17496079  1  0  -0.201056  0  3.447285  0  0  -0.120483  0  3.66552  0  0  -0.136977  0  3.6847  0  0  -0.199626  -0.109621  0  3.652148  0
N  N76  1  0.62972609  0.21016584  0.21120175  1  0  -0.326775  0  3.278961  0  0  -0.247432  0  3.54347  0  0  -0.267554  0  3.562159  0  0  -0.329432  -0.233805  0  3.5314  0
N  N77  1  0.37027046  0.78983597  0.78880018  1  0  -0.326872  0  3.278879  0  0  -0.247499  0  3.543341  0  0  -0.267622  0  3.56203  0  0  -0.329453  -0.233883  0  3.531295  0
N  N78  1  0.21021799  0.45149863  0.82980770  1  0  -0.366131  0  3.071603  0  0  -0.33945  0  3.339526  0  0  -0.351206  0  3.356348  0  0  -0.320606  -0.331127  0  3.328285  0
N  N79  1  0.78977724  0.54850424  0.17019424  1  0  -0.366163  0  3.071752  0  0  -0.339504  0  3.339642  0  0  -0.351263  0  3.356463  0  0  -0.320615  -0.331181  0  3.328407  0
N  N80  1  0.38303714  0.96581908  0.42246173  1  0  -0.550717  0  2.883944  0  0  -0.491521  0  3.163056  0  0  -0.513786  0  3.170023  0  0  -0.40125  -0.476506  0  3.157789  0
N  N81  1  0.61695379  0.03418060  0.57754177  1  0  -0.550756  0  2.883821  0  0  -0.491558  0  3.162927  0  0  -0.513826  0  3.1699  0  0  -0.40132  -0.476539  0  3.157663  0
N  N82  1  0.68780970  0.86064747  0.83860102  1  0  -0.574314  0  2.87559  0  0  -0.515488  0  3.152481  0  0  -0.538367  0  3.158441  0  0  -0.422524  -0.500218  0  3.14747  0
N  N83  1  0.31218956  0.13936070  0.16139807  1  0  -0.574389  0  2.875363  0  0  -0.515578  0  3.152283  0  0  -0.538458  0  3.158245  0  0  -0.422567  -0.500313  0  3.147268  0
