# generated using pymatgen
data_Zn2H33C47N2O9
_symmetry_space_group_name_H-M   'P 1'
_cell_length_a   16.56858807
_cell_length_b   17.86611360
_cell_length_c   31.07545560
_cell_angle_alpha   90.06755608
_cell_angle_beta   90.54526741
_cell_angle_gamma   89.90697962
_symmetry_Int_Tables_number   1
_chemical_formula_structural   Zn2H33C47N2O9
_chemical_formula_sum   'Zn4 H66 C94 N4 O18'
_cell_volume   9198.40575591
_cell_formula_units_Z   2
loop_
 _symmetry_equiv_pos_site_id
 _symmetry_equiv_pos_as_xyz
  1  'x, y, z'
loop_
 _atom_site_type_symbol
 _atom_site_label
 _atom_site_symmetry_multiplicity
 _atom_site_fract_x
 _atom_site_fract_y
 _atom_site_fract_z
 _atom_site_occupancy
 _atom_site_pbe_bader_charge
 _atom_site_pbe_bader_spin_density
 _atom_site_pbe_cm5_charge
 _atom_site_pbe_ddec_charge
 _atom_site_pbe_ddec_spin_density
 _atom_site_pbe_ddec_sum_bond_order
 _atom_site_pbe_magmom
Zn  Zn0  1  0.57777309  0.50188286  0.50502192  1  1.286501  0  0.66801  0.823634  0  2.394693  0
Zn  Zn1  1  0.40795199  0.48818604  0.49922575  1  1.281271  0  0.670905  0.823243  0  2.397337  0
Zn  Zn2  1  0.42228826  0.50497342  0.92395392  1  1.286552  0  0.667797  0.823059  0  2.394119  0
Zn  Zn3  1  0.59212121  0.49041863  0.92962290  1  1.283217  0  0.670986  0.823272  0  2.397246  0
H  H4  1  0.28717176  0.57241857  0.53986850  1  0.112339  0  0.128494  0.102949  0  0.993146  0
H  H5  1  0.13672620  0.58653371  0.54417963  1  0.070772  0  0.117921  0.128807  0  0.978571  0
H  H6  1  0.11744697  0.40073584  0.45543243  1  0.0949  0  0.114184  0.12826  0  0.98415  0
H  H7  1  0.86637482  0.58418650  0.55622029  1  0.091233  0  0.114341  0.128891  0  0.983383  0
H  H8  1  0.70042968  0.43518448  0.45660556  1  0.140273  0  0.129393  0.104858  0  0.984022  0
H  H9  1  0.85116392  0.42721681  0.45050197  1  0.084471  0  0.117475  0.127808  0  0.979032  0
H  H10  1  0.60687671  0.72354967  0.49329419  1  0.089449  0  0.102716  0.106491  0  1.012095  0
H  H11  1  0.62160148  0.86248928  0.49115026  1  0.074885  0  0.10293  0.106391  0  0.993696  0
H  H12  1  0.36270429  0.88290005  0.49444133  1  0.056646  0  0.10029  0.104996  0  1.003626  0
H  H13  1  0.63914070  0.11454152  0.50160634  1  0.040942  0  0.100591  0.105932  0  1.003552  0
H  H14  1  0.38518756  0.25992686  0.50366419  1  0.087279  0  0.100554  0.1014  0  1.030771  0
H  H15  1  0.37931551  0.12069158  0.49860958  1  0.071526  0  0.102792  0.106162  0  0.993983  0
H  H16  1  0.39947707  0.49886500  0.78695461  1  0.048669  0  0.098142  0.090514  0  1.054569  0
H  H17  1  0.65709424  0.50232476  0.79571534  1  0.105407  0  0.108861  0.134495  0  0.991971  0
H  H18  1  0.60057740  0.49743080  0.64188856  1  0.014819  0  0.097948  0.089793  0  1.055123  0
H  H19  1  0.34294557  0.50089323  0.63308144  1  0.094683  0  0.108842  0.134325  0  0.992359  0
H  H20  1  0.37329524  0.48184476  0.06303910  1  0.071417  0  0.101496  0.104169  0  1.002394  0
H  H21  1  0.37060643  0.48569737  0.14341985  1  0.059581  0  0.102711  0.106814  0  0.995056  0
H  H22  1  0.62243818  0.54506297  0.14433473  1  0.078296  0  0.10107  0.10639  0  1.001301  0
H  H23  1  0.37709683  0.54418327  0.28501297  1  0.079993  0  0.100913  0.106118  0  1.001533  0
H  H24  1  0.62686054  0.48061573  0.36575798  1  0.091887  0  0.101541  0.104128  0  1.002431  0
H  H25  1  0.62927253  0.48535490  0.28539306  1  0.106111  0  0.102664  0.107018  0  0.994397  0
H  H26  1  0.71289121  0.57356269  0.88883813  1  0.139487  0  0.128652  0.103669  0  0.992112  0
H  H27  1  0.86331770  0.58715052  0.88448440  1  0.107279  0  0.117833  0.128645  0  0.978057  0
H  H28  1  0.88263276  0.40227416  0.97365313  1  0.090279  0  0.114318  0.128559  0  0.984985  0
H  H29  1  0.13287131  0.58577527  0.87290408  1  0.092981  0  0.114581  0.129118  0  0.984123  0
H  H30  1  0.30032916  0.43818262  0.97253457  1  0.140289  0  0.129537  0.105169  0  0.984564  0
H  H31  1  0.14967720  0.42909755  0.97851504  1  0.078732  0  0.117638  0.128163  0  0.978919  0
H  H32  1  0.39398738  0.72666305  0.93591934  1  0.054909  0  0.102904  0.106474  0  1.012537  0
H  H33  1  0.37908257  0.86558905  0.93706213  1  0.040965  0  0.102758  0.105943  0  0.994739  0
H  H34  1  0.63782715  0.88544819  0.93220019  1  0.069273  0  0.100464  0.105034  0  1.002379  0
H  H35  1  0.36015383  0.11793802  0.92563943  1  0.035295  0  0.100304  0.105822  0  1.002899  0
H  H36  1  0.61437927  0.26224426  0.92373343  1  0.100483  0  0.100786  0.101789  0  1.028835  0
H  H37  1  0.61999657  0.12289517  0.92794203  1  0.046235  0  0.102711  0.106426  0  0.993758  0
H  H38  1  0.23789167  0.34837237  0.42599987  1  0.030638  0  0.09794  0.138895  0  0.990145  0
H  H39  1  0.33099923  0.39932152  0.43103835  1  0.111752  0  0.107793  0.169253  0  1.013624  0
H  H40  1  0.30490677  0.33351888  0.47048624  1  0.086744  0  0.105416  0.158063  0  0.997994  0
H  H41  1  0.68274985  0.65237756  0.55064153  1  0.084502  0  0.107717  0.162106  0  0.979944  0
H  H42  1  0.64999625  0.57286409  0.57879570  1  0.08642  0  0.103633  0.163015  0  1.022517  0
H  H43  1  0.74413965  0.61661314  0.59333350  1  0.012276  0  0.096226  0.135423  0  0.992368  0
H  H44  1  0.27843245  0.78404738  0.49482658  1  0.006266  0  0.085903  0.116398  0  1.008132  0
H  H45  1  0.31151464  0.69903339  0.46994668  1  0.075105  0  0.093412  0.138363  0  1.003602  0
H  H46  1  0.31325878  0.70693947  0.52628963  1  0.03935  0  0.091358  0.128548  0  1.001038  0
H  H47  1  0.68303072  0.29188963  0.47670009  1  0.049834  0  0.09013  0.12856  0  1.005582  0
H  H48  1  0.67389321  0.30117984  0.53264251  1  0.065397  0  0.094269  0.139542  0  0.991569  0
H  H49  1  0.71624456  0.21733638  0.51076250  1  0.028945  0  0.085261  0.11491  0  1.010091  0
H  H50  1  0.68075692  0.49563757  0.04891599  1  0.044283  0  0.090028  0.128897  0  1.01246  0
H  H51  1  0.63953829  0.58104032  0.03109905  1  0.076676  0  0.095009  0.142878  0  0.99728  0
H  H52  1  0.68894748  0.57613774  0.08242562  1  0.00942  0  0.086832  0.116955  0  1.006787  0
H  H53  1  0.31949675  0.49331860  0.38023493  1  0.042712  0  0.090327  0.129274  0  1.011326  0
H  H54  1  0.35989667  0.57879204  0.39838863  1  0.066264  0  0.095063  0.143101  0  0.997942  0
H  H55  1  0.31043082  0.57405232  0.34706135  1  0.012702  0  0.086653  0.11666  0  1.00768  0
H  H56  1  0.76229054  0.35028923  0.00302665  1  0.035245  0  0.097859  0.13917  0  0.989508  0
H  H57  1  0.66935230  0.40180793  0.99817744  1  0.135224  0  0.107648  0.169156  0  1.014841  0
H  H58  1  0.69476626  0.33552055  0.95873758  1  0.074169  0  0.105516  0.158599  0  0.996837  0
H  H59  1  0.31680824  0.65467281  0.87864522  1  0.054853  0  0.107707  0.162288  0  0.978796  0
H  H60  1  0.34900386  0.57519203  0.85009226  1  0.12815  0  0.103424  0.163046  0  1.022382  0
H  H61  1  0.25478757  0.61946350  0.83604266  1  0.009145  0  0.096143  0.13561  0  0.992825  0
H  H62  1  0.72222924  0.78590210  0.93632583  1  0.021641  0  0.086258  0.116888  0  1.007589  0
H  H63  1  0.68752475  0.69645002  0.95449704  1  0.090434  0  0.092217  0.13795  0  1.015186  0
H  H64  1  0.68965253  0.71627411  0.89908347  1  0.023855  0  0.091459  0.128289  0  0.99373  0
H  H65  1  0.31666936  0.29522079  0.95136964  1  0.048767  0  0.090257  0.128399  0  1.006273  0
H  H66  1  0.32561236  0.30498518  0.89545406  1  0.046245  0  0.093997  0.13872  0  0.992145  0
H  H67  1  0.28323690  0.22111744  0.91700761  1  0.00393  0  0.085116  0.114689  0  1.010269  0
H  H68  1  0.31972256  0.49896300  0.74584606  1  0.625326  0  0.323415  0.35304  0  0.91334  0
H  H69  1  0.68024877  0.49833315  0.68296052  1  0.61419  0  0.323583  0.353057  0  0.913473  0
C  C70  1  0.47774888  0.64094086  0.49817004  1  1.552454  0  0.214329  0.594634  0  4.16053  0
C  C71  1  0.48020629  0.49886405  0.58574439  1  1.597772  0  0.21549  0.595927  0  4.156943  0
C  C72  1  0.50911214  0.35000344  0.50438268  1  1.517754  0  0.214445  0.596581  0  4.158038  0
C  C73  1  0.50327086  0.49776079  0.41824187  1  1.585296  0  0.214508  0.598674  0  4.167115  0
C  C74  1  0.52280344  0.64355022  0.93063810  1  1.529625  0  0.215012  0.59665  0  4.157668  0
C  C75  1  0.51982816  0.50137555  0.84310156  1  1.539916  0  0.215684  0.594809  0  4.155532  0
C  C76  1  0.49064681  0.35281419  0.92390634  1  1.526593  0  0.214487  0.596307  0  4.157612  0
C  C77  1  0.49688664  0.49994205  0.01074074  1  1.582795  0  0.214378  0.598635  0  4.166605  0
C  C78  1  0.24663781  0.53591965  0.52172350  1  0.498238  0  0.060546  0.115648  0  3.939231  0
C  C79  1  0.16359756  0.54348570  0.52405351  1  0.042491  0  -0.075587  -0.181937  0  3.922799  0
C  C80  1  0.11487339  0.49435143  0.49972920  1  0.116224  0  0.019899  0.185543  0  4.125934  0
C  C81  1  0.15334895  0.43982468  0.47450087  1  -0.072875  0  -0.075639  -0.23371  0  3.862297  0
C  C82  1  0.23746700  0.43503540  0.47394550  1  0.560613  0  0.136091  0.335691  0  3.936527  0
C  C83  1  0.02969570  0.49910122  0.50078963  1  -0.383759  0  -0.02816  -0.089469  0  4.077742  0
C  C84  1  0.95624682  0.50248455  0.50189345  1  0.014372  0  -0.028498  -0.091614  0  4.079285  0
C  C85  1  0.87099920  0.50542445  0.50330110  1  0.055034  0  0.018462  0.183809  0  4.127877  0
C  C86  1  0.83132960  0.55048264  0.53359456  1  0.077919  0  -0.076179  -0.234554  0  3.863014  0
C  C87  1  0.74709497  0.55215649  0.53504148  1  0.453706  0  0.135615  0.334564  0  3.933854  0
C  C88  1  0.74016396  0.46711108  0.47788765  1  0.445225  0  0.059864  0.113266  0  3.940604  0
C  C89  1  0.82331980  0.46288004  0.47460206  1  0.015286  0  -0.075395  -0.180553  0  3.924137  0
C  C90  1  0.47779018  0.72485172  0.49525584  1  0.010104  0  -0.016942  -0.09419  0  3.896557  0
C  C91  1  0.55381955  0.75959740  0.49354471  1  -0.077468  0  -0.087254  -0.089085  0  4.028573  0
C  C92  1  0.56214286  0.83664377  0.49235957  1  -0.030553  0  -0.091435  -0.141461  0  3.982721  0
C  C93  1  0.49266003  0.88226333  0.49327207  1  0.066543  0  -0.000844  0.150526  0  4.141951  0
C  C94  1  0.41638919  0.84746924  0.49404654  1  -0.032987  0  -0.088398  -0.197147  0  3.902114  0
C  C95  1  0.40714710  0.76967307  0.49485869  1  0.003187  0  0.001443  0.169954  0  3.937948  0
C  C96  1  0.49952542  0.96112932  0.49428095  1  0.093896  0  -0.047158  -0.110108  0  4.122154  0
C  C97  1  0.50623281  0.02912763  0.49640364  1  -0.478736  0  -0.046445  -0.110239  0  4.120933  0
C  C98  1  0.50933385  0.10809709  0.49911741  1  0.111915  0  -0.000902  0.152351  0  4.14118  0
C  C99  1  0.58322539  0.14690625  0.50146439  1  -0.072068  0  -0.089204  -0.200456  0  3.903119  0
C  C100  1  0.58746870  0.22505836  0.50362529  1  0.058721  0  0.003922  0.174123  0  3.928774  0
C  C101  1  0.51409267  0.26605515  0.50366143  1  0.013219  0  -0.017162  -0.09652  0  3.894985  0
C  C102  1  0.44047326  0.22706444  0.50243168  1  -0.088441  0  -0.087502  -0.086508  0  4.032155  0
C  C103  1  0.43702753  0.14981912  0.49990878  1  0.018032  0  -0.09127  -0.141575  0  3.983377  0
C  C104  1  0.45674361  0.50014104  0.76986562  1  -0.070007  0  -0.102806  -0.181492  0  4.019851  0
C  C105  1  0.60295258  0.50175385  0.77561129  1  0.07056  0  -0.105029  -0.228152  0  3.95318  0
C  C106  1  0.60917927  0.50071843  0.73136249  1  0.456757  0  0.082062  0.271339  0  4.065925  0
C  C107  1  0.53882540  0.50005367  0.70425936  1  -0.013209  0  -0.018999  -0.023345  0  4.029291  0
C  C108  1  0.54326235  0.49906090  0.65896035  1  0.052974  0  -0.102022  -0.179614  0  4.01849  0
C  C109  1  0.39707573  0.50063910  0.65319739  1  -0.050815  0  -0.10461  -0.227566  0  3.952715  0
C  C110  1  0.39085191  0.50043694  0.69745589  1  0.469804  0  0.082046  0.271045  0  4.064147  0
C  C111  1  0.46120706  0.50024695  0.72457767  1  0.013958  0  -0.018485  -0.02186  0  4.028738  0
C  C112  1  0.52625254  0.50114373  0.79499305  1  -0.039131  0  -0.017829  0.002536  0  4.006365  0
C  C113  1  0.47376822  0.49956278  0.63381497  1  0.011515  0  -0.018034  0.001544  0  4.008305  0
C  C114  1  0.49934015  0.50758794  0.05872936  1  -0.006958  0  -0.017266  -0.093597  0  3.914215  0
C  C115  1  0.42791322  0.49453383  0.08147893  1  -0.011234  0  -0.087943  -0.088974  0  4.028543  0
C  C116  1  0.42614119  0.49699935  0.12609249  1  -0.083656  0  -0.091427  -0.143387  0  3.980533  0
C  C117  1  0.49731659  0.51403048  0.14934097  1  0.097677  0  -0.002182  0.149082  0  4.141861  0
C  C118  1  0.56808410  0.52981208  0.12627121  1  -0.037779  0  -0.088897  -0.197164  0  3.906894  0
C  C119  1  0.57091301  0.52686770  0.08139025  1  0.026863  0  0.001711  0.168088  0  3.94161  0
C  C120  1  0.49853934  0.51521672  0.19489351  1  -0.12039  0  -0.048181  -0.112123  0  4.124691  0
C  C121  1  0.50102946  0.51510108  0.23418195  1  -0.349935  0  -0.048249  -0.110457  0  4.123252  0
C  C122  1  0.50239696  0.51351496  0.27973697  1  0.202645  0  -0.001531  0.149034  0  4.140734  0
C  C123  1  0.43160622  0.52889940  0.30294575  1  -0.135268  0  -0.088568  -0.196495  0  3.907607  0
C  C124  1  0.42891979  0.52541090  0.34780685  1  0.027588  0  0.001079  0.167171  0  3.942133  0
C  C125  1  0.50069099  0.50603163  0.37030086  1  0.003689  0  -0.017162  -0.093088  0  3.911308  0
C  C126  1  0.57213872  0.49341833  0.34743643  1  -0.033174  0  -0.087957  -0.088702  0  4.027708  0
C  C127  1  0.57375381  0.49639052  0.30284022  1  -0.140213  0  -0.091654  -0.143941  0  3.980308  0
C  C128  1  0.75343312  0.53707945  0.90703046  1  0.486239  0  0.059671  0.113627  0  3.939212  0
C  C129  1  0.83647876  0.54436784  0.90469616  1  0.000822  0  -0.075564  -0.181152  0  3.922397  0
C  C130  1  0.88521320  0.49536309  0.92913969  1  0.004539  0  0.019483  0.1845  0  4.126787  0
C  C131  1  0.84672833  0.44120294  0.95446270  1  -0.047735  0  -0.075757  -0.234039  0  3.862987  0
C  C132  1  0.76260018  0.43663316  0.95500341  1  0.559641  0  0.135897  0.33491  0  3.936848  0
C  C133  1  0.97038635  0.50003940  0.92814291  1  -0.055193  0  -0.026852  -0.08875  0  4.077735  0
C  C134  1  0.04381224  0.50361993  0.92711663  1  -0.217848  0  -0.02971  -0.09176  0  4.078898  0
C  C135  1  0.12903728  0.50707472  0.92576088  1  0.066299  0  0.019751  0.185133  0  4.126788  0
C  C136  1  0.16826356  0.55236060  0.89552402  1  0.028397  0  -0.076601  -0.23486  0  3.863349  0
C  C137  1  0.25248653  0.55459852  0.89412360  1  0.468736  0  0.13547  0.333661  0  3.933801  0
C  C138  1  0.26026794  0.46975654  0.95124410  1  0.443204  0  0.059214  0.113103  0  3.94165  0
C  C139  1  0.17715778  0.46492585  0.95446345  1  0.047155  0  -0.075778  -0.181969  0  3.925144  0
C  C140  1  0.52301852  0.72756245  0.93307535  1  0.043233  0  -0.017439  -0.095074  0  3.894689  0
C  C141  1  0.44698774  0.76254064  0.93501447  1  -0.036303  0  -0.087399  -0.088644  0  4.030544  0
C  C142  1  0.43853895  0.83960996  0.93564191  1  -0.000292  0  -0.091196  -0.141242  0  3.985083  0
C  C143  1  0.50787242  0.88511788  0.93395043  1  0.091854  0  -0.001371  0.150012  0  4.143076  0
C  C144  1  0.58417085  0.85016369  0.93307414  1  -0.04633  0  -0.088444  -0.196646  0  3.900213  0
C  C145  1  0.59355576  0.77230836  0.93279452  1  0.041733  0  0.00234  0.169906  0  3.934961  0
C  C146  1  0.50069021  0.96396241  0.93251770  1  0.178347  0  -0.046766  -0.109035  0  4.123095  0
C  C147  1  0.49327086  0.03189669  0.93027869  1  -0.64579  0  -0.046788  -0.111206  0  4.121877  0
C  C148  1  0.49002304  0.11088738  0.92775546  1  0.183783  0  -0.000596  0.152465  0  4.140029  0
C  C149  1  0.41616295  0.15002403  0.92577880  1  0.012216  0  -0.088789  -0.200052  0  3.902028  0
C  C150  1  0.41203670  0.22823511  0.92401535  1  -0.033487  0  0.003446  0.172831  0  3.929217  0
C  C151  1  0.48548596  0.26890248  0.92407726  1  -0.017751  0  -0.016967  -0.095826  0  3.895806  0
C  C152  1  0.55905337  0.22960160  0.92489397  1  -0.046599  0  -0.087722  -0.087078  0  4.031937  0
C  C153  1  0.56236987  0.15232372  0.92694690  1  -0.034859  0  -0.091172  -0.141381  0  3.982811  0
C  C154  1  0.27962072  0.37588545  0.44852668  1  -0.079595  0  -0.234308  -0.468508  0  3.922272  0
C  C155  1  0.70398501  0.60093283  0.56656747  1  -0.038675  0  -0.235269  -0.463288  0  3.922519  0
C  C156  1  0.32286018  0.73843678  0.49639644  1  -0.043151  0  -0.24106  -0.411263  0  3.988691  0
C  C157  1  0.66975812  0.26056838  0.50619741  1  -0.046075  0  -0.241457  -0.410115  0  3.988532  0
C  C158  1  0.64918456  0.54627895  0.05977254  1  -0.044205  0  -0.24089  -0.408992  0  3.97576  0
C  C159  1  0.35052985  0.54423220  0.36956875  1  -0.03983  0  -0.241327  -0.409342  0  3.975371  0
C  C160  1  0.72045660  0.37789648  0.98057238  1  -0.092849  0  -0.234391  -0.469357  0  3.922236  0
C  C161  1  0.29523350  0.60344495  0.86261498  1  -0.044407  0  -0.234627  -0.463353  0  3.921926  0
C  C162  1  0.67798706  0.74111484  0.93087095  1  -0.065628  0  -0.241413  -0.411981  0  3.985667  0
C  C163  1  0.32978715  0.26412239  0.92172053  1  -0.000114  0  -0.240893  -0.408208  0  3.989007  0
N  N164  1  0.28292734  0.48352471  0.49734217  1  -1.218178  0  -0.313312  -0.254767  0  3.424281  0
N  N165  1  0.70269244  0.51004586  0.50733414  1  -1.221805  0  -0.312348  -0.252893  0  3.421781  0
N  N166  1  0.71713620  0.48501562  0.93150618  1  -1.231533  0  -0.312397  -0.252767  0  3.423979  0
N  N167  1  0.29729963  0.51288062  0.92184668  1  -1.231248  0  -0.312495  -0.252223  0  3.420922  0
O  O168  1  0.54477720  0.61121777  0.50960379  1  -1.17265  0  -0.319753  -0.555945  0  2.375038  0
O  O169  1  0.41344625  0.60483793  0.48933496  1  -1.163994  0  -0.310338  -0.545087  0  2.321782  0
O  O170  1  0.41522455  0.50885472  0.56426054  1  -1.171235  0  -0.316498  -0.549567  0  2.338849  0
O  O171  1  0.55006526  0.48837186  0.56991960  1  -1.175984  0  -0.318722  -0.553884  0  2.332997  0
O  O172  1  0.43966287  0.37846142  0.51111777  1  -1.172569  0  -0.320563  -0.554741  0  2.338092  0
O  O173  1  0.57327715  0.38747268  0.49766811  1  -1.165636  0  -0.311864  -0.543478  0  2.353191  0
O  O174  1  0.56933605  0.51193280  0.43779245  1  -1.166057  0  -0.318986  -0.554179  0  2.299015  0
O  O175  1  0.43834887  0.47586007  0.43615085  1  -1.176773  0  -0.313153  -0.551231  0  2.38965  0
O  O176  1  0.45550983  0.61408026  0.91958053  1  -1.17331  0  -0.319387  -0.555346  0  2.374277  0
O  O177  1  0.58696489  0.60707311  0.93945100  1  -1.168931  0  -0.310581  -0.545721  0  2.322957  0
O  O178  1  0.58483451  0.51131382  0.86455127  1  -1.170687  0  -0.316832  -0.549553  0  2.337895  0
O  O179  1  0.44989665  0.49161418  0.85895573  1  -1.174478  0  -0.318578  -0.553692  0  2.332097  0
O  O180  1  0.56018780  0.38103406  0.91740327  1  -1.170538  0  -0.320717  -0.554442  0  2.337775  0
O  O181  1  0.42657771  0.39050318  0.93082715  1  -1.163118  0  -0.311726  -0.543665  0  2.354606  0
O  O182  1  0.43082329  0.51443628  0.99124207  1  -1.164714  0  -0.319278  -0.553997  0  2.298946  0
O  O183  1  0.56188847  0.47822024  0.99274008  1  -1.174146  0  -0.312629  -0.551231  0  2.387862  0
O  O184  1  0.31495815  0.50065010  0.71458012  1  -1.148477  0  -0.363163  -0.445767  0  2.241664  0
O  O185  1  0.68502079  0.50055965  0.71421411  1  -1.135517  0  -0.363296  -0.44577  0  2.242965  0
