# generated using pymatgen
data_ZnH9C13(NO2)2
_symmetry_space_group_name_H-M   'P 1'
_cell_length_a   10.99883362
_cell_length_b   17.55513701
_cell_length_c   20.54357200
_cell_angle_alpha   110.18732148
_cell_angle_beta   93.79885024
_cell_angle_gamma   89.89979348
_symmetry_Int_Tables_number   1
_chemical_formula_structural   ZnH9C13(NO2)2
_chemical_formula_sum   'Zn8 H72 C104 N16 O32'
_cell_volume   3713.87699649
_cell_formula_units_Z   8
loop_
 _symmetry_equiv_pos_site_id
 _symmetry_equiv_pos_as_xyz
  1  'x, y, z'
loop_
 _atom_site_type_symbol
 _atom_site_label
 _atom_site_symmetry_multiplicity
 _atom_site_fract_x
 _atom_site_fract_y
 _atom_site_fract_z
 _atom_site_occupancy
 _atom_site_pbe_bader_charge
 _atom_site_pbe_bader_spin_density
 _atom_site_pbe_cm5_charge
 _atom_site_pbe_ddec_charge
 _atom_site_pbe_ddec_spin_density
 _atom_site_pbe_ddec_sum_bond_order
 _atom_site_pbe_magmom
Zn  Zn0  1  0.81137800  0.56168352  0.77440829  1  1.281188  0  0.665288  0.820127  0  2.404942  0
Zn  Zn1  1  0.18862275  0.43831499  0.22559136  1  1.281171  0  0.665279  0.820135  0  2.404898  0
Zn  Zn2  1  0.81841245  0.44602127  0.84472918  1  1.287268  0  0.673156  0.828711  0  2.402582  0
Zn  Zn3  1  0.18158474  0.55397905  0.15527236  1  1.287318  0  0.673142  0.828703  0  2.402637  0
Zn  Zn4  1  0.86100928  0.06270820  0.27946102  1  1.293362  0  0.667056  0.831928  0  2.406971  0
Zn  Zn5  1  0.13898609  0.93729276  0.72053870  1  1.293335  0  0.667019  0.831844  0  2.407092  0
Zn  Zn6  1  0.87367959  0.94656842  0.35047826  1  1.295554  0  0.673388  0.832205  0  2.401638  0
Zn  Zn7  1  0.12631581  0.05343313  0.64952213  1  1.295544  0  0.673362  0.832186  0  2.401692  0
H  H8  1  0.77886661  0.78236108  0.95473221  1  0.053236  0  0.102355  0.105532  0  0.997675  0
H  H9  1  0.22114141  0.21763742  0.04526670  1  0.05341  0  0.102351  0.105493  0  0.997678  0
H  H10  1  0.78690731  0.89509977  0.07106070  1  0.086842  0  0.10109  0.10504  0  1.012763  0
H  H11  1  0.21309711  0.10489996  0.92893749  1  0.08707  0  0.10108  0.105015  0  1.012798  0
H  H12  1  0.86962722  0.72318033  0.17263796  1  0.10651  0  0.106403  0.109403  0  1.00872  0
H  H13  1  0.13037089  0.27682061  0.82736281  1  0.106543  0  0.106401  0.109403  0  1.008718  0
H  H14  1  0.85754085  0.61007464  0.05718194  1  0.109708  0  0.106204  0.108398  0  1.014686  0
H  H15  1  0.14246178  0.38992507  0.94281959  1  0.109742  0  0.106191  0.108419  0  1.014618  0
H  H16  1  0.42685215  0.60456023  0.76732812  1  0.082821  0  0.099909  0.103166  0  1.011552  0
H  H17  1  0.57314142  0.39544134  0.23267172  1  0.082809  0  0.099921  0.103163  0  1.011523  0
H  H18  1  0.19846990  0.60652390  0.76757855  1  0.081235  0  0.098366  0.103472  0  1.014108  0
H  H19  1  0.80152356  0.39347463  0.23242135  1  0.081254  0  0.098334  0.103455  0  1.014069  0
H  H20  1  0.20540808  0.40992011  0.84682779  1  0.081181  0  0.101047  0.101534  0  1.042482  0
H  H21  1  0.79459271  0.59007961  0.15317271  1  0.081204  0  0.101032  0.101553  0  1.042491  0
H  H22  1  0.43303698  0.40511511  0.84296294  1  0.098985  0  0.109252  0.117917  0  0.988733  0
H  H23  1  0.56696388  0.59488644  0.15703762  1  0.098959  0  0.109233  0.117903  0  0.98875  0
H  H24  1  0.82732547  0.39776575  0.56552902  1  0.084947  0  0.096653  0.099694  0  1.014552  0
H  H25  1  0.17267179  0.60223640  0.43447306  1  0.084859  0  0.096656  0.099677  0  1.014634  0
H  H26  1  0.85971028  0.28498636  0.45215836  1  0.068394  0  0.098317  0.102903  0  1.008953  0
H  H27  1  0.14028699  0.71501641  0.54784294  1  0.068363  0  0.098312  0.102909  0  1.008981  0
H  H28  1  0.87241941  0.11324968  0.55892057  1  0.115095  0  0.103949  0.10946  0  1.02666  0
H  H29  1  0.12757871  0.88675187  0.44107893  1  0.11505  0  0.103957  0.10945  0  1.026647  0
H  H30  1  0.84812729  0.22541292  0.67150807  1  0.094186  0  0.10466  0.108223  0  1.008584  0
H  H31  1  0.15186897  0.77458742  0.32849198  1  0.094246  0  0.104647  0.108193  0  1.008651  0
H  H32  1  0.81828316  0.46124977  0.99312244  1  0.151597  0  0.122533  0.098802  0  0.999557  0
H  H33  1  0.18171940  0.53874811  0.00688000  1  0.151512  0  0.122524  0.098806  0  0.999484  0
H  H34  1  0.85528000  0.37224257  0.06378355  1  0.066545  0  0.109051  0.124287  0  1.035277  0
H  H35  1  0.14472430  0.62775350  0.93621646  1  0.066541  0  0.109038  0.124269  0  1.035278  0
H  H36  1  0.87092477  0.16970326  0.87006864  1  0.100267  0  0.115912  0.134592  0  0.980426  0
H  H37  1  0.12907599  0.83029587  0.12992973  1  0.100454  0  0.115895  0.134546  0  0.980499  0
H  H38  1  0.83270510  0.26793125  0.80820489  1  0.12812  0  0.125152  0.101624  0  0.986448  0
H  H39  1  0.16729663  0.73206908  0.19179533  1  0.128126  0  0.125151  0.101614  0  0.986444  0
H  H40  1  0.76809514  0.12796332  0.05896472  1  0.092616  0  0.107347  0.122344  0  1.012094  0
H  H41  1  0.23191198  0.87203518  0.94103465  1  0.092669  0  0.107347  0.122333  0  1.012112  0
H  H42  1  0.73618869  0.06333755  0.14789735  1  0.104105  0  0.122165  0.096825  0  0.979711  0
H  H43  1  0.26381580  0.93666337  0.85210363  1  0.104038  0  0.122143  0.096801  0  0.97972  0
H  H44  1  0.00238451  0.20993484  0.28578308  1  0.100868  0  0.116143  0.088654  0  0.999647  0
H  H45  1  0.99761820  0.79006730  0.71421821  1  0.100912  0  0.116132  0.088609  0  0.999696  0
H  H46  1  0.04641162  0.28142995  0.20346918  1  0.092341  0  0.107263  0.123886  0  1.04998  0
H  H47  1  0.95359373  0.71856977  0.79653050  1  0.09238  0  0.107245  0.123905  0  1.04997  0
H  H48  1  0.47166729  0.09970776  0.26724319  1  0.078032  0  0.097364  0.100371  0  1.017579  0
H  H49  1  0.52832900  0.90029318  0.73275753  1  0.077883  0  0.097346  0.100369  0  1.017536  0
H  H50  1  0.24182782  0.09284236  0.26358881  1  0.085374  0  0.097477  0.102422  0  1.017658  0
H  H51  1  0.75816843  0.90715799  0.73641075  1  0.085412  0  0.097483  0.102448  0  1.01766  0
H  H52  1  0.26432546  0.91211497  0.36089687  1  0.091264  0  0.103473  0.107639  0  1.02587  0
H  H53  1  0.73567071  0.08788356  0.63910068  1  0.091262  0  0.103489  0.107667  0  1.025806  0
H  H54  1  0.49264151  0.91593061  0.36072710  1  0.089968  0  0.106542  0.114758  0  0.994255  0
H  H55  1  0.50735656  0.08406912  0.63927331  1  0.089759  0  0.106526  0.114718  0  0.994284  0
H  H56  1  0.85295992  0.95832926  0.49867962  1  0.14287  0  0.125933  0.105495  0  0.988023  0
H  H57  1  0.14703914  0.04167289  0.50132106  1  0.142894  0  0.125943  0.105494  0  0.987964  0
H  H58  1  0.79517155  0.86594825  0.56076399  1  0.122285  0  0.109605  0.123785  0  1.031001  0
H  H59  1  0.20483304  0.13405509  0.43923869  1  0.122352  0  0.109607  0.123791  0  1.031032  0
H  H60  1  0.79509050  0.66741835  0.36319572  1  0.114863  0  0.113952  0.128016  0  0.990856  0
H  H61  1  0.20491496  0.33258378  0.63680761  1  0.114439  0  0.113933  0.127977  0  0.990923  0
H  H62  1  0.85367252  0.76893958  0.31020555  1  0.114723  0  0.124795  0.101255  0  0.989097  0
H  H63  1  0.14633106  0.23106134  0.68979589  1  0.114628  0  0.124822  0.101253  0  0.989042  0
H  H64  1  0.58470086  0.75460630  0.67456199  1  0.091047  0  0.115469  0.131257  0  0.997194  0
H  H65  1  0.41530002  0.24539523  0.32544051  1  0.091037  0  0.11547  0.131276  0  0.997159  0
H  H66  1  0.64257975  0.68989198  0.76263037  1  0.133945  0  0.126157  0.103177  0  0.976288  0
H  H67  1  0.35741827  0.31010653  0.23737065  1  0.133979  0  0.126167  0.103236  0  0.976252  0
H  H68  1  0.94083859  0.58100504  0.65825495  1  0.118358  0  0.126024  0.101448  0  0.971563  0
H  H69  1  0.05915763  0.41899408  0.34174522  1  0.118292  0  0.12603  0.101443  0  0.971551  0
H  H70  1  0.89651504  0.64021470  0.56433380  1  0.088033  0  0.112247  0.126577  0  1.010363  0
H  H71  1  0.10348674  0.35978684  0.43566679  1  0.088037  0  0.112267  0.126603  0  1.010405  0
H  H72  1  0.94496710  0.16124632  0.98039075  1  0.442029  0  0.325151  0.247773  0  0.932361  0
H  H73  1  0.05503729  0.83875218  0.01960902  1  0.442104  0  0.325172  0.247814  0  0.932345  0
H  H74  1  0.01971521  0.28209453  0.08918850  1  0.520258  0  0.306556  0.24846  0  1.015479  0
H  H75  1  0.98028917  0.71790398  0.91081029  1  0.520204  0  0.306573  0.248497  0  1.015485  0
H  H76  1  0.71483276  0.65035695  0.46305328  1  0.447466  0  0.334072  0.255107  0  0.914331  0
H  H77  1  0.28517182  0.34964578  0.53695020  1  0.447582  0  0.334068  0.255042  0  0.914263  0
H  H78  1  0.62061280  0.76145367  0.56266470  1  0.466616  0  0.338594  0.263256  0  0.909715  0
H  H79  1  0.37939178  0.23854969  0.43733605  1  0.466594  0  0.338633  0.263191  0  0.909742  0
C  C80  1  0.81967139  0.62330309  0.93011516  1  1.575789  0  0.215772  0.585563  0  4.171445  0
C  C81  1  0.18033753  0.37669417  0.06988633  1  1.575686  0  0.215906  0.585775  0  4.17118  0
C  C82  1  0.81860234  0.68980551  0.99923943  1  -0.071268  0  -0.018275  -0.032271  0  3.971382  0
C  C83  1  0.18140475  0.31019238  0.00075975  1  -0.071354  0  -0.018253  -0.032369  0  3.971274  0
C  C84  1  0.79831519  0.77004407  0.00285807  1  -0.034253  0  -0.093264  -0.113211  0  4.011355  0
C  C85  1  0.20169193  0.22995443  0.99714130  1  -0.034504  0  -0.093236  -0.11308  0  4.011181  0
C  C86  1  0.80299535  0.83242783  0.06705823  1  -0.078222  0  -0.091303  -0.108877  0  4.003544  0
C  C87  1  0.19701002  0.16757249  0.93294163  1  -0.07841  0  -0.091273  -0.108824  0  4.003522  0
C  C88  1  0.82957339  0.81549048  0.12832454  1  0.044352  0  -0.014305  -0.023262  0  3.95933  0
C  C89  1  0.17042924  0.18450985  0.87167474  1  0.044356  0  -0.01427  -0.023194  0  3.959165  0
C  C90  1  0.84772180  0.73511536  0.12458669  1  -0.111954  0  -0.081566  -0.094105  0  3.973255  0
C  C91  1  0.15227992  0.26488497  0.87541354  1  -0.112004  0  -0.081574  -0.094124  0  3.973246  0
C  C92  1  0.84126096  0.67252358  0.06057034  1  -0.006603  0  -0.081107  -0.090942  0  3.960509  0
C  C93  1  0.15874256  0.32747614  0.93943025  1  -0.006543  0  -0.081123  -0.090983  0  3.960475  0
C  C94  1  0.84212979  0.88344748  0.19728901  1  1.568303  0  0.211723  0.584974  0  4.187109  0
C  C95  1  0.15786738  0.11655286  0.80271059  1  1.567878  0  0.2117  0.584891  0  4.187171  0
C  C96  1  0.57962170  0.50422184  0.80596947  1  1.546925  0  0.213891  0.590304  0  4.174257  0
C  C97  1  0.42037723  0.49577731  0.19402739  1  1.546967  0  0.213803  0.59023  0  4.174464  0
C  C98  1  0.44313317  0.50483554  0.80521556  1  -0.012071  0  -0.014855  -0.023689  0  3.95645  0
C  C99  1  0.55686482  0.49516300  0.19478158  1  -0.01255  0  -0.014886  -0.023657  0  3.956569  0
C  C100  1  0.37714732  0.56160803  0.78391378  1  -0.04653  0  -0.090046  -0.10291  0  3.995006  0
C  C101  1  0.62284981  0.43839172  0.21608369  1  -0.046038  0  -0.090005  -0.102876  0  3.995021  0
C  C102  1  0.25066048  0.56291224  0.78432145  1  -0.013366  0  -0.092833  -0.108075  0  3.997972  0
C  C103  1  0.74933568  0.43708568  0.21567690  1  -0.013377  0  -0.092863  -0.108076  0  3.998006  0
C  C104  1  0.18858793  0.50846979  0.80759696  1  -0.068637  0  -0.020516  -0.034439  0  3.982341  0
C  C105  1  0.81140822  0.49152813  0.19240139  1  -0.068592  0  -0.020481  -0.034432  0  3.982454  0
C  C106  1  0.25462632  0.45180525  0.82893042  1  -0.03185  0  -0.086493  -0.099295  0  3.978524  0
C  C107  1  0.74537262  0.54819388  0.17106887  1  -0.031863  0  -0.086448  -0.099317  0  3.978582  0
C  C108  1  0.38082449  0.44928214  0.82703868  1  -0.033098  0  -0.081823  -0.089779  0  3.961511  0
C  C109  1  0.61917447  0.55071760  0.17296031  1  -0.033158  0  -0.081831  -0.0898  0  3.961549  0
C  C110  1  0.05261417  0.51097720  0.81007380  1  1.56433  0  0.208065  0.579015  0  4.193895  0
C  C111  1  0.94738473  0.48902071  0.18992512  1  1.56442  0  0.208045  0.578967  0  4.193917  0
C  C112  1  0.82115215  0.38461436  0.69257826  1  1.562128  0  0.21143  0.587931  0  4.181557  0
C  C113  1  0.17884412  0.61538597  0.30742325  1  1.562131  0  0.211387  0.587878  0  4.181607  0
C  C114  1  0.83547880  0.31790786  0.62478905  1  -0.037628  0  -0.019412  -0.029284  0  3.975779  0
C  C115  1  0.16451937  0.68209429  0.37521258  1  -0.037611  0  -0.019468  -0.029376  0  3.975942  0
C  C116  1  0.83857541  0.33515109  0.56313635  1  -0.050623  0  -0.095469  -0.110138  0  4.009305  0
C  C117  1  0.16142365  0.66485044  0.43686561  1  -0.050921  0  -0.095395  -0.110001  0  4.009395  0
C  C118  1  0.85596666  0.27304979  0.50068828  1  -0.044008  0  -0.092755  -0.107277  0  4.003819  0
C  C119  1  0.14403151  0.72695236  0.49931335  1  -0.043573  0  -0.092786  -0.107346  0  4.003975  0
C  C120  1  0.86726099  0.19284468  0.49903982  1  -0.038594  0  -0.018514  -0.027419  0  3.965763  0
C  C121  1  0.13273624  0.80715687  0.50096111  1  -0.038561  0  -0.01856  -0.027478  0  3.965966  0
C  C122  1  0.86278774  0.17560255  0.56055183  1  -0.105312  0  -0.085576  -0.097406  0  3.976494  0
C  C123  1  0.13721041  0.82439961  0.43944834  1  -0.105464  0  -0.085536  -0.097302  0  3.976363  0
C  C124  1  0.84866792  0.23787812  0.62313281  1  0.02131  0  -0.085578  -0.096981  0  3.979991  0
C  C125  1  0.15133016  0.76212221  0.37686778  1  0.021348  0  -0.085553  -0.096957  0  3.980133  0
C  C126  1  0.88045018  0.12506073  0.43170120  1  1.578309  0  0.210521  0.583454  0  4.194798  0
C  C127  1  0.11954155  0.87494023  0.56829937  1  1.57826  0  0.210492  0.583412  0  4.194949  0
C  C128  1  0.83005122  0.39619007  0.96828397  1  0.400442  0  0.052982  0.118151  0  3.93719  0
C  C129  1  0.16994955  0.60380904  0.03171635  1  0.400388  0  0.052942  0.118124  0  3.937206  0
C  C130  1  0.85052652  0.34654949  0.00735038  1  0.075859  0  -0.096227  -0.231863  0  3.945682  0
C  C131  1  0.14947600  0.65344779  0.99264994  1  0.075947  0  -0.096187  -0.231786  0  3.945804  0
C  C132  1  0.86941748  0.26356896  0.97272473  1  0.424401  0  0.118529  0.248946  0  4.084688  0
C  C133  1  0.13058504  0.73642834  0.02727461  1  0.424352  0  0.118543  0.24887  0  4.084778  0
C  C134  1  0.85857012  0.23373912  0.89950927  1  -0.089872  0  -0.09288  -0.241021  0  3.973709  0
C  C135  1  0.14143335  0.76625938  0.10048998  1  -0.090264  0  -0.092886  -0.241022  0  3.973899  0
C  C136  1  0.83766042  0.28781113  0.86480827  1  0.479815  0  0.050553  0.112383  0  3.954875  0
C  C137  1  0.16234035  0.71218798  0.13519156  1  0.480082  0  0.05058  0.112463  0  3.954883  0
C  C138  1  0.91286643  0.20903483  0.12341045  1  0.393129  0  0.121485  0.26352  0  4.084194  0
C  C139  1  0.08713708  0.79096490  0.87658869  1  0.392909  0  0.121458  0.263572  0  4.084247  0
C  C140  1  0.82198410  0.14761532  0.10850154  1  -0.011281  0  -0.108791  -0.262495  0  3.990101  0
C  C141  1  0.17802034  0.85238439  0.89149907  1  -0.010538  0  -0.108788  -0.262504  0  3.990022  0
C  C142  1  0.80356220  0.11223363  0.15783618  1  0.479973  0  0.045317  0.109291  0  3.985849  0
C  C143  1  0.19644138  0.88776730  0.84216429  1  0.479315  0  0.045362  0.10932  0  3.985953  0
C  C144  1  0.95253055  0.19409956  0.23501531  1  0.459928  0  0.042063  0.105363  0  3.981907  0
C  C145  1  0.04747212  0.80590137  0.76498562  1  0.459961  0  0.042119  0.105435  0  3.98189  0
C  C146  1  0.97710097  0.23331157  0.18946041  1  0.049025  0  -0.103695  -0.250678  0  3.964457  0
C  C147  1  0.02290256  0.76668815  0.81053969  1  0.048994  0  -0.103699  -0.250734  0  3.964568  0
C  C148  1  0.63123696  0.01086086  0.31523219  1  1.573583  0  0.209122  0.586026  0  4.185527  0
C  C149  1  0.36876015  0.98913828  0.68476558  1  1.573534  0  0.209202  0.586048  0  4.18555  0
C  C150  1  0.49476640  0.00874747  0.31474445  1  0.026901  0  -0.016088  -0.022054  0  3.961257  0
C  C151  1  0.50522799  0.99125166  0.68525469  1  0.027332  0  -0.016068  -0.022049  0  3.961316  0
C  C152  1  0.42455821  0.05903361  0.28759627  1  -0.110942  0  -0.095905  -0.117091  0  4.015144  0
C  C153  1  0.57543891  0.94096552  0.71240296  1  -0.111277  0  -0.095843  -0.117082  0  4.015084  0
C  C154  1  0.29786296  0.05531076  0.28571126  1  -0.015454  0  -0.095615  -0.114226  0  4.010749  0
C  C155  1  0.70213322  0.94468777  0.71428727  1  -0.015419  0  -0.095698  -0.114298  0  4.010867  0
C  C156  1  0.23998098  0.00247517  0.31253074  1  -0.056846  0  -0.020676  -0.033362  0  3.978067  0
C  C157  1  0.76001514  0.99752216  0.68746549  1  -0.056931  0  -0.020605  -0.033345  0  3.978068  0
C  C158  1  0.31034043  0.95276627  0.34019402  1  0.015079  0  -0.086123  -0.098197  0  3.976327  0
C  C159  1  0.68965574  0.04723227  0.65980306  1  0.015211  0  -0.086209  -0.098288  0  3.976275  0
C  C160  1  0.43676119  0.95521119  0.34059086  1  -0.081113  0  -0.083036  -0.090128  0  3.969415  0
C  C161  1  0.56323591  0.04478733  0.65940819  1  -0.08094  0  -0.082963  -0.089996  0  3.969381  0
C  C162  1  0.10368635  0.99948879  0.31233127  1  1.52478  0  0.207207  0.577799  0  4.197623  0
C  C163  1  0.89631149  0.00050612  0.68766330  1  1.524661  0  0.207177  0.577826  0  4.197559  0
C  C164  1  0.83914765  0.89342802  0.47077419  1  0.498109  0  0.060036  0.128027  0  3.917433  0
C  C165  1  0.16085144  0.10657475  0.52922668  1  0.498154  0  0.060053  0.128096  0  3.917294  0
C  C166  1  0.80664242  0.84190178  0.50518801  1  0.031083  0  -0.096036  -0.236478  0  3.948755  0
C  C167  1  0.19336125  0.15810157  0.49481416  1  0.031038  0  -0.096053  -0.236532  0  3.948762  0
C  C168  1  0.78792965  0.75902408  0.46667185  1  0.356577  0  0.117499  0.247279  0  4.09065  0
C  C169  1  0.21207497  0.24097987  0.53333150  1  0.355971  0  0.117447  0.247171  0  4.090637  0
C  C170  1  0.80704772  0.73137728  0.39528365  1  -0.100718  0  -0.094196  -0.244966  0  3.974297  0
C  C171  1  0.19295592  0.26862484  0.60471961  1  -0.100151  0  -0.094125  -0.244882  0  3.974407  0
C  C172  1  0.83975417  0.78721445  0.36550502  1  0.533834  0  0.054896  0.119191  0  3.951844  0
C  C173  1  0.16024763  0.21278769  0.63449624  1  0.534665  0  0.054992  0.119355  0  3.951858  0
C  C174  1  0.73500771  0.70100345  0.61097702  1  0.437993  0  0.124354  0.259749  0  4.096738  0
C  C175  1  0.26499504  0.29899929  0.38902591  1  0.438169  0  0.124386  0.2599  0  4.096568  0
C  C176  1  0.66465811  0.71668411  0.66901978  1  -0.077472  0  -0.096548  -0.251673  0  3.976203  0
C  C177  1  0.33534183  0.28331744  0.33098027  1  -0.077464  0  -0.096547  -0.251734  0  3.97618  0
C  C178  1  0.69671597  0.68156154  0.71820036  1  0.513422  0  0.048951  0.108769  0  3.970569  0
C  C179  1  0.30328389  0.31843757  0.28179993  1  0.513364  0  0.04894  0.108702  0  3.97066  0
C  C180  1  0.86293247  0.61986523  0.65933023  1  0.459574  0  0.052806  0.114079  0  3.958315  0
C  C181  1  0.13706742  0.38013449  0.34067073  1  0.459657  0  0.05283  0.114124  0  3.958345  0
C  C182  1  0.83812879  0.65228446  0.60739979  1  0.013826  0  -0.098831  -0.249647  0  3.964692  0
C  C183  1  0.16187209  0.34771707  0.39260223  1  0.01371  0  -0.098891  -0.24979  0  3.964683  0
N  N184  1  0.82595997  0.36834261  0.89818459  1  -1.218197  0  -0.342556  -0.24482  0  3.54842  0
N  N185  1  0.17403990  0.63165650  0.10181618  1  -1.218233  0  -0.342534  -0.244833  0  3.54843  0
N  N186  1  0.89940624  0.21149732  0.00828071  1  -0.809767  0  -0.321976  -0.21865  0  3.575229  0
N  N187  1  0.10059813  0.78850057  0.99171888  1  -0.809766  0  -0.321964  -0.218566  0  3.575165  0
N  N188  1  0.94209647  0.24520867  0.07735808  1  -0.891679  0  -0.320678  -0.208743  0  3.601851  0
N  N189  1  0.05790705  0.75479105  0.92264154  1  -0.891582  0  -0.320672  -0.208838  0  3.601912  0
N  N190  1  0.86800382  0.13357085  0.21986666  1  -1.271343  0  -0.349086  -0.249306  0  3.552847  0
N  N191  1  0.13199799  0.86643129  0.78013460  1  -1.271313  0  -0.349148  -0.24931  0  3.552951  0
N  N192  1  0.85434257  0.86731562  0.40203967  1  -1.271952  0  -0.337186  -0.239901  0  3.53728  0
N  N193  1  0.14565472  0.13268775  0.59796132  1  -1.272569  0  -0.337318  -0.240081  0  3.537384  0
N  N194  1  0.75156019  0.70394982  0.49666018  1  -0.82438  0  -0.319046  -0.214263  0  3.588165  0
N  N195  1  0.24844800  0.29605230  0.50334226  1  -0.824251  0  -0.319085  -0.214222  0  3.587993  0
N  N196  1  0.70142049  0.73237645  0.56017031  1  -0.836228  0  -0.314324  -0.204331  0  3.627821  0
N  N197  1  0.29858411  0.26762689  0.43983238  1  -0.836328  0  -0.314321  -0.204213  0  3.627872  0
N  N198  1  0.79358403  0.63311346  0.71380938  1  -1.271318  0  -0.34344  -0.247791  0  3.547723  0
N  N199  1  0.20641489  0.36688505  0.28619069  1  -1.271278  0  -0.343446  -0.247808  0  3.547775  0
O  O200  1  0.84567584  0.64396943  0.87836877  1  -1.181836  0  -0.315465  -0.563681  0  2.327674  0
O  O201  1  0.15432846  0.35602663  0.12163124  1  -1.181901  0  -0.315483  -0.563702  0  2.327769  0
O  O202  1  0.79691455  0.55173512  0.92781369  1  -1.16042  0  -0.302261  -0.526252  0  2.34665  0
O  O203  1  0.20309806  0.44826334  0.07218974  1  -1.160279  0  -0.30242  -0.526461  0  2.346502  0
O  O204  1  0.81884041  0.95438017  0.19723125  1  -1.162863  0  -0.315565  -0.553763  0  2.341835  0
O  O205  1  0.18114860  0.04562079  0.80277020  1  -1.16238  0  -0.315525  -0.553692  0  2.341903  0
O  O206  1  0.87694825  0.86461292  0.25005062  1  -1.171212  0  -0.315029  -0.546114  0  2.32694  0
O  O207  1  0.12305258  0.13538802  0.74994927  1  -1.171261  0  -0.315061  -0.546139  0  2.326993  0
O  O208  1  0.63180171  0.56236090  0.79355778  1  -1.172367  0  -0.322323  -0.558294  0  2.344921  0
O  O209  1  0.36819811  0.43763825  0.20643813  1  -1.172157  0  -0.322239  -0.558263  0  2.345037  0
O  O210  1  0.63320008  0.44671755  0.81932769  1  -1.158396  0  -0.313519  -0.537492  0  2.31172  0
O  O211  1  0.36679796  0.55328219  0.18067029  1  -1.158658  0  -0.313526  -0.537482  0  2.311772  0
O  O212  1  0.00479063  0.47876449  0.84925243  1  -1.167661  0  -0.314589  -0.546922  0  2.302093  0
O  O213  1  0.99520738  0.52123403  0.15074616  1  -1.167724  0  -0.314533  -0.546861  0  2.302077  0
O  O214  1  0.99551337  0.54623608  0.77254745  1  -1.174959  0  -0.323632  -0.555982  0  2.343417  0
O  O215  1  0.00448653  0.45376425  0.22745272  1  -1.174949  0  -0.323636  -0.555949  0  2.343357  0
O  O216  1  0.78981197  0.45369276  0.69067921  1  -1.171935  0  -0.322951  -0.555161  0  2.322517  0
O  O217  1  0.21018523  0.54630818  0.30932154  1  -1.171872  0  -0.322911  -0.555139  0  2.32259  0
O  O218  1  0.84323996  0.36699035  0.74739043  1  -1.166502  0  -0.316025  -0.544725  0  2.343177  0
O  O219  1  0.15675542  0.63301059  0.25261075  1  -1.166483  0  -0.31604  -0.544706  0  2.343144  0
O  O220  1  0.90236144  0.14372388  0.37884058  1  -1.171696  0  -0.324075  -0.554445  0  2.310721  0
O  O221  1  0.09763108  0.85627404  0.62115910  1  -1.171689  0  -0.324047  -0.55448  0  2.310713  0
O  O222  1  0.86683993  0.05346818  0.43269887  1  -1.171679  0  -0.312591  -0.547251  0  2.360965  0
O  O223  1  0.13314821  0.94653400  0.56730195  1  -1.171673  0  -0.312585  -0.547155  0  2.360905  0
O  O224  1  0.68007182  0.06780403  0.29987128  1  -1.161652  0  -0.326631  -0.554185  0  2.305475  0
O  O225  1  0.31992341  0.93219391  0.70012510  1  -1.161626  0  -0.326692  -0.554165  0  2.305453  0
O  O226  1  0.68715282  0.95540269  0.33069142  1  -1.16318  0  -0.315762  -0.54686  0  2.331215  0
O  O227  1  0.31284438  0.04459825  0.66930933  1  -1.163183  0  -0.3158  -0.546891  0  2.331179  0
O  O228  1  0.04371554  0.03200944  0.27405305  1  -1.167752  0  -0.32144  -0.555243  0  2.329372  0
O  O229  1  0.95628047  0.96798546  0.72594196  1  -1.167672  0  -0.321396  -0.555233  0  2.329307  0
O  O230  1  0.05894254  0.96496420  0.35103141  1  -1.166173  0  -0.314803  -0.541943  0  2.323935  0
O  O231  1  0.94105441  0.03503131  0.64896380  1  -1.166115  0  -0.314797  -0.541921  0  2.324083  0
