# generated using pymatgen
data_UH12C14(NO4)2
_symmetry_space_group_name_H-M   'P 1'
_cell_length_a   8.83133964
_cell_length_b   11.99401924
_cell_length_c   16.25284430
_cell_angle_alpha   89.99958413
_cell_angle_beta   89.99991167
_cell_angle_gamma   90.00145009
_symmetry_Int_Tables_number   1
_chemical_formula_structural   UH12C14(NO4)2
_chemical_formula_sum   'U4 H48 C56 N8 O32'
_cell_volume   1721.55421177
_cell_formula_units_Z   4
loop_
 _symmetry_equiv_pos_site_id
 _symmetry_equiv_pos_as_xyz
  1  'x, y, z'
loop_
 _atom_site_type_symbol
 _atom_site_label
 _atom_site_symmetry_multiplicity
 _atom_site_fract_x
 _atom_site_fract_y
 _atom_site_fract_z
 _atom_site_occupancy
 _atom_site_hle17_bader_spin_density
 _atom_site_hle17_ddec_charge
 _atom_site_hle17_ddec_spin_density
 _atom_site_hle17_ddec_sum_bond_order
 _atom_site_hle17_magmom
 _atom_site_hse06_10hf_bader_spin_density
 _atom_site_hse06_10hf_ddec_charge
 _atom_site_hse06_10hf_ddec_spin_density
 _atom_site_hse06_10hf_ddec_sum_bond_order
 _atom_site_hse06_10hf_magmom
 _atom_site_hse06_bader_spin_density
 _atom_site_hse06_ddec_charge
 _atom_site_hse06_ddec_spin_density
 _atom_site_hse06_ddec_sum_bond_order
 _atom_site_hse06_magmom
 _atom_site_pbe_bader_spin_density
 _atom_site_pbe_cm5_charge
 _atom_site_pbe_ddec_charge
 _atom_site_pbe_ddec_spin_density
 _atom_site_pbe_ddec_sum_bond_order
 _atom_site_pbe_magmom
U  U0  1  0.34636042  0.24999152  0.25000339  1  0  2.406906  0  4.114597  0  0  2.485019  0  4.750212  0  0  2.604731  0  4.709185  0  0  2.137114  2.39726  0  4.782338  0
U  U1  1  0.15363689  0.75001505  0.75000499  1  0  2.406752  0  4.114614  0  0  2.484955  0  4.750246  0  0  2.604676  0  4.70921  0  0  2.137082  2.397201  0  4.782378  0
U  U2  1  0.65363691  0.75000032  0.75000047  1  0  2.407108  0  4.114484  0  0  2.485168  0  4.750214  0  0  2.60489  0  4.709145  0  0  2.137182  2.397428  0  4.782318  0
U  U3  1  0.84635931  0.24999347  0.24999456  1  0  2.406759  0  4.114704  0  0  2.48502  0  4.750192  0  0  2.604662  0  4.709289  0  0  2.137072  2.397267  0  4.782314  0
H  H4  1  0.80106751  0.06953749  0.93069995  1  0  0.399971  0  0.794348  0  0  0.39095  0  0.836899  0  0  0.397872  0  0.830388  0  0  0.35184  0.38607  0  0.84153  0
H  H5  1  0.80108584  0.43046321  0.56930495  1  0  0.399892  0  0.7945  0  0  0.390908  0  0.837  0  0  0.397832  0  0.830486  0  0  0.351765  0.386026  0  0.841636  0
H  H6  1  0.69892108  0.56952224  0.06930965  1  0  0.399826  0  0.79446  0  0  0.390754  0  0.837102  0  0  0.397677  0  0.830594  0  0  0.351766  0.385872  0  0.841735  0
H  H7  1  0.69892139  0.93046214  0.43070075  1  0  0.399939  0  0.794413  0  0  0.390915  0  0.836967  0  0  0.397837  0  0.830456  0  0  0.351807  0.386033  0  0.841602  0
H  H8  1  0.19892075  0.93046436  0.06929899  1  0  0.40007  0  0.794439  0  0  0.391011  0  0.837026  0  0  0.397935  0  0.830514  0  0  0.351855  0.38613  0  0.841662  0
H  H9  1  0.19892281  0.56953197  0.43069460  1  0  0.399966  0  0.794411  0  0  0.390987  0  0.836907  0  0  0.39791  0  0.830395  0  0  0.351842  0.386105  0  0.841542  0
H  H10  1  0.30108870  0.43046960  0.93068867  1  0  0.399775  0  0.79456  0  0  0.390761  0  0.837115  0  0  0.397686  0  0.830603  0  0  0.351723  0.385879  0  0.84175  0
H  H11  1  0.30107480  0.06953554  0.56929634  1  0  0.399904  0  0.794522  0  0  0.390912  0  0.837024  0  0  0.397834  0  0.830514  0  0  0.351823  0.386032  0  0.841657  0
H  H12  1  0.70013354  0.17648217  0.07488333  1  0  0.301019  0  0.90802  0  0  0.275932  0  0.978619  0  0  0.283523  0  0.971921  0  0  0.332744  0.270557  0  0.983514  0
H  H13  1  0.70014021  0.32353218  0.42511023  1  0  0.301054  0  0.907895  0  0  0.275961  0  0.978495  0  0  0.283563  0  0.971785  0  0  0.332755  0.270579  0  0.98339  0
H  H14  1  0.79985777  0.67646583  0.92511335  1  0  0.301059  0  0.907883  0  0  0.276  0  0.978459  0  0  0.283595  0  0.971747  0  0  0.33282  0.270635  0  0.98335  0
H  H15  1  0.79986544  0.82352157  0.57488501  1  0  0.300981  0  0.908025  0  0  0.27592  0  0.978604  0  0  0.283506  0  0.971907  0  0  0.332741  0.270552  0  0.983497  0
H  H16  1  0.29986153  0.82351801  0.92511499  1  0  0.301002  0  0.908083  0  0  0.27592  0  0.978675  0  0  0.283512  0  0.971977  0  0  0.332728  0.270548  0  0.98357  0
H  H17  1  0.29986052  0.67647134  0.57488748  1  0  0.301128  0  0.90784  0  0  0.276031  0  0.978445  0  0  0.283632  0  0.971735  0  0  0.332758  0.270654  0  0.98334  0
H  H18  1  0.20014522  0.32353185  0.07488743  1  0  0.301109  0  0.907853  0  0  0.276017  0  0.978452  0  0  0.283609  0  0.971751  0  0  0.332827  0.270635  0  0.983348  0
H  H19  1  0.20013188  0.17648111  0.42511454  1  0  0.30105  0  0.90801  0  0  0.275977  0  0.978586  0  0  0.283564  0  0.971891  0  0  0.332773  0.270603  0  0.983481  0
H  H20  1  0.67120817  0.04761261  0.81377592  1  0  0.116509  0  0.966466  0  0  0.125746  0  1.03077  0  0  0.129114  0  1.028469  0  0  0.111261  0.123487  0  1.032477  0
H  H21  1  0.67122694  0.45237910  0.68623032  1  0  0.116462  0  0.966508  0  0  0.125716  0  1.030795  0  0  0.129085  0  1.028494  0  0  0.111275  0.12346  0  1.032497  0
H  H22  1  0.82877965  0.54762445  0.18623750  1  0  0.116484  0  0.966599  0  0  0.12575  0  1.030867  0  0  0.129112  0  1.028567  0  0  0.111269  0.123493  0  1.032568  0
H  H23  1  0.82877994  0.95238892  0.31377464  1  0  0.116494  0  0.966617  0  0  0.125735  0  1.030918  0  0  0.129104  0  1.028616  0  0  0.111264  0.123477  0  1.032622  0
H  H24  1  0.32877557  0.95239090  0.18622610  1  0  0.116457  0  0.966556  0  0  0.125705  0  1.030866  0  0  0.129073  0  1.028563  0  0  0.111269  0.123445  0  1.032573  0
H  H25  1  0.32877718  0.54762608  0.31376985  1  0  0.11652  0  0.966518  0  0  0.125752  0  1.030822  0  0  0.129124  0  1.028514  0  0  0.111257  0.123491  0  1.032532  0
H  H26  1  0.17123353  0.45237824  0.81376390  1  0  0.116461  0  0.966492  0  0  0.125734  0  1.030748  0  0  0.129098  0  1.028452  0  0  0.111271  0.123475  0  1.032452  0
H  H27  1  0.17122531  0.04761459  0.68622245  1  0  0.11656  0  0.966491  0  0  0.125784  0  1.030798  0  0  0.129154  0  1.028494  0  0  0.111253  0.123524  0  1.03251  0
H  H28  1  0.42362428  0.05884299  0.74547348  1  0  0.089536  0  0.937913  0  0  0.101623  0  0.995919  0  0  0.104852  0  0.992493  0  0  0.107955  0.09928  0  0.998464  0
H  H29  1  0.42363793  0.44115766  0.75452865  1  0  0.089614  0  0.937832  0  0  0.101701  0  0.995841  0  0  0.10493  0  0.992415  0  0  0.107992  0.099357  0  0.998389  0
H  H30  1  0.07636842  0.55885137  0.25453290  1  0  0.089531  0  0.937846  0  0  0.101626  0  0.995861  0  0  0.104855  0  0.992434  0  0  0.107968  0.099288  0  0.998409  0
H  H31  1  0.07636285  0.94116862  0.24547063  1  0  0.089549  0  0.937764  0  0  0.101629  0  0.995805  0  0  0.104859  0  0.992376  0  0  0.107951  0.099291  0  0.998353  0
H  H32  1  0.57635719  0.94116052  0.25452853  1  0  0.08963  0  0.937787  0  0  0.101717  0  0.995803  0  0  0.104945  0  0.992376  0  0  0.108  0.099369  0  0.998346  0
H  H33  1  0.57636845  0.55884585  0.24547151  1  0  0.089554  0  0.937927  0  0  0.101646  0  0.995937  0  0  0.104875  0  0.992512  0  0  0.107967  0.099297  0  0.998484  0
H  H34  1  0.92364702  0.44115882  0.74546726  1  0  0.089592  0  0.93772  0  0  0.101669  0  0.995762  0  0  0.104899  0  0.992332  0  0  0.10795  0.099321  0  0.998308  0
H  H35  1  0.92364241  0.05883322  0.75452892  1  0  0.089559  0  0.937767  0  0  0.101637  0  0.995804  0  0  0.104867  0  0.992374  0  0  0.107957  0.099299  0  0.998351  0
H  H36  1  0.19471892  0.12161771  0.82464785  1  0  0.096006  0  0.953225  0  0  0.108266  0  1.010292  0  0  0.110712  0  1.01006  0  0  0.100094  0.106625  0  1.010473  0
H  H37  1  0.19472940  0.37838554  0.67535325  1  0  0.096085  0  0.953181  0  0  0.108321  0  1.010266  0  0  0.110767  0  1.010031  0  0  0.100146  0.106677  0  1.010451  0
H  H38  1  0.30527491  0.62162172  0.17535326  1  0  0.096067  0  0.953181  0  0  0.108288  0  1.0103  0  0  0.110732  0  1.010069  0  0  0.100114  0.106644  0  1.010484  0
H  H39  1  0.30527025  0.87839484  0.32464393  1  0  0.096179  0  0.953101  0  0  0.108438  0  1.01015  0  0  0.110885  0  1.009912  0  0  0.100177  0.106794  0  1.010334  0
H  H40  1  0.80526369  0.87837663  0.17535909  1  0  0.096062  0  0.953253  0  0  0.10828  0  1.010348  0  0  0.110725  0  1.010115  0  0  0.100128  0.106636  0  1.010532  0
H  H41  1  0.80527472  0.62161881  0.32464692  1  0  0.096049  0  0.953291  0  0  0.108279  0  1.010386  0  0  0.110723  0  1.010154  0  0  0.100132  0.106634  0  1.010572  0
H  H42  1  0.69474054  0.37838179  0.82464383  1  0  0.09609  0  0.953276  0  0  0.108291  0  1.010387  0  0  0.110734  0  1.010159  0  0  0.100166  0.106649  0  1.01057  0
H  H43  1  0.69473161  0.12160367  0.67535746  1  0  0.096216  0  0.952997  0  0  0.108461  0  1.010064  0  0  0.110907  0  1.009829  0  0  0.100184  0.106818  0  1.010248  0
H  H44  1  0.22186830  0.16770941  0.97341736  1  0  0.09705  0  0.955396  0  0  0.10505  0  1.019544  0  0  0.109004  0  1.015966  0  0  0.101708  0.102126  0  1.022213  0
H  H45  1  0.22188322  0.33229183  0.52658556  1  0  0.097133  0  0.955361  0  0  0.105005  0  1.01965  0  0  0.108977  0  1.016051  0  0  0.101685  0.102083  0  1.022314  0
H  H46  1  0.27811925  0.66770180  0.02658348  1  0  0.097159  0  0.955361  0  0  0.10506  0  1.019604  0  0  0.109055  0  1.015976  0  0  0.101737  0.102138  0  1.022274  0
H  H47  1  0.27812271  0.83229510  0.47341188  1  0  0.097141  0  0.955322  0  0  0.104987  0  1.019641  0  0  0.108975  0  1.016023  0  0  0.101674  0.102062  0  1.022312  0
H  H48  1  0.77811657  0.83227910  0.02659081  1  0  0.097109  0  0.955413  0  0  0.104932  0  1.019761  0  0  0.108929  0  1.016134  0  0  0.1016  0.102014  0  1.022433  0
H  H49  1  0.77812317  0.66771336  0.47341460  1  0  0.097157  0  0.955318  0  0  0.105023  0  1.019626  0  0  0.108985  0  1.016038  0  0  0.101659  0.102096  0  1.022293  0
H  H50  1  0.72188940  0.33229005  0.97341176  1  0  0.097076  0  0.955218  0  0  0.104935  0  1.019544  0  0  0.108917  0  1.015934  0  0  0.101646  0.102016  0  1.022215  0
H  H51  1  0.72187236  0.16770174  0.52658828  1  0  0.097132  0  0.955303  0  0  0.105053  0  1.019534  0  0  0.109046  0  1.015911  0  0  0.101715  0.102132  0  1.022203  0
C  C52  1  0.46588358  0.17005026  0.06493749  1  0  0.502987  0  3.837545  0  0  0.44917  0  4.135576  0  0  0.47985  0  4.135004  0  0  0.229702  0.42907  0  4.134883  0
C  C53  1  0.46589272  0.32995659  0.43506364  1  0  0.50281  0  3.837634  0  0  0.448928  0  4.135786  0  0  0.479607  0  4.135222  0  0  0.229627  0.428815  0  4.135087  0
C  C54  1  0.03410519  0.67003827  0.93506395  1  0  0.502659  0  3.837662  0  0  0.448886  0  4.135698  0  0  0.479549  0  4.135132  0  0  0.229613  0.428802  0  4.135004  0
C  C55  1  0.03411425  0.82995385  0.56493689  1  0  0.502854  0  3.837507  0  0  0.449093  0  4.13558  0  0  0.479762  0  4.135006  0  0  0.229705  0.429005  0  4.134885  0
C  C56  1  0.53411035  0.82994992  0.93506513  1  0  0.502872  0  3.837981  0  0  0.449135  0  4.13592  0  0  0.479815  0  4.13535  0  0  0.229629  0.429036  0  4.135226  0
C  C57  1  0.53411027  0.67004776  0.56493653  1  0  0.503025  0  3.837376  0  0  0.449111  0  4.13556  0  0  0.479789  0  4.134992  0  0  0.229649  0.429009  0  4.134864  0
C  C58  1  0.96589780  0.32996107  0.06493499  1  0  0.502717  0  3.837786  0  0  0.44885  0  4.13594  0  0  0.479525  0  4.135375  0  0  0.229563  0.428734  0  4.135239  0
C  C59  1  0.96588534  0.17004467  0.43506081  1  0  0.502945  0  3.837443  0  0  0.449185  0  4.135493  0  0  0.479862  0  4.13492  0  0  0.22978  0.429086  0  4.134796  0
C  C60  1  0.46107271  0.13898303  0.97729974  1  0  -0.171255  0  3.768012  0  0  -0.152843  0  4.012443  0  0  -0.164068  0  4.034295  0  0  -0.028591  -0.145879  0  3.997929  0
C  C61  1  0.46108981  0.36101745  0.52270175  1  0  -0.171034  0  3.767979  0  0  -0.152682  0  4.012424  0  0  -0.163903  0  4.034271  0  0  -0.028506  -0.145718  0  3.997914  0
C  C62  1  0.03891155  0.63897621  0.02270250  1  0  -0.171187  0  3.767993  0  0  -0.152836  0  4.012339  0  0  -0.164057  0  4.034201  0  0  -0.028549  -0.145872  0  3.997825  0
C  C63  1  0.03891715  0.86101978  0.47729799  1  0  -0.171119  0  3.767872  0  0  -0.152939  0  4.012476  0  0  -0.164162  0  4.034332  0  0  -0.028589  -0.145976  0  3.997961  0
C  C64  1  0.53891216  0.86101632  0.02270227  1  0  -0.171196  0  3.768082  0  0  -0.152855  0  4.012418  0  0  -0.164078  0  4.034279  0  0  -0.028544  -0.145891  0  3.997907  0
C  C65  1  0.53891771  0.63898606  0.47729657  1  0  -0.171273  0  3.768044  0  0  -0.15291  0  4.012507  0  0  -0.164126  0  4.034352  0  0  -0.028607  -0.145949  0  3.997997  0
C  C66  1  0.96110276  0.36102231  0.97729336  1  0  -0.171191  0  3.768057  0  0  -0.152848  0  4.012539  0  0  -0.164076  0  4.034396  0  0  -0.028568  -0.145884  0  3.998033  0
C  C67  1  0.96107904  0.13897874  0.52270033  1  0  -0.171162  0  3.76786  0  0  -0.152959  0  4.012466  0  0  -0.164182  0  4.034321  0  0  -0.028603  -0.145994  0  3.997952  0
C  C68  1  0.58856700  0.10584786  0.93086237  1  0  0.308105  0  3.801345  0  0  0.289546  0  4.072453  0  0  0.301791  0  4.089375  0  0  0.083837  0.281323  0  4.060955  0
C  C69  1  0.58858515  0.39414822  0.56914271  1  0  0.307998  0  3.8019  0  0  0.289564  0  4.072858  0  0  0.301807  0  4.089785  0  0  0.083776  0.28134  0  4.06136  0
C  C70  1  0.91141725  0.60584307  0.06914395  1  0  0.308069  0  3.801759  0  0  0.289718  0  4.07255  0  0  0.301953  0  4.089486  0  0  0.08384  0.281495  0  4.061052  0
C  C71  1  0.91142304  0.89415343  0.43085889  1  0  0.308078  0  3.801679  0  0  0.289699  0  4.072612  0  0  0.301942  0  4.089537  0  0  0.083849  0.281476  0  4.061111  0
C  C72  1  0.41141787  0.89414981  0.06913964  1  0  0.308093  0  3.801831  0  0  0.289698  0  4.072708  0  0  0.301935  0  4.089642  0  0  0.08383  0.281473  0  4.061209  0
C  C73  1  0.41142463  0.60585279  0.43085807  1  0  0.30813  0  3.801598  0  0  0.28972  0  4.07252  0  0  0.301953  0  4.089459  0  0  0.083846  0.281498  0  4.061021  0
C  C74  1  0.08859027  0.39415211  0.93085253  1  0  0.308212  0  3.80191  0  0  0.289719  0  4.072939  0  0  0.301967  0  4.089863  0  0  0.08378  0.281495  0  4.061441  0
C  C75  1  0.08857655  0.10584675  0.56913820  1  0  0.308092  0  3.80169  0  0  0.289662  0  4.072678  0  0  0.301907  0  4.089602  0  0  0.083849  0.28144  0  4.061177  0
C  C76  1  0.57342736  0.07844612  0.84788559  1  0  -0.22  0  3.771123  0  0  -0.24238  0  4.033865  0  0  -0.249735  0  4.0539  0  0  -0.106119  -0.237608  0  4.020058  0
C  C77  1  0.57344739  0.42154803  0.65211888  1  0  -0.219844  0  3.771138  0  0  -0.242262  0  4.033854  0  0  -0.249619  0  4.05389  0  0  -0.106059  -0.23749  0  4.020043  0
C  C78  1  0.92655930  0.57845084  0.15212150  1  0  -0.220073  0  3.771417  0  0  -0.242512  0  4.0341  0  0  -0.249857  0  4.054131  0  0  -0.106145  -0.237739  0  4.020289  0
C  C79  1  0.92655952  0.92155760  0.34788318  1  0  -0.220035  0  3.771376  0  0  -0.242442  0  4.034048  0  0  -0.249798  0  4.054085  0  0  -0.106115  -0.237674  0  4.020249  0
C  C80  1  0.42655412  0.92155406  0.15211765  1  0  -0.219834  0  3.771264  0  0  -0.242271  0  4.033959  0  0  -0.249619  0  4.05399  0  0  -0.106057  -0.237499  0  4.020147  0
C  C81  1  0.42656126  0.57845299  0.34788252  1  0  -0.219993  0  3.771113  0  0  -0.24239  0  4.033808  0  0  -0.249747  0  4.05385  0  0  -0.106077  -0.237618  0  4.019996  0
C  C82  1  0.07345388  0.42154935  0.84787805  1  0  -0.219992  0  3.771358  0  0  -0.242402  0  4.034112  0  0  -0.249754  0  4.054141  0  0  -0.106089  -0.237632  0  4.020302  0
C  C83  1  0.07344120  0.07844174  0.65211453  1  0  -0.22012  0  3.771492  0  0  -0.242496  0  4.034161  0  0  -0.249852  0  4.054196  0  0  -0.106098  -0.237726  0  4.020359  0
C  C84  1  0.43273425  0.08436633  0.80963141  1  0  0.001654  0  3.747589  0  0  -0.022842  0  4.011081  0  0  -0.018456  0  4.028434  0  0  -0.075606  -0.025041  0  3.998459  0
C  C85  1  0.43274490  0.41563282  0.69037072  1  0  0.001479  0  3.747665  0  0  -0.023054  0  4.011224  0  0  -0.018666  0  4.028576  0  0  -0.075756  -0.025253  0  3.998604  0
C  C86  1  0.06725710  0.58436680  0.19037299  1  0  0.001634  0  3.747571  0  0  -0.022902  0  4.01112  0  0  -0.018516  0  4.028469  0  0  -0.075727  -0.025115  0  3.998514  0
C  C87  1  0.06725609  0.91564052  0.30962809  1  0  0.001621  0  3.747681  0  0  -0.022897  0  4.011199  0  0  -0.018511  0  4.028556  0  0  -0.07569  -0.025107  0  3.998585  0
C  C88  1  0.56724835  0.91563552  0.19037122  1  0  0.001338  0  3.74784  0  0  -0.023195  0  4.011393  0  0  -0.018808  0  4.028746  0  0  -0.075804  -0.025389  0  3.998766  0
C  C89  1  0.56726261  0.58437070  0.30963006  1  0  0.001594  0  3.747668  0  0  -0.022935  0  4.011213  0  0  -0.018549  0  4.028565  0  0  -0.075689  -0.025129  0  3.998586  0
C  C90  1  0.93275721  0.41563588  0.80962779  1  0  0.001399  0  3.747752  0  0  -0.023125  0  4.011297  0  0  -0.01874  0  4.028652  0  0  -0.075807  -0.025322  0  3.998675  0
C  C91  1  0.93274690  0.08435716  0.69037023  1  0  0.001632  0  3.747801  0  0  -0.022884  0  4.011291  0  0  -0.018498  0  4.028649  0  0  -0.075701  -0.025093  0  3.998682  0
C  C92  1  0.30527622  0.11804928  0.85409804  1  0  -0.093938  0  3.775673  0  0  -0.112354  0  4.038707  0  0  -0.117715  0  4.059664  0  0  -0.101721  -0.108855  0  4.024148  0
C  C93  1  0.30528692  0.38195427  0.64590481  1  0  -0.094013  0  3.775842  0  0  -0.112404  0  4.038839  0  0  -0.117763  0  4.059795  0  0  -0.101724  -0.108909  0  4.024287  0
C  C94  1  0.19471861  0.61804743  0.14590431  1  0  -0.093943  0  3.775704  0  0  -0.112321  0  4.038712  0  0  -0.117684  0  4.059685  0  0  -0.101667  -0.108825  0  4.024154  0
C  C95  1  0.19471400  0.88196050  0.35409358  1  0  -0.094167  0  3.775872  0  0  -0.112567  0  4.038829  0  0  -0.117929  0  4.059792  0  0  -0.101793  -0.109068  0  4.024272  0
C  C96  1  0.69470865  0.88194923  0.14590828  1  0  -0.093894  0  3.775942  0  0  -0.112249  0  4.038885  0  0  -0.11761  0  4.059853  0  0  -0.101698  -0.108751  0  4.024325  0
C  C97  1  0.69471947  0.61805341  0.35409536  1  0  -0.093979  0  3.776034  0  0  -0.112369  0  4.039043  0  0  -0.117727  0  4.06  0  0  -0.101721  -0.108873  0  4.024484  0
C  C98  1  0.80529343  0.38195442  0.85409093  1  0  -0.09385  0  3.775941  0  0  -0.112188  0  4.038892  0  0  -0.117548  0  4.059856  0  0  -0.101661  -0.108696  0  4.024343  0
C  C99  1  0.80528899  0.11803718  0.64590535  1  0  -0.09412  0  3.775697  0  0  -0.112507  0  4.038685  0  0  -0.117868  0  4.059644  0  0  -0.101741  -0.10901  0  4.024133  0
C  C100  1  0.32002404  0.14363428  0.93704406  1  0  -0.047012  0  3.750261  0  0  -0.078647  0  4.013455  0  0  -0.073443  0  4.028867  0  0  -0.090336  -0.081806  0  4.003003  0
C  C101  1  0.32003972  0.35636786  0.56295816  1  0  -0.047113  0  3.750195  0  0  -0.078607  0  4.013367  0  0  -0.073416  0  4.028771  0  0  -0.090406  -0.081768  0  4.00292  0
C  C102  1  0.17996265  0.64362709  0.06295815  1  0  -0.047111  0  3.75026  0  0  -0.078645  0  4.013436  0  0  -0.073474  0  4.028829  0  0  -0.090408  -0.081809  0  4.002991  0
C  C103  1  0.17996707  0.85637223  0.43703914  1  0  -0.047024  0  3.750072  0  0  -0.078464  0  4.013282  0  0  -0.073288  0  4.028681  0  0  -0.090297  -0.081626  0  4.002833  0
C  C104  1  0.67996310  0.85636256  0.06296411  1  0  -0.047009  0  3.750123  0  0  -0.07848  0  4.013266  0  0  -0.073311  0  4.028661  0  0  -0.090241  -0.081651  0  4.002826  0
C  C105  1  0.67996667  0.64363815  0.43704139  1  0  -0.047048  0  3.750258  0  0  -0.078548  0  4.013432  0  0  -0.073352  0  4.028837  0  0  -0.090328  -0.081706  0  4.00298  0
C  C106  1  0.82004600  0.35637059  0.93703648  1  0  -0.047037  0  3.750076  0  0  -0.078517  0  4.013221  0  0  -0.073337  0  4.028624  0  0  -0.090292  -0.081686  0  4.002777  0
C  C107  1  0.82003025  0.14362628  0.56296041  1  0  -0.047083  0  3.750062  0  0  -0.078597  0  4.013283  0  0  -0.073426  0  4.02868  0  0  -0.090368  -0.081762  0  4.00284  0
N  N108  1  0.59707454  0.18481945  0.10274370  1  0  -0.162355  0  3.485129  0  0  -0.107607  0  3.752997  0  0  -0.120192  0  3.766699  0  0  -0.301666  -0.09972  0  3.742737  0
N  N109  1  0.59707986  0.31519140  0.39725240  1  0  -0.16247  0  3.485065  0  0  -0.107698  0  3.752972  0  0  -0.120294  0  3.766664  0  0  -0.301753  -0.099777  0  3.742677  0
N  N110  1  0.90291934  0.68480770  0.89725478  1  0  -0.162059  0  3.484716  0  0  -0.107418  0  3.752689  0  0  -0.119971  0  3.766338  0  0  -0.301733  -0.099575  0  3.742463  0
N  N111  1  0.90292436  0.81518487  0.60274534  1  0  -0.162185  0  3.484917  0  0  -0.107508  0  3.752842  0  0  -0.120065  0  3.766519  0  0  -0.301666  -0.099654  0  3.742607  0
N  N112  1  0.40292166  0.81518157  0.89725585  1  0  -0.162303  0  3.485169  0  0  -0.107595  0  3.753026  0  0  -0.12018  0  3.766728  0  0  -0.301652  -0.099714  0  3.742773  0
N  N113  1  0.40292087  0.68481545  0.60274654  1  0  -0.162517  0  3.485028  0  0  -0.107708  0  3.752929  0  0  -0.120301  0  3.766625  0  0  -0.301655  -0.099815  0  3.74266  0
N  N114  1  0.09708365  0.31519248  0.10274539  1  0  -0.162299  0  3.484919  0  0  -0.107548  0  3.752835  0  0  -0.120121  0  3.766521  0  0  -0.301771  -0.099616  0  3.742516  0
N  N115  1  0.09707410  0.18481531  0.39725298  1  0  -0.162417  0  3.485205  0  0  -0.10769  0  3.753087  0  0  -0.120267  0  3.766788  0  0  -0.301713  -0.09981  0  3.742831  0
O  O116  1  0.59642525  0.22837330  0.17952276  1  0  -0.547127  0  2.075497  0  0  -0.567491  0  2.381742  0  0  -0.605026  0  2.393686  0  0  -0.321107  -0.538206  0  2.371001  0
O  O117  1  0.59642356  0.27163004  0.32047642  1  0  -0.547032  0  2.075498  0  0  -0.567357  0  2.381693  0  0  -0.604893  0  2.393643  0  0  -0.321035  -0.538082  0  2.370935  0
O  O118  1  0.90357358  0.72837644  0.82048102  1  0  -0.547381  0  2.075351  0  0  -0.567675  0  2.381628  0  0  -0.605236  0  2.393555  0  0  -0.321122  -0.538376  0  2.370902  0
O  O119  1  0.90357569  0.77162781  0.67952341  1  0  -0.547204  0  2.075361  0  0  -0.567508  0  2.381618  0  0  -0.605065  0  2.393548  0  0  -0.3211  -0.538214  0  2.370888  0
O  O120  1  0.40357547  0.77163022  0.82047679  1  0  -0.54719  0  2.075549  0  0  -0.567538  0  2.381814  0  0  -0.605084  0  2.393755  0  0  -0.321117  -0.538253  0  2.371077  0
O  O121  1  0.40357490  0.72837181  0.67952313  1  0  -0.54708  0  2.075558  0  0  -0.567447  0  2.381801  0  0  -0.604993  0  2.39375  0  0  -0.321087  -0.538165  0  2.371056  0
O  O122  1  0.09642261  0.27163124  0.17952038  1  0  -0.547246  0  2.075466  0  0  -0.567562  0  2.381682  0  0  -0.605103  0  2.393624  0  0  -0.321101  -0.538293  0  2.370918  0
O  O123  1  0.09642277  0.22837070  0.32047614  1  0  -0.547098  0  2.075546  0  0  -0.56743  0  2.38178  0  0  -0.604969  0  2.393724  0  0  -0.321094  -0.538143  0  2.371038  0
O  O124  1  0.34425565  0.18850402  0.10619673  1  0  -0.639461  0  2.079654  0  0  -0.617068  0  2.349774  0  0  -0.645906  0  2.344051  0  0  -0.359144  -0.595946  0  2.352443  0
O  O125  1  0.34425971  0.31149816  0.39380819  1  0  -0.639388  0  2.079827  0  0  -0.616965  0  2.349984  0  0  -0.645809  0  2.34427  0  0  -0.359066  -0.595843  0  2.35265  0
O  O126  1  0.15574058  0.68849374  0.89380707  1  0  -0.639324  0  2.079823  0  0  -0.616899  0  2.349872  0  0  -0.645746  0  2.344169  0  0  -0.359051  -0.595774  0  2.352532  0
O  O127  1  0.15574433  0.81149971  0.60619367  1  0  -0.63943  0  2.079811  0  0  -0.616978  0  2.349851  0  0  -0.645823  0  2.344141  0  0  -0.359101  -0.595853  0  2.35251  0
O  O128  1  0.65574168  0.81149199  0.89380959  1  0  -0.639433  0  2.080014  0  0  -0.617046  0  2.35008  0  0  -0.645891  0  2.34437  0  0  -0.359062  -0.595927  0  2.352747  0
O  O129  1  0.65574214  0.68850619  0.60619320  1  0  -0.639434  0  2.079742  0  0  -0.617006  0  2.349935  0  0  -0.645848  0  2.344219  0  0  -0.359075  -0.595882  0  2.352594  0
O  O130  1  0.84426014  0.31150477  0.10619002  1  0  -0.639343  0  2.079947  0  0  -0.616893  0  2.350029  0  0  -0.645729  0  2.344325  0  0  -0.359031  -0.595771  0  2.352699  0
O  O131  1  0.84425299  0.18849630  0.39380280  1  0  -0.639393  0  2.07964  0  0  -0.616995  0  2.349732  0  0  -0.64583  0  2.344023  0  0  -0.359144  -0.595873  0  2.352397  0
O  O132  1  0.72666025  0.09876789  0.96931652  1  0  -0.506112  0  2.131464  0  0  -0.458468  0  2.339065  0  0  -0.475635  0  2.331465  0  0  -0.335032  -0.446154  0  2.343893  0
O  O133  1  0.72667989  0.40122815  0.53068721  1  0  -0.50601  0  2.131827  0  0  -0.458449  0  2.33937  0  0  -0.475619  0  2.331772  0  0  -0.334906  -0.446136  0  2.344201  0
O  O134  1  0.77332601  0.59876015  0.03069106  1  0  -0.505858  0  2.13166  0  0  -0.458268  0  2.339286  0  0  -0.475437  0  2.331694  0  0  -0.334913  -0.445952  0  2.344111  0
O  O135  1  0.77333081  0.90122888  0.46931558  1  0  -0.506089  0  2.131663  0  0  -0.458474  0  2.339198  0  0  -0.475645  0  2.331603  0  0  -0.334996  -0.446159  0  2.344024  0
O  O136  1  0.27332576  0.90122646  0.03068487  1  0  -0.506234  0  2.131775  0  0  -0.458614  0  2.339348  0  0  -0.475783  0  2.331752  0  0  -0.33504  -0.446298  0  2.344177  0
O  O137  1  0.27332536  0.59877369  0.46931234  1  0  -0.506165  0  2.131533  0  0  -0.458622  0  2.339087  0  0  -0.475789  0  2.33149  0  0  -0.335056  -0.44631  0  2.343918  0
O  O138  1  0.22668604  0.40123085  0.96930849  1  0  -0.505923  0  2.131819  0  0  -0.458323  0  2.33943  0  0  -0.475495  0  2.331831  0  0  -0.33485  -0.446008  0  2.34426  0
O  O139  1  0.22666765  0.09877213  0.53068212  1  0  -0.506069  0  2.131786  0  0  -0.458467  0  2.339308  0  0  -0.475637  0  2.331712  0  0  -0.335026  -0.446153  0  2.344134  0
O  O140  1  0.35380737  0.10461816  0.28079102  1  0  -0.729001  0  1.579643  0  0  -0.729085  0  1.866837  0  0  -0.748892  0  1.851174  0  0  -0.768327  -0.717935  0  1.879238  0
O  O141  1  0.35382400  0.39536919  0.21921820  1  0  -0.72906  0  1.579326  0  0  -0.729152  0  1.866505  0  0  -0.74896  0  1.850839  0  0  -0.768391  -0.718002  0  1.878908  0
O  O142  1  0.14617452  0.60462016  0.71921572  1  0  -0.729177  0  1.578804  0  0  -0.72928  0  1.865904  0  0  -0.749097  0  1.850237  0  0  -0.768219  -0.718125  0  1.878302  0
O  O143  1  0.14618985  0.89537062  0.78078688  1  0  -0.728771  0  1.580087  0  0  -0.728878  0  1.867332  0  0  -0.74868  0  1.851662  0  0  -0.768497  -0.717734  0  1.87974  0
O  O144  1  0.64618769  0.89538035  0.71921160  1  0  -0.729164  0  1.579339  0  0  -0.729234  0  1.866514  0  0  -0.749041  0  1.850843  0  0  -0.768382  -0.718086  0  1.878915  0
O  O145  1  0.64617559  0.60462849  0.78078442  1  0  -0.729086  0  1.579555  0  0  -0.729154  0  1.866763  0  0  -0.748955  0  1.851087  0  0  -0.768449  -0.718007  0  1.879164  0
O  O146  1  0.85382054  0.39537252  0.28078137  1  0  -0.729092  0  1.579281  0  0  -0.729228  0  1.866467  0  0  -0.749021  0  1.850811  0  0  -0.768393  -0.718079  0  1.87887  0
O  O147  1  0.85380635  0.10462289  0.21920836  1  0  -0.728861  0  1.579675  0  0  -0.728988  0  1.866871  0  0  -0.748781  0  1.851223  0  0  -0.768289  -0.717842  0  1.879271  0
