# generated using pymatgen
data_LiH4C2NO2
_symmetry_space_group_name_H-M   'P 1'
_cell_length_a   5.00917346
_cell_length_b   7.79026214
_cell_length_c   9.15144238
_cell_angle_alpha   90.00022489
_cell_angle_beta   90.00010373
_cell_angle_gamma   89.99794950
_symmetry_Int_Tables_number   1
_chemical_formula_structural   LiH4C2NO2
_chemical_formula_sum   'Li4 H16 C8 N4 O8'
_cell_volume   357.11467112
_cell_formula_units_Z   4
loop_
 _symmetry_equiv_pos_site_id
 _symmetry_equiv_pos_as_xyz
  1  'x, y, z'
loop_
 _atom_site_type_symbol
 _atom_site_label
 _atom_site_symmetry_multiplicity
 _atom_site_fract_x
 _atom_site_fract_y
 _atom_site_fract_z
 _atom_site_occupancy
 _atom_site_hle17_bader_spin_density
 _atom_site_hle17_ddec_charge
 _atom_site_hle17_ddec_spin_density
 _atom_site_hle17_ddec_sum_bond_order
 _atom_site_hle17_magmom
 _atom_site_hse06_10hf_bader_spin_density
 _atom_site_hse06_10hf_ddec_charge
 _atom_site_hse06_10hf_ddec_spin_density
 _atom_site_hse06_10hf_ddec_sum_bond_order
 _atom_site_hse06_10hf_magmom
 _atom_site_hse06_bader_spin_density
 _atom_site_hse06_ddec_charge
 _atom_site_hse06_ddec_spin_density
 _atom_site_hse06_ddec_sum_bond_order
 _atom_site_hse06_magmom
 _atom_site_pbe_bader_spin_density
 _atom_site_pbe_cm5_charge
 _atom_site_pbe_ddec_charge
 _atom_site_pbe_ddec_spin_density
 _atom_site_pbe_ddec_sum_bond_order
 _atom_site_pbe_magmom
Li  Li0  1  0.24253890  0.17081823  0.92574519  1  0  0.830136  0  0.435869  0  0  0.784239  0  0.551492  0  0  0.7941  0  0.534931  0  0  0.523729  0.777134  0  0.563387  0
Li  Li1  1  0.74255481  0.32917800  0.07424724  1  0  0.830162  0  0.435882  0  0  0.784272  0  0.551497  0  0  0.79413  0  0.53494  0  0  0.523785  0.777169  0  0.56339  0
Li  Li2  1  0.75744256  0.67081863  0.57424534  1  0  0.830164  0  0.435898  0  0  0.78427  0  0.551519  0  0  0.794129  0  0.534962  0  0  0.523773  0.777164  0  0.563413  0
Li  Li3  1  0.25747151  0.82919365  0.42575487  1  0  0.830129  0  0.435924  0  0  0.784248  0  0.551523  0  0  0.794108  0  0.534964  0  0  0.523756  0.777146  0  0.563412  0
H  H4  1  0.99688041  0.25957579  0.69097528  1  0  0.284225  0  0.917771  0  0  0.28184  0  0.968488  0  0  0.287014  0  0.964421  0  0  0.296751  0.278153  0  0.971443  0
H  H5  1  0.49693397  0.24040539  0.30901975  1  0  0.28408  0  0.918003  0  0  0.281771  0  0.968636  0  0  0.286947  0  0.964569  0  0  0.296731  0.278084  0  0.971589  0
H  H6  1  0.00306635  0.75958269  0.80900344  1  0  0.284054  0  0.918059  0  0  0.281774  0  0.968645  0  0  0.286951  0  0.964574  0  0  0.296721  0.278086  0  0.9716  0
H  H7  1  0.50310112  0.74042666  0.19098214  1  0  0.28423  0  0.917729  0  0  0.281826  0  0.96849  0  0  0.287003  0  0.964416  0  0  0.296725  0.278138  0  0.971444  0
H  H8  1  0.22050048  0.12269088  0.63310490  1  0  0.294519  0  0.930745  0  0  0.287198  0  0.990442  0  0  0.292342  0  0.986497  0  0  0.295561  0.283531  0  0.993338  0
H  H9  1  0.72052609  0.37730844  0.36687109  1  0  0.294461  0  0.930634  0  0  0.287165  0  0.990317  0  0  0.292307  0  0.986377  0  0  0.295565  0.283507  0  0.993201  0
H  H10  1  0.77948557  0.62269248  0.86687896  1  0  0.294334  0  0.930552  0  0  0.287063  0  0.990226  0  0  0.292204  0  0.986287  0  0  0.295537  0.283402  0  0.993117  0
H  H11  1  0.27949366  0.87731029  0.13310599  1  0  0.294453  0  0.930779  0  0  0.28714  0  0.990468  0  0  0.292282  0  0.986528  0  0  0.295615  0.283476  0  0.99336  0
H  H12  1  0.54969332  0.31535823  0.61943871  1  0  0.08898  0  0.942431  0  0  0.104627  0  1.005883  0  0  0.106687  0  1.004353  0  0  0.120479  0.103053  0  1.007249  0
H  H13  1  0.04973198  0.18467596  0.38056650  1  0  0.089117  0  0.9421  0  0  0.104641  0  1.005693  0  0  0.106694  0  1.004169  0  0  0.120502  0.103083  0  1.007064  0
H  H14  1  0.45029036  0.81533052  0.88056200  1  0  0.089058  0  0.942182  0  0  0.104631  0  1.00571  0  0  0.106684  0  1.004185  0  0  0.120518  0.10306  0  1.007077  0
H  H15  1  0.95028814  0.68464765  0.11942760  1  0  0.089076  0  0.942311  0  0  0.104687  0  1.005794  0  0  0.106741  0  1.004275  0  0  0.120495  0.103115  0  1.007156  0
H  H16  1  0.42215416  0.43530993  0.76682972  1  0  0.084998  0  0.943792  0  0  0.098683  0  1.009104  0  0  0.101157  0  1.007459  0  0  0.124911  0.096784  0  1.010539  0
H  H17  1  0.92223636  0.06471283  0.23320234  1  0  0.085107  0  0.943876  0  0  0.098843  0  1.009025  0  0  0.101318  0  1.007372  0  0  0.124991  0.09695  0  1.01048  0
H  H18  1  0.57780710  0.93527575  0.73319641  1  0  0.085147  0  0.943775  0  0  0.09882  0  1.009003  0  0  0.10129  0  1.007354  0  0  0.125024  0.096913  0  1.01045  0
H  H19  1  0.07783413  0.56469459  0.26682754  1  0  0.085048  0  0.943815  0  0  0.098778  0  1.009043  0  0  0.101252  0  1.007396  0  0  0.124912  0.096878  0  1.010479  0
C  C20  1  0.36374320  0.36384162  0.66771734  1  0  -0.084338  0  3.696355  0  0  -0.137895  0  3.963472  0  0  -0.138915  0  3.969426  0  0  -0.063617  -0.137235  0  3.959468  0
C  C21  1  0.86379770  0.13619279  0.33228184  1  0  -0.0847  0  3.697615  0  0  -0.138068  0  3.964733  0  0  -0.139081  0  3.970678  0  0  -0.063613  -0.137472  0  3.960808  0
C  C22  1  0.63622789  0.86379380  0.83226928  1  0  -0.084535  0  3.698294  0  0  -0.137923  0  3.965456  0  0  -0.138935  0  3.971408  0  0  -0.06353  -0.137262  0  3.96145  0
C  C23  1  0.13622503  0.63616103  0.16771543  1  0  -0.084643  0  3.696281  0  0  -0.138172  0  3.963467  0  0  -0.139187  0  3.969419  0  0  -0.063663  -0.137512  0  3.959465  0
C  C24  1  0.24071131  0.49588198  0.56435446  1  0  0.710356  0  3.855169  0  0  0.669226  0  4.152961  0  0  0.700883  0  4.1449  0  0  0.229699  0.647756  0  4.15789  0
C  C25  1  0.74081096  0.00416948  0.43561938  1  0  0.711336  0  3.854772  0  0  0.669877  0  4.152978  0  0  0.70153  0  4.144913  0  0  0.230108  0.648425  0  4.157911  0
C  C26  1  0.75921275  0.99581002  0.93561063  1  0  0.711271  0  3.855367  0  0  0.669895  0  4.153463  0  0  0.701542  0  4.1454  0  0  0.230056  0.648434  0  4.158392  0
C  C27  1  0.25925480  0.50411621  0.06435024  1  0  0.71061  0  3.855318  0  0  0.669344  0  4.153303  0  0  0.700987  0  4.145262  0  0  0.229729  0.647871  0  4.158245  0
N  N28  1  0.18969842  0.21956240  0.70676770  1  0  -0.697429  0  3.033907  0  0  -0.677631  0  3.2752  0  0  -0.688841  0  3.271841  0  0  -0.705321  -0.669546  0  3.277476  0
N  N29  1  0.68975911  0.28040427  0.29324540  1  0  -0.697084  0  3.035132  0  0  -0.677404  0  3.276334  0  0  -0.688615  0  3.272977  0  0  -0.705314  -0.669303  0  3.278625  0
N  N30  1  0.81021654  0.71961161  0.79325355  1  0  -0.69711  0  3.036124  0  0  -0.677457  0  3.277335  0  0  -0.688668  0  3.273982  0  0  -0.705388  -0.669372  0  3.279601  0
N  N31  1  0.31028581  0.78044306  0.20676861  1  0  -0.697347  0  3.033891  0  0  -0.677533  0  3.275188  0  0  -0.688742  0  3.271831  0  0  -0.705376  -0.669448  0  3.277461  0
O  O32  1  0.99699816  0.48038303  0.52971791  1  0  -0.722203  0  1.965008  0  0  -0.671218  0  2.202149  0  0  -0.693953  0  2.190622  0  0  -0.376899  -0.655398  0  2.209874  0
O  O33  1  0.49707374  0.01958531  0.47028040  1  0  -0.722886  0  1.964786  0  0  -0.671737  0  2.202055  0  0  -0.694479  0  2.190524  0  0  -0.377206  -0.655914  0  2.209773  0
O  O34  1  0.00289679  0.98042554  0.97027774  1  0  -0.722702  0  1.965362  0  0  -0.671626  0  2.202656  0  0  -0.694359  0  2.191119  0  0  -0.377183  -0.655806  0  2.210382  0
O  O35  1  0.50298919  0.51961975  0.02974171  1  0  -0.722343  0  1.965056  0  0  -0.671293  0  2.20224  0  0  -0.694023  0  2.19071  0  0  -0.376875  -0.655468  0  2.20997  0
O  O36  1  0.39038933  0.62016858  0.52373491  1  0  -0.789236  0  1.944253  0  0  -0.739101  0  2.186521  0  0  -0.760499  0  2.172414  0  0  -0.445375  -0.724271  0  2.196018  0
O  O37  1  0.89037100  0.87986877  0.47628738  1  0  -0.789578  0  1.944369  0  0  -0.739345  0  2.186785  0  0  -0.76074  0  2.172689  0  0  -0.445492  -0.724513  0  2.196276  0
O  O38  1  0.60968270  0.12012252  0.97628719  1  0  -0.789703  0  1.944393  0  0  -0.739437  0  2.186646  0  0  -0.760831  0  2.172541  0  0  -0.445468  -0.724609  0  2.196153  0
O  O39  1  0.10960669  0.37983708  0.02373124  1  0  -0.789214  0  1.94462  0  0  -0.739015  0  2.186898  0  0  -0.760411  0  2.172809  0  0  -0.445352  -0.724183  0  2.196401  0
