# generated using pymatgen
data_ZnH12C18(NO2)2
_symmetry_space_group_name_H-M   'P 1'
_cell_length_a   8.63133152
_cell_length_b   10.19980057
_cell_length_c   10.15298710
_cell_angle_alpha   78.02181194
_cell_angle_beta   74.16281471
_cell_angle_gamma   79.44950261
_symmetry_Int_Tables_number   1
_chemical_formula_structural   ZnH12C18(NO2)2
_chemical_formula_sum   'Zn2 H24 C36 N4 O8'
_cell_volume   833.56485566
_cell_formula_units_Z   2
loop_
 _symmetry_equiv_pos_site_id
 _symmetry_equiv_pos_as_xyz
  1  'x, y, z'
loop_
 _atom_site_type_symbol
 _atom_site_label
 _atom_site_symmetry_multiplicity
 _atom_site_fract_x
 _atom_site_fract_y
 _atom_site_fract_z
 _atom_site_occupancy
 _atom_site_hle17_bader_spin_density
 _atom_site_hle17_ddec_charge
 _atom_site_hle17_ddec_spin_density
 _atom_site_hle17_ddec_sum_bond_order
 _atom_site_hle17_magmom
 _atom_site_hse06_10hf_bader_spin_density
 _atom_site_hse06_10hf_ddec_charge
 _atom_site_hse06_10hf_ddec_spin_density
 _atom_site_hse06_10hf_ddec_sum_bond_order
 _atom_site_hse06_10hf_magmom
 _atom_site_hse06_bader_spin_density
 _atom_site_hse06_ddec_charge
 _atom_site_hse06_ddec_spin_density
 _atom_site_hse06_ddec_sum_bond_order
 _atom_site_hse06_magmom
 _atom_site_pbe_bader_spin_density
 _atom_site_pbe_cm5_charge
 _atom_site_pbe_ddec_charge
 _atom_site_pbe_ddec_spin_density
 _atom_site_pbe_ddec_sum_bond_order
 _atom_site_pbe_magmom
Zn  Zn0  1  0.43113741  0.37135393  0.89608890  1  0  1.035612  0  1.817266  0  0  0.851733  0  2.27301  0  0  0.902616  0  2.217155  0  0  0.684592  0.813423  0  2.313571  0
Zn  Zn1  1  0.56886053  0.62864586  0.10391183  1  0  1.035652  0  1.817173  0  0  0.851772  0  2.272909  0  0  0.902654  0  2.217055  0  0  0.684611  0.813466  0  2.313471  0
H  H2  1  0.74261875  0.55546264  0.39727465  1  0  0.133468  0  0.996107  0  0  0.140582  0  1.059086  0  0  0.144974  0  1.056108  0  0  0.111433  0.137279  0  1.061577  0
H  H3  1  0.25737685  0.44453616  0.60272194  1  0  0.133415  0  0.996158  0  0  0.140557  0  1.059096  0  0  0.144924  0  1.056171  0  0  0.111427  0.137263  0  1.061568  0
H  H4  1  0.39221251  0.91334269  0.93334587  1  0  0.124868  0  0.955642  0  0  0.129494  0  1.026003  0  0  0.134233  0  1.021192  0  0  0.108928  0.126019  0  1.029626  0
H  H5  1  0.60778439  0.08665609  0.06665533  1  0  0.124915  0  0.955663  0  0  0.129543  0  1.026008  0  0  0.134281  0  1.021198  0  0  0.108941  0.126066  0  1.029632  0
H  H6  1  0.53090663  0.55096351  0.61723262  1  0  0.083525  0  0.969527  0  0  0.091094  0  1.034037  0  0  0.09338  0  1.032617  0  0  0.115909  0.089346  0  1.035147  0
H  H7  1  0.46908888  0.44903629  0.38276772  1  0  0.083542  0  0.969506  0  0  0.091131  0  1.033991  0  0  0.093418  0  1.032571  0  0  0.115929  0.089384  0  1.035097  0
H  H8  1  0.32363546  0.16580511  0.15754379  1  0  0.091852  0  0.943566  0  0  0.10049  0  1.005248  0  0  0.102681  0  1.003762  0  0  0.121163  0.098894  0  1.006199  0
H  H9  1  0.67636346  0.83419669  0.84246219  1  0  0.091879  0  0.94356  0  0  0.100551  0  1.005186  0  0  0.102744  0  1.003699  0  0  0.121199  0.098954  0  1.006137  0
H  H10  1  0.12523011  0.15975290  0.38779066  1  0  0.096911  0  0.972463  0  0  0.109259  0  1.03222  0  0  0.111906  0  1.031763  0  0  0.105409  0.107314  0  1.032641  0
H  H11  1  0.87476999  0.84024890  0.61221307  1  0  0.096906  0  0.972529  0  0  0.109274  0  1.032267  0  0  0.111921  0  1.031812  0  0  0.105404  0.107329  0  1.032687  0
H  H12  1  0.13683940  0.55813995  0.02244954  1  0  0.083829  0  0.953765  0  0  0.094032  0  1.01176  0  0  0.096011  0  1.010486  0  0  0.119615  0.092477  0  1.012848  0
H  H13  1  0.86315978  0.44185983  0.97755287  1  0  0.083871  0  0.953666  0  0  0.094042  0  1.011703  0  0  0.096034  0  1.010413  0  0  0.119627  0.092489  0  1.01279  0
H  H14  1  0.93243217  0.57206060  0.24340424  1  0  0.126472  0  0.975771  0  0  0.134731  0  1.037192  0  0  0.138604  0  1.03522  0  0  0.111239  0.131845  0  1.038837  0
H  H15  1  0.06756816  0.42793919  0.75659493  1  0  0.12647  0  0.975693  0  0  0.134728  0  1.037108  0  0  0.138603  0  1.035132  0  0  0.111221  0.13184  0  1.038757  0
H  H16  1  0.99238083  0.18901642  0.59305611  1  0  0.100578  0  0.970777  0  0  0.11081  0  1.033109  0  0  0.113547  0  1.03274  0  0  0.104887  0.108766  0  1.033575  0
H  H17  1  0.00761555  0.81098639  0.40695128  1  0  0.100527  0  0.970771  0  0  0.11077  0  1.033102  0  0  0.113505  0  1.032738  0  0  0.104879  0.108722  0  1.033565  0
H  H18  1  0.28670717  0.16890007  0.56635795  1  0  0.092258  0  0.952341  0  0  0.100664  0  1.018796  0  0  0.10419  0  1.016312  0  0  0.100338  0.09798  0  1.020746  0
H  H19  1  0.71330461  0.83109567  0.43363729  1  0  0.092344  0  0.952255  0  0  0.100694  0  1.018783  0  0  0.104263  0  1.016235  0  0  0.100356  0.098016  0  1.020736  0
H  H20  1  0.26747861  0.96352966  0.47337006  1  0  0.082493  0  0.959673  0  0  0.093115  0  1.019514  0  0  0.096025  0  1.01911  0  0  0.095161  0.091015  0  1.019925  0
H  H21  1  0.73253155  0.03646812  0.52662023  1  0  0.082443  0  0.959783  0  0  0.093114  0  1.019563  0  0  0.096028  0  1.019154  0  0  0.095142  0.091011  0  1.019976  0
H  H22  1  0.76384975  0.20058143  0.80298835  1  0  0.093463  0  0.917687  0  0  0.103717  0  0.97391  0  0  0.106498  0  0.971587  0  0  0.123665  0.101698  0  0.975453  0
H  H23  1  0.23614520  0.79942240  0.19701621  1  0  0.093458  0  0.917689  0  0  0.103719  0  0.973908  0  0  0.106501  0  0.971583  0  0  0.12368  0.1017  0  0.975451  0
H  H24  1  0.30433457  0.73557846  0.61598128  1  0  0.088617  0  0.98965  0  0  0.095967  0  1.058054  0  0  0.098732  0  1.056921  0  0  0.096258  0.094082  0  1.058678  0
H  H25  1  0.69567448  0.26441930  0.38401421  1  0  0.088548  0  0.989615  0  0  0.095902  0  1.058028  0  0  0.098666  0  1.056896  0  0  0.096256  0.094019  0  1.058649  0
C  C26  1  0.75655614  0.47460923  0.48386621  1  0  -0.161839  0  3.678521  0  0  -0.181975  0  3.929798  0  0  -0.189256  0  3.94893  0  0  -0.08073  -0.17729  0  3.917282  0
C  C27  1  0.24343512  0.52538752  0.51614073  1  0  -0.161738  0  3.678476  0  0  -0.181896  0  3.929772  0  0  -0.189168  0  3.948905  0  0  -0.080758  -0.177214  0  3.917258  0
C  C28  1  0.88868318  0.37083637  0.47299726  1  0  0.091331  0  3.753232  0  0  0.101128  0  3.987508  0  0  0.104914  0  4.008978  0  0  0.010909  0.098726  0  3.9729  0
C  C29  1  0.11131499  0.62916240  0.52700757  1  0  0.091274  0  3.753435  0  0  0.101026  0  3.987734  0  0  0.104816  0  4.0092  0  0  0.010919  0.098626  0  3.97312  0
C  C30  1  0.33855630  0.05296619  0.75559915  1  0  -0.061747  0  3.766587  0  0  -0.034298  0  3.994807  0  0  -0.043641  0  4.018022  0  0  -0.01984  -0.028663  0  3.9796  0
C  C31  1  0.66144959  0.94702855  0.24439577  1  0  -0.061771  0  3.766374  0  0  -0.034302  0  3.994559  0  0  -0.043661  0  4.017798  0  0  -0.019853  -0.028667  0  3.979355  0
C  C32  1  0.36125376  0.92411702  0.83408361  1  0  -0.074785  0  3.685535  0  0  -0.108973  0  3.92715  0  0  -0.105866  0  3.945118  0  0  -0.077528  -0.111126  0  3.916038  0
C  C33  1  0.63874430  0.07588176  0.16591534  1  0  -0.074838  0  3.68552  0  0  -0.109046  0  3.927118  0  0  -0.105935  0  3.945084  0  0  -0.077533  -0.111198  0  3.916007  0
C  C34  1  0.63578492  0.47283537  0.60635771  1  0  0.128898  0  3.700464  0  0  0.098841  0  3.950499  0  0  0.105236  0  3.969521  0  0  0.045596  0.094778  0  3.937552  0
C  C35  1  0.36420307  0.52716645  0.39364601  1  0  0.128899  0  3.700292  0  0  0.098814  0  3.950321  0  0  0.105208  0  3.969338  0  0  0.045627  0.094749  0  3.937379  0
C  C36  1  0.01232407  0.36728392  0.33961406  1  0  0.095578  0  3.747771  0  0  0.106784  0  3.980666  0  0  0.110492  0  4.002993  0  0  0.014883  0.104437  0  3.965399  0
C  C37  1  0.98767719  0.63271788  0.66038742  1  0  0.095477  0  3.748026  0  0  0.106781  0  3.980805  0  0  0.110491  0  4.00313  0  0  0.014867  0.104434  0  3.965536  0
C  C38  1  0.34636016  0.80985801  0.78453406  1  0  -0.081004  0  3.76989  0  0  -0.053733  0  4.001352  0  0  -0.064251  0  4.025467  0  0  -0.023681  -0.047052  0  3.9855  0
C  C39  1  0.65363997  0.19014280  0.21546297  1  0  -0.081145  0  3.76992  0  0  -0.053822  0  4.001335  0  0  -0.06434  0  4.025443  0  0  -0.023683  -0.047136  0  3.985484  0
C  C40  1  0.36991129  0.67159648  0.86934448  1  0  0.65905  0  3.892797  0  0  0.605325  0  4.187463  0  0  0.641234  0  4.177799  0  0  0.213164  0.580774  0  4.193322  0
C  C41  1  0.63008663  0.32840332  0.13065527  1  0  0.659216  0  3.892832  0  0  0.605454  0  4.187502  0  0  0.641367  0  4.17783  0  0  0.213154  0.580899  0  4.193372  0
C  C42  1  0.23555111  0.25376307  0.18276649  1  0  0.129967  0  3.698159  0  0  0.101504  0  3.942228  0  0  0.107873  0  3.962112  0  0  0.048239  0.097178  0  3.92864  0
C  C43  1  0.76444690  0.74623671  0.81723818  1  0  0.129894  0  3.698095  0  0  0.10142  0  3.942188  0  0  0.107785  0  3.962075  0  0  0.048208  0.097096  0  3.928599  0
C  C44  1  0.12471739  0.25203227  0.31132529  1  0  -0.163694  0  3.714882  0  0  -0.180793  0  3.958115  0  0  -0.188968  0  3.980812  0  0  -0.083532  -0.1752  0  3.942763  0
C  C45  1  0.87528118  0.74797155  0.68867839  1  0  -0.163587  0  3.714889  0  0  -0.180751  0  3.958103  0  0  -0.188928  0  3.980804  0  0  -0.0835  -0.175158  0  3.942749  0
C  C46  1  0.35846275  0.17435582  0.80773605  1  0  0.624603  0  3.945  0  0  0.578475  0  4.231362  0  0  0.61212  0  4.225713  0  0  0.192962  0.555748  0  4.23398  0
C  C47  1  0.64153735  0.82564499  0.19225902  1  0  0.624731  0  3.944656  0  0  0.578611  0  4.231006  0  0  0.612259  0  4.225358  0  0  0.193048  0.555885  0  4.233622  0
C  C48  1  0.13128583  0.47276802  0.10702544  1  0  0.142591  0  3.696378  0  0  0.109902  0  3.951248  0  0  0.117346  0  3.968753  0  0  0.05073  0.104839  0  3.939665  0
C  C49  1  0.86871202  0.52723277  0.89297905  1  0  0.142648  0  3.696323  0  0  0.109963  0  3.951211  0  0  0.117399  0  3.968711  0  0  0.050763  0.1049  0  3.939628  0
C  C50  1  0.01710497  0.47939372  0.23238995  1  0  -0.140165  0  3.659131  0  0  -0.160991  0  3.909097  0  0  -0.168381  0  3.929412  0  0  -0.07569  -0.156362  0  3.895739  0
C  C51  1  0.98289394  0.52060807  0.76761505  1  0  -0.140237  0  3.659181  0  0  -0.16106  0  3.909093  0  0  -0.168449  0  3.929408  0  0  -0.075704  -0.15643  0  3.895735  0
C  C52  1  0.89233170  0.27125687  0.59129556  1  0  -0.1621  0  3.69927  0  0  -0.177909  0  3.945212  0  0  -0.185477  0  3.966549  0  0  -0.079865  -0.17338  0  3.931296  0
C  C53  1  0.10766596  0.72874493  0.40870778  1  0  -0.161948  0  3.699207  0  0  -0.177759  0  3.945164  0  0  -0.185329  0  3.966508  0  0  -0.079827  -0.173223  0  3.931238  0
C  C54  1  0.30178983  0.06760544  0.62657332  1  0  -0.064618  0  3.741143  0  0  -0.0919  0  3.991923  0  0  -0.089371  0  4.010751  0  0  -0.084106  -0.092488  0  3.978503  0
C  C55  1  0.69822073  0.93239031  0.37342124  1  0  -0.0647  0  3.740944  0  0  -0.091953  0  3.991748  0  0  -0.089444  0  4.010573  0  0  -0.084126  -0.092551  0  3.978338  0
C  C56  1  0.29041738  0.95365069  0.57568208  1  0  -0.091944  0  3.800679  0  0  -0.102154  0  4.057267  0  0  -0.107589  0  4.07925  0  0  -0.099615  -0.098639  0  4.041808  0
C  C57  1  0.70959438  0.04634506  0.42431219  1  0  -0.091975  0  3.800751  0  0  -0.102224  0  4.057322  0  0  -0.107667  0  4.079313  0  0  -0.099608  -0.098708  0  4.041862  0
C  C58  1  0.76561696  0.27695499  0.71006195  1  0  0.135624  0  3.689878  0  0  0.105675  0  3.938764  0  0  0.112434  0  3.957133  0  0  0.051738  0.1013  0  3.926183  0
C  C59  1  0.23437796  0.72304884  0.28994066  1  0  0.13554  0  3.690156  0  0  0.105565  0  3.939031  0  0  0.112325  0  3.957402  0  0  0.051658  0.101193  0  3.926447  0
C  C60  1  0.31240762  0.82538513  0.65435214  1  0  -0.060157  0  3.736278  0  0  -0.087435  0  3.98439  0  0  -0.084513  0  4.003708  0  0  -0.087592  -0.088585  0  3.970567  0
C  C61  1  0.68759799  0.17461163  0.34564539  1  0  -0.059951  0  3.736124  0  0  -0.087242  0  3.984233  0  0  -0.084319  0  4.003549  0  0  -0.087565  -0.088392  0  3.970409  0
N  N62  1  0.24029257  0.36304702  0.08172613  1  0  -0.313999  0  3.264179  0  0  -0.234872  0  3.527983  0  0  -0.253739  0  3.544252  0  0  -0.316935  -0.221749  0  3.517  0
N  N63  1  0.75970643  0.63695378  0.91827512  1  0  -0.314036  0  3.264165  0  0  -0.234921  0  3.527996  0  0  -0.253787  0  3.544271  0  0  -0.316995  -0.221798  0  3.517015  0
N  N64  1  0.63772053  0.37535989  0.71780728  1  0  -0.304622  0  3.254969  0  0  -0.226993  0  3.514047  0  0  -0.245369  0  3.532157  0  0  -0.314838  -0.214586  0  3.501608  0
N  N65  1  0.36227195  0.62464395  0.28219394  1  0  -0.304628  0  3.255133  0  0  -0.226939  0  3.514148  0  0  -0.245315  0  3.53226  0  0  -0.3148  -0.214534  0  3.501711  0
O  O66  1  0.35568300  0.57091284  0.81820172  1  0  -0.632988  0  2.07067  0  0  -0.564129  0  2.337929  0  0  -0.591258  0  2.323903  0  0  -0.311856  -0.544643  0  2.347866  0
O  O67  1  0.64431749  0.42908594  0.18179762  1  0  -0.633073  0  2.070614  0  0  -0.564204  0  2.337882  0  0  -0.591335  0  2.323856  0  0  -0.311859  -0.544719  0  2.347825  0
O  O68  1  0.44145784  0.15700873  0.89824077  1  0  -0.632255  0  1.99603  0  0  -0.574935  0  2.245275  0  0  -0.602783  0  2.234812  0  0  -0.323256  -0.554619  0  2.251106  0
O  O69  1  0.55853596  0.84299410  0.10175837  1  0  -0.632263  0  1.995768  0  0  -0.574982  0  2.245046  0  0  -0.602828  0  2.234577  0  0  -0.323294  -0.554675  0  2.250898  0
O  O70  1  0.39751372  0.66199520  0.98733162  1  0  -0.654459  0  2.137748  0  0  -0.596314  0  2.425701  0  0  -0.623018  0  2.410485  0  0  -0.322199  -0.576898  0  2.435052  0
O  O71  1  0.60248453  0.33800257  0.01266848  1  0  -0.654457  0  2.137818  0  0  -0.596299  0  2.425762  0  0  -0.623007  0  2.410546  0  0  -0.322159  -0.57688  0  2.435115  0
O  O72  1  0.29581506  0.29125820  0.75944424  1  0  -0.641209  0  1.981591  0  0  -0.585936  0  2.217553  0  0  -0.61158  0  2.207802  0  0  -0.32557  -0.566662  0  2.224096  0
O  O73  1  0.70419339  0.70874261  0.24054485  1  0  -0.6413  0  1.981521  0  0  -0.586013  0  2.217482  0  0  -0.611667  0  2.207733  0  0  -0.325637  -0.566733  0  2.224022  0
