# generated using pymatgen
data_ZnH18C28(NO2)4
_symmetry_space_group_name_H-M   'P 1'
_cell_length_a   9.38859971
_cell_length_b   10.25410549
_cell_length_c   14.08922942
_cell_angle_alpha   73.10453687
_cell_angle_beta   71.68661639
_cell_angle_gamma   83.39818281
_symmetry_Int_Tables_number   1
_chemical_formula_structural   ZnH18C28(NO2)4
_chemical_formula_sum   'Zn2 H36 C56 N8 O16'
_cell_volume   1231.69648884
_cell_formula_units_Z   2
loop_
 _symmetry_equiv_pos_site_id
 _symmetry_equiv_pos_as_xyz
  1  'x, y, z'
loop_
 _atom_site_type_symbol
 _atom_site_label
 _atom_site_symmetry_multiplicity
 _atom_site_fract_x
 _atom_site_fract_y
 _atom_site_fract_z
 _atom_site_occupancy
 _atom_site_pbe_bader_spin_density
 _atom_site_pbe_cm5_charge
 _atom_site_pbe_ddec_charge
 _atom_site_pbe_ddec_spin_density
 _atom_site_pbe_ddec_sum_bond_order
 _atom_site_pbe_magmom
Zn  Zn0  1  0.83910080  0.99178035  0.72793171  1  0  0.68036  0.795293  0  2.322004  0
Zn  Zn1  1  0.16089915  0.00822147  0.27206833  1  0  0.680352  0.795305  0  2.322001  0
H  H2  1  0.63889436  0.96453258  0.96068305  1  0  0.118059  0.094266  0  0.992828  0
H  H3  1  0.36110564  0.03546821  0.03931791  1  0  0.118043  0.094248  0  0.992833  0
H  H4  1  0.67945540  0.87264548  0.13525164  1  0  0.106932  0.112085  0  1.014206  0
H  H5  1  0.32054247  0.12735324  0.86474949  1  0  0.106937  0.112072  0  1.014147  0
H  H6  1  0.93718680  0.78604722  0.14659391  1  0  0.115815  0.136022  0  0.988781  0
H  H7  1  0.06281107  0.21395150  0.85340651  1  0  0.115809  0.136032  0  0.988789  0
H  H8  1  0.13073997  0.98899291  0.53615343  1  0  0.123795  0.104263  0  1.003345  0
H  H9  1  0.86926345  0.01100694  0.46384630  1  0  0.123799  0.104253  0  1.003345  0
H  H10  1  0.39809152  0.91362908  0.51647006  1  0  0.113203  0.11762  0  0.989832  0
H  H11  1  0.60191073  0.08637176  0.48353184  1  0  0.113201  0.117649  0  0.989772  0
H  H12  1  0.48606137  0.82845153  0.67561757  1  0  0.112809  0.11779  0  1.000307  0
H  H13  1  0.51393863  0.17154926  0.32438551  1  0  0.11281  0.117777  0  1.000305  0
H  H14  1  0.68181798  0.62845435  0.91334146  1  0  0.104298  0.118867  0  1.033656  0
H  H15  1  0.31818063  0.37155152  0.08665801  1  0  0.104283  0.118852  0  1.033639  0
H  H16  1  0.86565045  0.51284613  0.00612015  1  0  0.103431  0.109437  0  1.042517  0
H  H17  1  0.13434715  0.48715769  0.99387855  1  0  0.103422  0.109449  0  1.042426  0
H  H18  1  0.54975230  0.54478858  0.29683257  1  0  0.109027  0.110513  0  1.006578  0
H  H19  1  0.45024158  0.45520087  0.70316992  1  0  0.109037  0.110542  0  1.00664  0
H  H20  1  0.37033858  0.66606116  0.20396429  1  0  0.101992  0.097054  0  1.069822  0
H  H21  1  0.62965854  0.33393041  0.79603707  1  0  0.101941  0.096994  0  1.069774  0
H  H22  1  0.74865954  0.79744682  0.49810276  1  0  0.101282  0.111761  0  1.040326  0
H  H23  1  0.25135508  0.20255327  0.50189244  1  0  0.101279  0.111832  0  1.040193  0
H  H24  1  0.78497164  0.37506500  0.49600210  1  0  0.109638  0.136089  0  1.010432  0
H  H25  1  0.21502836  0.62493581  0.50399673  1  0  0.109643  0.136085  0  1.01043  0
H  H26  1  0.87731204  0.48918882  0.74088362  1  0  0.099923  0.097989  0  1.048561  0
H  H27  1  0.12268801  0.51081097  0.25911470  1  0  0.09995  0.09803  0  1.048576  0
H  H28  1  0.20244050  0.72593068  0.12631993  1  0  0.308042  0.297879  0  0.999914  0
H  H29  1  0.79755491  0.27407207  0.87368158  1  0  0.30802  0.297828  0  0.999951  0
H  H30  1  0.03154699  0.36733706  0.19686829  1  0  0.304474  0.371796  0  0.969141  0
H  H31  1  0.96845200  0.63266168  0.80313189  1  0  0.304453  0.371805  0  0.969115  0
H  H32  1  0.73978599  0.55345009  0.36556890  1  0  0.297768  0.34831  0  0.995089  0
H  H33  1  0.26021626  0.44655076  0.63443016  1  0  0.297759  0.348231  0  0.995114  0
H  H34  1  0.54819670  0.90633627  0.82484629  1  0  0.288112  0.354889  0  1.000784  0
H  H35  1  0.45180218  0.09366451  0.17515420  1  0  0.288106  0.354877  0  1.000801  0
H  H36  1  0.55739707  0.04314637  0.73553373  1  0  0.323838  0.400939  0  0.8715  0
H  H37  1  0.44260069  0.95685438  0.26446699  1  0  0.323824  0.400919  0  0.871517  0
C  C38  1  0.74917820  0.92648165  0.96817883  1  0  0.053741  0.105592  0  3.925299  0
C  C39  1  0.25082169  0.07352118  0.03182243  1  0  0.053679  0.105508  0  3.925273  0
C  C40  1  0.77333624  0.87508456  0.06579390  1  0  -0.080245  -0.122635  0  3.995444  0
C  C41  1  0.22666168  0.12491314  0.93420814  1  0  -0.080246  -0.122556  0  3.995383  0
C  C42  1  0.91488923  0.82663114  0.07173791  1  0  -0.060619  -0.061173  0  3.886063  0
C  C43  1  0.08510970  0.17336862  0.92826349  1  0  -0.060634  -0.061248  0  3.886117  0
C  C44  1  0.03196445  0.83270586  0.97870867  1  0  0.004105  -0.009808  0  3.998886  0
C  C45  1  0.96803325  0.16729592  0.02129114  1  0  0.004097  -0.009865  0  3.998826  0
C  C46  1  0.99882586  0.88810094  0.88264996  1  0  0.122618  0.127225  0  3.956279  0
C  C47  1  0.00117073  0.11190081  0.11735081  1  0  0.122594  0.127304  0  3.956224  0
C  C48  1  0.11448881  0.89840099  0.78384206  1  0  0.121254  0.124471  0  3.96184  0
C  C49  1  0.88550884  0.10160180  0.21615897  1  0  0.121362  0.124572  0  3.961772  0
C  C50  1  0.17100793  0.95107145  0.60417618  1  0  0.064311  0.116063  0  3.898673  0
C  C51  1  0.82899543  0.04892941  0.39582406  1  0  0.064318  0.116157  0  3.898687  0
C  C52  1  0.32194783  0.90997752  0.59353336  1  0  -0.073674  -0.110136  0  3.959014  0
C  C53  1  0.67805329  0.09002329  0.40646877  1  0  -0.073704  -0.11028  0  3.958942  0
C  C54  1  0.37006843  0.86312142  0.68120033  1  0  -0.063131  -0.071139  0  3.921187  0
C  C55  1  0.62993270  0.13687939  0.31880180  1  0  -0.063091  -0.071008  0  3.92124  0
C  C56  1  0.26538417  0.85616180  0.77955279  1  0  0.000409  -0.011893  0  4.007934  0
C  C57  1  0.73461241  0.14383995  0.22044939  1  0  0.000354  -0.011958  0  4.0081  0
C  C58  1  0.29758468  0.80410526  0.87658492  1  0  0.088167  0.079115  0  4.10924  0
C  C59  1  0.70241308  0.19589549  0.12341651  1  0  0.08811  0.07903  0  4.109244  0
C  C60  1  0.18435288  0.79102632  0.97132774  1  0  0.098488  0.095537  0  4.024753  0
C  C61  1  0.81564365  0.20897644  0.02867281  1  0  0.098574  0.095659  0  4.024584  0
C  C62  1  0.40381687  0.71862893  0.99783998  1  0  0.225274  0.299985  0  3.996829  0
C  C63  1  0.59617972  0.28137281  0.00216291  1  0  0.225269  0.299975  0  3.996629  0
C  C64  1  0.51300872  0.65471499  0.05241080  1  0  -0.00135  0.015484  0  4.022317  0
C  C65  1  0.48698813  0.34528167  0.94758955  1  0  -0.001322  0.01552  0  4.022178  0
C  C66  1  0.65372975  0.61049116  0.99709135  1  0  -0.083718  -0.101027  0  3.919957  0
C  C67  1  0.34626796  0.38951062  0.00290775  1  0  -0.08368  -0.100947  0  3.919974  0
C  C68  1  0.75645021  0.54556648  0.04925103  1  0  -0.082564  -0.081244  0  3.95173  0
C  C69  1  0.24354883  0.45443124  0.95074722  1  0  -0.082588  -0.081404  0  3.951935  0
C  C70  1  0.72057815  0.52173249  0.15731287  1  0  -0.022335  -0.062592  0  4.005262  0
C  C71  1  0.27941999  0.47826113  0.84268643  1  0  -0.022313  -0.06254  0  4.005263  0
C  C72  1  0.57973407  0.56452602  0.21271997  1  0  -0.077065  -0.077936  0  3.952103  0
C  C73  1  0.42026429  0.43546353  0.78727943  1  0  -0.077063  -0.077955  0  3.952269  0
C  C74  1  0.47796898  0.63160012  0.16044560  1  0  -0.087097  -0.109697  0  3.955531  0
C  C75  1  0.52202681  0.36839549  0.83955590  1  0  -0.08713  -0.109741  0  3.955521  0
C  C76  1  0.82935604  0.45236885  0.21404798  1  0  0.230964  0.57414  0  4.130972  0
C  C77  1  0.17064301  0.54762889  0.78594530  1  0  0.231092  0.574386  0  4.130985  0
C  C78  1  0.82213995  0.75953190  0.67735540  1  0  0.211352  0.580447  0  4.16721  0
C  C79  1  0.17786566  0.24046903  0.32264010  1  0  0.21142  0.58041  0  4.167191  0
C  C80  1  0.81367977  0.65468735  0.62519851  1  0  -0.024126  -0.028995  0  4.029259  0
C  C81  1  0.18632813  0.34531259  0.37479884  1  0  -0.024164  -0.028964  0  4.029229  0
C  C82  1  0.77252904  0.69124679  0.53344976  1  0  -0.094018  -0.201584  0  3.910207  0
C  C83  1  0.22748105  0.30875423  0.46654620  1  0  -0.09402  -0.201698  0  3.910108  0
C  C84  1  0.76334126  0.59153652  0.48571197  1  0  0.080583  0.327489  0  4.08162  0
C  C85  1  0.23666877  0.40846552  0.51428378  1  0  0.080664  0.327597  0  4.081609  0
C  C86  1  0.79327043  0.45413980  0.53137038  1  0  -0.09253  -0.216615  0  3.901432  0
C  C87  1  0.20673186  0.54586003  0.46862888  1  0  -0.092567  -0.216674  0  3.901536  0
C  C88  1  0.83423024  0.41814877  0.62307252  1  0  -0.02329  -0.027582  0  4.024317  0
C  C89  1  0.16577206  0.58185105  0.37692745  1  0  -0.023301  -0.027528  0  4.024423  0
C  C90  1  0.84565639  0.51822507  0.66953305  1  0  -0.093798  -0.138559  0  3.984193  0
C  C91  1  0.15434574  0.48177781  0.33046631  1  0  -0.093807  -0.138641  0  3.984274  0
C  C92  1  0.85565478  0.27142946  0.67689706  1  0  0.205731  0.576844  0  4.194088  0
C  C93  1  0.14434079  0.72857022  0.32310435  1  0  0.20569  0.576781  0  4.194158  0
N  N94  1  0.07174629  0.94602419  0.69650772  1  0  -0.314726  -0.249395  0  3.547102  0
N  N95  1  0.92825590  0.05397767  0.30349185  1  0  -0.314724  -0.2495  0  3.547201  0
N  N96  1  0.85817307  0.93200187  0.87962377  1  0  -0.314498  -0.247623  0  3.55445  0
N  N97  1  0.14182351  0.06799988  0.12037770  1  0  -0.314442  -0.247613  0  3.554331  0
N  N98  1  0.43343584  0.76085118  0.89393371  1  0  -0.332924  -0.400141  0  3.263591  0
N  N99  1  0.56656075  0.23915056  0.10606847  1  0  -0.332848  -0.400028  0  3.263394  0
N  N100  1  0.25402502  0.73640301  0.04684086  1  0  -0.363097  -0.291035  0  3.559095  0
N  N101  1  0.74597162  0.26359772  0.95316081  1  0  -0.363162  -0.291062  0  3.559092  0
O  O102  1  0.96013865  0.41939862  0.15395138  1  0  -0.322408  -0.48092  0  2.354354  0
O  O103  1  0.03985708  0.58059801  0.84604992  1  0  -0.32247  -0.481071  0  2.354126  0
O  O104  1  0.80053507  0.42678619  0.30986330  1  0  -0.291347  -0.514129  0  2.211742  0
O  O105  1  0.19946179  0.57321046  0.69013990  1  0  -0.291378  -0.51415  0  2.21208  0
O  O106  1  0.79529955  0.88541618  0.63556622  1  0  -0.321119  -0.552071  0  2.270278  0
O  O107  1  0.20471278  0.11458487  0.36443068  1  0  -0.321184  -0.552113  0  2.270205  0
O  O108  1  0.85287952  0.72399120  0.76330563  1  0  -0.314098  -0.566953  0  2.315625  0
O  O109  1  0.14712053  0.27600858  0.23669553  1  0  -0.314103  -0.566904  0  2.315726  0
O  O110  1  0.83039844  0.18129469  0.63708260  1  0  -0.328579  -0.533866  0  2.266278  0
O  O111  1  0.16960050  0.81870507  0.36291667  1  0  -0.32856  -0.533849  0  2.266312  0
O  O112  1  0.89069970  0.24092978  0.76079246  1  0  -0.328535  -0.584638  0  2.23172  0
O  O113  1  0.10929133  0.75907084  0.23921041  1  0  -0.328509  -0.584606  0  2.231727  0
O  O114  1  0.72357483  0.63208239  0.39660451  1  0  -0.377551  -0.478824  0  2.267549  0
O  O115  1  0.27643302  0.36791859  0.60339121  1  0  -0.377549  -0.478761  0  2.267645  0
O  O116  1  0.58828119  0.00114457  0.79769411  1  0  -0.561351  -0.723048  0  2.106777  0
O  O117  1  0.41171892  0.99885420  0.20230512  1  0  -0.561336  -0.723014  0  2.106767  0
