# generated using pymatgen
data_CdH18C23(NO3)2
_symmetry_space_group_name_H-M   'P 1'
_cell_length_a   6.57986553
_cell_length_b   12.32611715
_cell_length_c   13.85788011
_cell_angle_alpha   111.57128369
_cell_angle_beta   93.89385165
_cell_angle_gamma   102.16594693
_symmetry_Int_Tables_number   1
_chemical_formula_structural   CdH18C23(NO3)2
_chemical_formula_sum   'Cd2 H36 C46 N4 O12'
_cell_volume   1008.58710414
_cell_formula_units_Z   2
loop_
 _symmetry_equiv_pos_site_id
 _symmetry_equiv_pos_as_xyz
  1  'x, y, z'
loop_
 _atom_site_type_symbol
 _atom_site_label
 _atom_site_symmetry_multiplicity
 _atom_site_fract_x
 _atom_site_fract_y
 _atom_site_fract_z
 _atom_site_occupancy
 _atom_site_hle17_bader_spin_density
 _atom_site_hle17_ddec_charge
 _atom_site_hle17_ddec_spin_density
 _atom_site_hle17_ddec_sum_bond_order
 _atom_site_hle17_magmom
 _atom_site_hse06_10hf_bader_spin_density
 _atom_site_hse06_10hf_ddec_charge
 _atom_site_hse06_10hf_ddec_spin_density
 _atom_site_hse06_10hf_ddec_sum_bond_order
 _atom_site_hse06_10hf_magmom
 _atom_site_hse06_bader_spin_density
 _atom_site_hse06_ddec_charge
 _atom_site_hse06_ddec_spin_density
 _atom_site_hse06_ddec_sum_bond_order
 _atom_site_hse06_magmom
 _atom_site_pbe_bader_spin_density
 _atom_site_pbe_cm5_charge
 _atom_site_pbe_ddec_charge
 _atom_site_pbe_ddec_spin_density
 _atom_site_pbe_ddec_sum_bond_order
 _atom_site_pbe_magmom
Cd  Cd0  1  0.69307605  0.63981007  0.10089619  1  0  1.154729  0  1.591827  0  0  0.965357  0  2.027803  0  0  1.026925  0  1.975334  0  0  0.777493  0.921576  0  2.063539  0
Cd  Cd1  1  0.30692342  0.36019698  0.89910299  1  0  1.154794  0  1.591699  0  0  0.96543  0  2.027627  0  0  1.027001  0  1.975155  0  0  0.777536  0.921657  0  2.063367  0
H  H2  1  0.51796595  0.81657725  0.28599221  1  0  0.299799  0  0.952903  0  0  0.277214  0  1.026064  0  0  0.285295  0  1.020094  0  0  0.301276  0.271471  0  1.030334  0
H  H3  1  0.48204597  0.18342061  0.71400007  1  0  0.299815  0  0.952815  0  0  0.277202  0  1.026022  0  0  0.285283  0  1.020054  0  0  0.30128  0.27146  0  1.030296  0
H  H4  1  0.05307917  0.48446530  0.08022906  1  0  0.097151  0  0.971483  0  0  0.10499  0  1.03873  0  0  0.108119  0  1.035963  0  0  0.100911  0.102728  0  1.040728  0
H  H5  1  0.94693155  0.51553987  0.91978360  1  0  0.097059  0  0.971495  0  0  0.104866  0  1.038797  0  0  0.107994  0  1.036029  0  0  0.100849  0.102608  0  1.040795  0
H  H6  1  0.34304785  0.46624635  0.19215615  1  0  0.121002  0  0.963352  0  0  0.129814  0  1.023814  0  0  0.133078  0  1.022569  0  0  0.105027  0.127471  0  1.02482  0
H  H7  1  0.65694867  0.53374808  0.80784893  1  0  0.121001  0  0.9633  0  0  0.129762  0  1.023818  0  0  0.133024  0  1.02258  0  0  0.105012  0.127421  0  1.024826  0
H  H8  1  0.91476016  0.18221063  0.24290168  1  0  0.127336  0  0.971034  0  0  0.133288  0  1.036529  0  0  0.137274  0  1.034697  0  0  0.105991  0.130453  0  1.037914  0
H  H9  1  0.08523473  0.81779650  0.75710964  1  0  0.127335  0  0.97104  0  0  0.13332  0  1.0365  0  0  0.137299  0  1.034691  0  0  0.105985  0.130469  0  1.037896  0
H  H10  1  0.62506365  0.19776685  0.12581310  1  0  0.098701  0  0.946369  0  0  0.108873  0  1.006757  0  0  0.11251  0  1.003503  0  0  0.103391  0.106202  0  1.00922  0
H  H11  1  0.37494010  0.80224290  0.87419721  1  0  0.098654  0  0.946475  0  0  0.108786  0  1.006904  0  0  0.112446  0  1.00361  0  0  0.103362  0.106112  0  1.009367  0
H  H12  1  0.59198435  0.26499952  0.38728033  1  0  0.128425  0  0.95527  0  0  0.137172  0  1.015615  0  0  0.141101  0  1.013553  0  0  0.108965  0.13435  0  1.017255  0
H  H13  1  0.40802451  0.73499840  0.61272269  1  0  0.128356  0  0.955161  0  0  0.137082  0  1.01559  0  0  0.141015  0  1.013522  0  0  0.108901  0.134256  0  1.01723  0
H  H14  1  0.60465056  0.29138896  0.57488898  1  0  0.095831  0  0.94021  0  0  0.107112  0  0.999459  0  0  0.110734  0  0.996199  0  0  0.104405  0.104474  0  1.001865  0
H  H15  1  0.39534598  0.70860545  0.42511250  1  0  0.095849  0  0.940155  0  0  0.107164  0  0.999365  0  0  0.110789  0  0.9961  0  0  0.10442  0.104523  0  1.00177  0
H  H16  1  0.04333525  0.41877339  0.58846201  1  0  0.099669  0  0.946729  0  0  0.110227  0  1.006211  0  0  0.113507  0  1.003648  0  0  0.105282  0.107866  0  1.008063  0
H  H17  1  0.95666026  0.58121561  0.41153839  1  0  0.099746  0  0.946629  0  0  0.110193  0  1.006233  0  0  0.113474  0  1.003668  0  0  0.105284  0.107829  0  1.00809  0
H  H18  1  0.03530228  0.40024173  0.40289650  1  0  0.108987  0  0.967148  0  0  0.120779  0  1.024937  0  0  0.123217  0  1.02534  0  0  0.105788  0.119012  0  1.024835  0
H  H19  1  0.96469086  0.59974547  0.59710180  1  0  0.108997  0  0.967099  0  0  0.120799  0  1.02488  0  0  0.123238  0  1.025282  0  0  0.105774  0.119049  0  1.024763  0
H  H20  1  0.83179932  0.86819118  0.04820260  1  0  0.093568  0  0.957915  0  0  0.102178  0  1.022175  0  0  0.105423  0  1.01906  0  0  0.11595  0.099766  0  1.02451  0
H  H21  1  0.16821107  0.13180670  0.95179180  1  0  0.093636  0  0.957807  0  0  0.102197  0  1.02212  0  0  0.105449  0  1.019005  0  0  0.115952  0.099783  0  1.024457  0
H  H22  1  0.14136347  0.04675422  0.08693244  1  0  0.102021  0  0.952443  0  0  0.114101  0  1.008842  0  0  0.116389  0  1.009074  0  0  0.109481  0.112434  0  1.008878  0
H  H23  1  0.85864086  0.95324371  0.91306178  1  0  0.102019  0  0.952361  0  0  0.114107  0  1.008765  0  0  0.116396  0  1.008994  0  0  0.109477  0.112437  0  1.008799  0
H  H24  1  0.47324532  0.06419344  0.19799262  1  0  0.122192  0  0.963599  0  0  0.131421  0  1.021606  0  0  0.135245  0  1.018149  0  0  0.115292  0.128622  0  1.024147  0
H  H25  1  0.52675596  0.93580453  0.80200367  1  0  0.122203  0  0.963627  0  0  0.131456  0  1.021584  0  0  0.13528  0  1.018129  0  0  0.115313  0.128656  0  1.024122  0
H  H26  1  0.16463057  0.72957359  0.21919470  1  0  0.113117  0  0.925551  0  0  0.122566  0  0.98586  0  0  0.126002  0  0.982718  0  0  0.125269  0.120027  0  0.988237  0
H  H27  1  0.83535968  0.27042358  0.78079953  1  0  0.113135  0  0.92548  0  0  0.122596  0  0.985795  0  0  0.126026  0  0.98266  0  0  0.125258  0.12006  0  0.988177  0
H  H28  1  0.83898232  0.86812188  0.36709569  1  0  0.066263  0  0.943358  0  0  0.079315  0  1.002972  0  0  0.080287  0  1.003589  0  0  0.098628  0.078596  0  1.00262  0
H  H29  1  0.16101115  0.13187887  0.63289764  1  0  0.066118  0  0.94336  0  0  0.079257  0  1.002909  0  0  0.080228  0  1.003526  0  0  0.098579  0.078541  0  1.002562  0
H  H30  1  0.11854450  0.02189427  0.33959704  1  0  0.061414  0  0.972853  0  0  0.076327  0  1.039547  0  0  0.076044  0  1.042529  0  0  0.082883  0.076431  0  1.037631  0
H  H31  1  0.88144595  0.97810651  0.66039258  1  0  0.061469  0  0.972987  0  0  0.076319  0  1.039726  0  0  0.076045  0  1.0427  0  0  0.08291  0.076421  0  1.037809  0
H  H32  1  0.07202037  0.13508068  0.45088825  1  0  0.070411  0  0.966973  0  0  0.085054  0  1.035929  0  0  0.08526  0  1.037997  0  0  0.088018  0.084821  0  1.034605  0
H  H33  1  0.92796636  0.86492195  0.54910619  1  0  0.070413  0  0.967069  0  0  0.085055  0  1.03602  0  0  0.085259  0  1.038094  0  0  0.088004  0.084823  0  1.034683  0
H  H34  1  0.22615785  0.91566685  0.45058557  1  0  0.067178  0  0.924602  0  0  0.086795  0  0.984994  0  0  0.087758  0  0.984982  0  0  0.088565  0.086046  0  0.9851  0
H  H35  1  0.77383781  0.08433206  0.54940290  1  0  0.06712  0  0.924724  0  0  0.086749  0  0.985093  0  0  0.087711  0  0.985089  0  0  0.08855  0.085986  0  0.98522  0
H  H36  1  0.38212618  0.06607294  0.49428826  1  0  0.067874  0  0.954041  0  0  0.083029  0  1.022835  0  0  0.083663  0  1.023797  0  0  0.087644  0.082561  0  1.022155  0
H  H37  1  0.61786468  0.93392875  0.50570457  1  0  0.067954  0  0.954017  0  0  0.083122  0  1.022777  0  0  0.083758  0  1.023741  0  0  0.087673  0.082647  0  1.022099  0
C  C38  1  0.64656666  0.35172981  0.02827228  1  0  0.649261  0  3.892371  0  0  0.597079  0  4.181152  0  0  0.633018  0  4.175354  0  0  0.201406  0.572605  0  4.184229  0
C  C39  1  0.35343370  0.64827272  0.97173268  1  0  0.649433  0  3.89236  0  0  0.597234  0  4.18117  0  0  0.633175  0  4.175367  0  0  0.201389  0.572753  0  4.18426  0
C  C40  1  0.82014479  0.34140954  0.09550236  1  0  -0.087239  0  3.784573  0  0  -0.067538  0  4.02197  0  0  -0.078488  0  4.047101  0  0  -0.028938  -0.06041  0  4.004978  0
C  C41  1  0.17986230  0.65859112  0.90450366  1  0  -0.087304  0  3.784829  0  0  -0.067612  0  4.022227  0  0  -0.078569  0  4.047365  0  0  -0.028948  -0.060481  0  4.005238  0
C  C42  1  0.02262290  0.41694340  0.11412519  1  0  -0.037801  0  3.739597  0  0  -0.062819  0  3.994956  0  0  -0.060381  0  4.013923  0  0  -0.083381  -0.064116  0  3.982018  0
C  C43  1  0.97738291  0.58305457  0.88588280  1  0  -0.037692  0  3.739593  0  0  -0.062656  0  3.994888  0  0  -0.060211  0  4.013854  0  0  -0.08333  -0.06396  0  3.98196  0
C  C44  1  0.18639848  0.40673766  0.17619500  1  0  -0.160754  0  3.711369  0  0  -0.183017  0  3.964994  0  0  -0.189134  0  3.984505  0  0  -0.097447  -0.179012  0  3.951867  0
C  C45  1  0.81360691  0.59325940  0.82380979  1  0  -0.160788  0  3.711309  0  0  -0.18303  0  3.964969  0  0  -0.18915  0  3.984482  0  0  -0.097463  -0.179029  0  3.951859  0
C  C46  1  0.14621415  0.32225835  0.22174113  1  0  0.279725  0  3.776204  0  0  0.270926  0  4.03659  0  0  0.282297  0  4.052343  0  0  0.089274  0.263229  0  4.02574  0
C  C47  1  0.85379058  0.67774052  0.77826279  1  0  0.279645  0  3.77608  0  0  0.270849  0  4.036482  0  0  0.282221  0  4.052236  0  0  0.08922  0.263127  0  4.025634  0
C  C48  1  0.94523214  0.24591841  0.20477937  1  0  -0.199052  0  3.746901  0  0  -0.218749  0  4.000919  0  0  -0.225729  0  4.020689  0  0  -0.100431  -0.214019  0  3.987514  0
C  C49  1  0.05477252  0.75408681  0.79522805  1  0  -0.198892  0  3.746576  0  0  -0.218632  0  4.000584  0  0  -0.225619  0  4.020356  0  0  -0.100382  -0.213894  0  3.987187  0
C  C50  1  0.78339540  0.25572310  0.14082647  1  0  -0.034709  0  3.726408  0  0  -0.059634  0  3.976245  0  0  -0.056712  0  3.995262  0  0  -0.079382  -0.061337  0  3.963305  0
C  C51  1  0.21660907  0.74427850  0.85918410  1  0  -0.034655  0  3.726469  0  0  -0.059541  0  3.97632  0  0  -0.056628  0  3.995317  0  0  -0.079347  -0.061244  0  3.963371  0
C  C52  1  0.31234220  0.33009262  0.38414172  1  0  0.301368  0  3.759265  0  0  0.291045  0  4.019865  0  0  0.304396  0  4.034253  0  0  0.09736  0.282066  0  4.009928  0
C  C53  1  0.68766636  0.66991437  0.61586423  1  0  0.301353  0  3.759249  0  0  0.291005  0  4.019884  0  0  0.304357  0  4.03427  0  0  0.097371  0.281998  0  4.009957  0
C  C54  1  0.47512774  0.30108860  0.43247251  1  0  -0.183179  0  3.717809  0  0  -0.20542  0  3.974377  0  0  -0.212376  0  3.993357  0  0  -0.098939  -0.200841  0  3.96155  0
C  C55  1  0.52488537  0.69891834  0.56753214  1  0  -0.182976  0  3.717616  0  0  -0.205254  0  3.974276  0  0  -0.212209  0  3.993259  0  0  -0.098958  -0.200678  0  3.961454  0
C  C56  1  0.47999466  0.31463173  0.53662481  1  0  -0.035509  0  3.740815  0  0  -0.060441  0  3.994133  0  0  -0.056979  0  4.012918  0  0  -0.080321  -0.062462  0  3.981274  0
C  C57  1  0.52001801  0.68537431  0.46338170  1  0  -0.035565  0  3.740728  0  0  -0.060495  0  3.994043  0  0  -0.057036  0  4.012834  0  0  -0.080285  -0.062514  0  3.981177  0
C  C58  1  0.32235454  0.35516296  0.59294759  1  0  -0.100357  0  3.798622  0  0  -0.08149  0  4.040438  0  0  -0.092373  0  4.063873  0  0  -0.033456  -0.074477  0  4.024667  0
C  C59  1  0.67765171  0.64483589  0.40705492  1  0  -0.100454  0  3.798594  0  0  -0.081585  0  4.040369  0  0  -0.092469  0  4.063806  0  0  -0.033488  -0.074574  0  4.024593  0
C  C60  1  0.16410783  0.38681870  0.54392072  1  0  -0.033261  0  3.743051  0  0  -0.056878  0  3.991022  0  0  -0.052701  0  4.00828  0  0  -0.079041  -0.059383  0  3.979193  0
C  C61  1  0.83589047  0.61317298  0.45607920  1  0  -0.03322  0  3.743093  0  0  -0.056748  0  3.991033  0  0  -0.052571  0  4.008292  0  0  -0.079055  -0.059258  0  3.979212  0
C  C62  1  0.15900817  0.37581021  0.44036077  1  0  -0.197979  0  3.757333  0  0  -0.217659  0  4.008638  0  0  -0.225379  0  4.029417  0  0  -0.102627  -0.212547  0  3.994624  0
C  C63  1  0.84099480  0.62419139  0.55964325  1  0  -0.19807  0  3.757376  0  0  -0.217734  0  4.008633  0  0  -0.225454  0  4.029412  0  0  -0.102619  -0.212644  0  3.994624  0
C  C64  1  0.31366756  0.35865527  0.70047470  1  0  0.619643  0  3.939223  0  0  0.569788  0  4.232097  0  0  0.605056  0  4.225278  0  0  0.188502  0.54585  0  4.235937  0
C  C65  1  0.68632487  0.64134008  0.29952117  1  0  0.619743  0  3.939002  0  0  0.569925  0  4.23184  0  0  0.605193  0  4.225016  0  0  0.188548  0.545986  0  4.235679  0
C  C66  1  0.98075108  0.87976870  0.09484234  1  0  0.097721  0  3.717983  0  0  0.05949  0  3.977032  0  0  0.065701  0  3.996312  0  0  0.033719  0.055514  0  3.963771  0
C  C67  1  0.01925434  0.12022832  0.90515090  1  0  0.09768  0  3.718082  0  0  0.059491  0  3.977083  0  0  0.065691  0  3.996376  0  0  0.033741  0.055517  0  3.96382  0
C  C68  1  0.15281681  0.97750087  0.11671904  1  0  -0.095783  0  3.759315  0  0  -0.106378  0  4.012856  0  0  -0.111443  0  4.033737  0  0  -0.080241  -0.1032  0  3.998833  0
C  C69  1  0.84718357  0.02250164  0.88327797  1  0  -0.095784  0  3.759355  0  0  -0.106411  0  4.012909  0  0  -0.111478  0  4.033792  0  0  -0.080248  -0.103229  0  3.998878  0
C  C70  1  0.33804829  0.98774988  0.17787329  1  0  -0.096568  0  3.655406  0  0  -0.123226  0  3.901393  0  0  -0.121693  0  3.915649  0  0  -0.067354  -0.123991  0  3.891848  0
C  C71  1  0.66195258  0.01224718  0.82212053  1  0  -0.096569  0  3.655384  0  0  -0.123235  0  3.901302  0  0  -0.121701  0  3.915557  0  0  -0.067372  -0.123998  0  3.891748  0
C  C72  1  0.34670602  0.89780624  0.21635048  1  0  0.230062  0  3.770454  0  0  0.229346  0  4.015469  0  0  0.234611  0  4.036047  0  0  0.111547  0.225366  0  4.001787  0
C  C73  1  0.65329418  0.10219264  0.78364463  1  0  0.230106  0  3.770423  0  0  0.229471  0  4.01534  0  0  0.234733  0  4.035919  0  0  0.111592  0.225493  0  4.001658  0
C  C74  1  0.16702732  0.80109923  0.19026459  1  0  0.032046  0  3.631338  0  0  -0.006668  0  3.886711  0  0  -0.002334  0  3.90404  0  0  0.045966  -0.009523  0  3.875124  0
C  C75  1  0.83297203  0.19889785  0.80972991  1  0  0.031986  0  3.631373  0  0  -0.006806  0  3.886769  0  0  -0.002466  0  3.904098  0  0  0.04595  -0.009665  0  3.875191  0
C  C76  1  0.69171855  0.99285550  0.33455848  1  0  0.56465  0  3.754984  0  0  0.521526  0  4.044037  0  0  0.549589  0  4.044166  0  0  0.246772  0.502634  0  4.043281  0
C  C77  1  0.30828530  0.00714787  0.66543460  1  0  0.564794  0  3.754843  0  0  0.521685  0  4.043928  0  0  0.549753  0  4.04405  0  0  0.246819  0.502789  0  4.043169  0
C  C78  1  0.84402687  0.96472732  0.40404529  1  0  -0.113904  0  3.655581  0  0  -0.113638  0  3.891268  0  0  -0.118208  0  3.905482  0  0  -0.089934  -0.110523  0  3.881455  0
C  C79  1  0.15597290  0.03527066  0.59594879  1  0  -0.113898  0  3.655158  0  0  -0.113753  0  3.890998  0  0  -0.118329  0  3.905214  0  0  -0.089912  -0.110637  0  3.8812  0
C  C80  1  0.06899221  0.03886653  0.41667541  1  0  -0.121889  0  3.683473  0  0  -0.164818  0  3.935631  0  0  -0.165379  0  3.949742  0  0  -0.171978  -0.16426  0  3.92592  0
C  C81  1  0.93098567  0.96113347  0.58331572  1  0  -0.121802  0  3.683514  0  0  -0.164737  0  3.935823  0  0  -0.1653  0  3.949935  0  0  -0.17196  -0.16418  0  3.9261  0
C  C82  1  0.22246992  0.01120938  0.48677673  1  0  -0.112025  0  3.646741  0  0  -0.157526  0  3.906417  0  0  -0.158114  0  3.919641  0  0  -0.162499  -0.156942  0  3.8972  0
C  C83  1  0.77752094  0.98879231  0.51321681  1  0  -0.11215  0  3.64706  0  0  -0.157627  0  3.906578  0  0  -0.158227  0  3.919819  0  0  -0.162555  -0.157028  0  3.897352  0
N  N84  1  0.98979703  0.79330950  0.13151531  1  0  -0.33712  0  3.335217  0  0  -0.252071  0  3.60565  0  0  -0.274055  0  3.629133  0  0  -0.332987  -0.237032  0  3.589306  0
N  N85  1  0.01020081  0.20668759  0.86847698  1  0  -0.337111  0  3.335345  0  0  -0.252019  0  3.605737  0  0  -0.274003  0  3.629222  0  0  -0.332952  -0.236982  0  3.589399  0
N  N86  1  0.52023672  0.89807748  0.27986989  1  0  -0.465661  0  3.357219  0  0  -0.412116  0  3.599621  0  0  -0.435987  0  3.610926  0  0  -0.402799  -0.395629  0  3.591547  0
N  N87  1  0.47976633  0.10191775  0.72012341  1  0  -0.465667  0  3.35728  0  0  -0.41215  0  3.599719  0  0  -0.43602  0  3.611022  0  0  -0.402818  -0.395665  0  3.591649  0
O  O88  1  0.67368268  0.44237489  0.99974935  1  0  -0.69909  0  2.075031  0  0  -0.611966  0  2.336572  0  0  -0.645568  0  2.324095  0  0  -0.343054  -0.588292  0  2.344254  0
O  O89  1  0.32631895  0.55763035  0.00025653  1  0  -0.699138  0  2.075089  0  0  -0.612031  0  2.336662  0  0  -0.645636  0  2.32419  0  0  -0.343013  -0.588355  0  2.344348  0
O  O90  1  0.47358969  0.27100628  0.99656924  1  0  -0.621992  0  1.97437  0  0  -0.561852  0  2.217675  0  0  -0.590974  0  2.209521  0  0  -0.316928  -0.541576  0  2.222614  0
O  O91  1  0.52640276  0.72900542  0.00344782  1  0  -0.622074  0  1.974421  0  0  -0.561916  0  2.217735  0  0  -0.591037  0  2.209578  0  0  -0.316932  -0.541636  0  2.222676  0
O  O92  1  0.46411104  0.33247576  0.74632023  1  0  -0.674021  0  2.012647  0  0  -0.60384  0  2.256935  0  0  -0.632499  0  2.245632  0  0  -0.337719  -0.583653  0  2.263817  0
O  O93  1  0.53587592  0.66752418  0.25368272  1  0  -0.674044  0  2.012443  0  0  -0.603921  0  2.256765  0  0  -0.632589  0  2.245481  0  0  -0.337772  -0.583735  0  2.26364  0
O  O94  1  0.15939525  0.38507889  0.74624840  1  0  -0.627575  0  1.965058  0  0  -0.568589  0  2.203083  0  0  -0.597662  0  2.196195  0  0  -0.324185  -0.548296  0  2.207066  0
O  O95  1  0.84060640  0.61492633  0.25375026  1  0  -0.627607  0  1.965045  0  0  -0.56861  0  2.203023  0  0  -0.597684  0  2.196139  0  0  -0.324156  -0.548321  0  2.207004  0
O  O96  1  0.31730314  0.31343139  0.28052241  1  0  -0.296091  0  2.330018  0  0  -0.229005  0  2.553716  0  0  -0.24788  0  2.555709  0  0  -0.149267  -0.215602  0  2.551816  0
O  O97  1  0.68270614  0.68656743  0.71948020  1  0  -0.29616  0  2.330209  0  0  -0.229038  0  2.553879  0  0  -0.247918  0  2.555875  0  0  -0.149218  -0.215572  0  2.551943  0
O  O98  1  0.71769926  0.09343685  0.33040126  1  0  -0.538569  0  1.949737  0  0  -0.489431  0  2.164292  0  0  -0.510396  0  2.159638  0  0  -0.281888  -0.474989  0  2.167065  0
O  O99  1  0.28230444  0.90655658  0.66959725  1  0  -0.538811  0  1.949566  0  0  -0.489624  0  2.164081  0  0  -0.510587  0  2.159401  0  0  -0.281973  -0.475177  0  2.16685  0
