# generated using pymatgen
data_TbCu4H19C21I4N4O7
_symmetry_space_group_name_H-M   'P 1'
_cell_length_a   8.40949279
_cell_length_b   14.71955617
_cell_length_c   28.60106197
_cell_angle_alpha   102.07383134
_cell_angle_beta   89.99992636
_cell_angle_gamma   89.99983513
_symmetry_Int_Tables_number   1
_chemical_formula_structural   TbCu4H19C21I4N4O7
_chemical_formula_sum   'Tb4 Cu16 H76 C84 I16 N16 O28'
_cell_volume   3462.03728170
_cell_formula_units_Z   4
loop_
 _symmetry_equiv_pos_site_id
 _symmetry_equiv_pos_as_xyz
  1  'x, y, z'
loop_
 _atom_site_type_symbol
 _atom_site_label
 _atom_site_symmetry_multiplicity
 _atom_site_fract_x
 _atom_site_fract_y
 _atom_site_fract_z
 _atom_site_occupancy
 _atom_site_pbe_bader_charge
 _atom_site_pbe_bader_spin_density
 _atom_site_pbe_cm5_charge
 _atom_site_pbe_ddec_charge
 _atom_site_pbe_ddec_spin_density
 _atom_site_pbe_ddec_sum_bond_order
 _atom_site_pbe_magmom
Tb  Tb0  1  0.22850387  0.44061770  0.48459895  1  2.205509  0  1.538621  2.12849  0  2.155723  0
Tb  Tb1  1  0.72850630  0.05938490  0.01540070  1  2.205552  0  1.538615  2.128521  0  2.155652  0
Tb  Tb2  1  0.77149582  0.55938348  0.51540045  1  2.205604  0  1.538586  2.128499  0  2.155662  0
Tb  Tb3  1  0.27149696  0.94061697  0.98459842  1  2.20553  0  1.53863  2.128525  0  2.15562  0
Cu  Cu4  1  0.82540507  0.36133171  0.78069129  1  0.287873  0  0.140209  0.142301  0  2.713358  0
Cu  Cu5  1  0.32540415  0.13867106  0.71930859  1  0.287875  0  0.140219  0.142299  0  2.713343  0
Cu  Cu6  1  0.17459463  0.63866670  0.21930852  1  0.287807  0  0.140213  0.142316  0  2.713352  0
Cu  Cu7  1  0.67459197  0.86133011  0.28069045  1  0.287836  0  0.140241  0.14231  0  2.713338  0
Cu  Cu8  1  0.09504348  0.41200739  0.74645633  1  0.396667  0  0.246304  0.137902  0  2.725319  0
Cu  Cu9  1  0.59503283  0.08799584  0.75354578  1  0.396676  0  0.246292  0.137873  0  2.725427  0
Cu  Cu10  1  0.90496096  0.58799242  0.25354362  1  0.396645  0  0.246296  0.137827  0  2.725424  0
Cu  Cu11  1  0.40495734  0.91200048  0.24645381  1  0.396606  0  0.246257  0.137935  0  2.72525  0
Cu  Cu12  1  0.09952529  0.35994872  0.82486606  1  0.401311  0  0.242636  0.143656  0  2.725246  0
Cu  Cu13  1  0.59952779  0.14005240  0.67513444  1  0.401293  0  0.242633  0.143628  0  2.725202  0
Cu  Cu14  1  0.90047084  0.64005109  0.17513425  1  0.401298  0  0.242624  0.14364  0  2.725249  0
Cu  Cu15  1  0.40047309  0.85994462  0.32486523  1  0.401263  0  0.24267  0.143718  0  2.725173  0
Cu  Cu16  1  0.95771103  0.51376112  0.81810173  1  0.380071  0  0.244306  0.13789  0  2.835941  0
Cu  Cu17  1  0.45770850  0.98623973  0.68189991  1  0.37999  0  0.244317  0.137868  0  2.835962  0
Cu  Cu18  1  0.04228510  0.48623592  0.18189899  1  0.380081  0  0.244331  0.137967  0  2.835838  0
Cu  Cu19  1  0.54228525  0.01375939  0.31810067  1  0.379964  0  0.244327  0.137895  0  2.83593  0
H  H20  1  0.56440517  0.80127312  0.62930414  1  0.079043  0  0.10594  0.079325  0  1.024615  0
H  H21  1  0.06441043  0.69872915  0.87069745  1  0.078951  0  0.105976  0.079361  0  1.024523  0
H  H22  1  0.43559689  0.19873084  0.37069555  1  0.079027  0  0.105956  0.079344  0  1.024602  0
H  H23  1  0.93559402  0.30126652  0.12930417  1  0.078983  0  0.10595  0.079351  0  1.024588  0
H  H24  1  0.43536932  0.65699489  0.58366470  1  0.149974  0  0.117615  0.129651  0  1.047933  0
H  H25  1  0.93536974  0.84301011  0.91633388  1  0.149928  0  0.117673  0.129701  0  1.047831  0
H  H26  1  0.56463869  0.34300905  0.41633393  1  0.150055  0  0.117632  0.129579  0  1.047963  0
H  H27  1  0.06463352  0.15698830  0.08366593  1  0.149937  0  0.117678  0.129703  0  1.047921  0
H  H28  1  0.98091429  0.78206960  0.62787067  1  0.073339  0  0.106387  0.118688  0  1.013753  0
H  H29  1  0.48091944  0.71793463  0.87212851  1  0.073395  0  0.106407  0.118691  0  1.013834  0
H  H30  1  0.01908778  0.21792190  0.37213052  1  0.073347  0  0.106421  0.118739  0  1.013715  0
H  H31  1  0.51908144  0.28206728  0.12787306  1  0.073379  0  0.106386  0.118622  0  1.013893  0
H  H32  1  0.12879467  0.92292977  0.67095316  1  0.090568  0  0.093931  0.076016  0  1.045876  0
H  H33  1  0.62880397  0.57707512  0.82904623  1  0.090612  0  0.09392  0.075943  0  1.045962  0
H  H34  1  0.87120026  0.07706383  0.32904895  1  0.090374  0  0.093936  0.076055  0  1.04583  0
H  H35  1  0.37119572  0.42292610  0.17095527  1  0.090591  0  0.09393  0.075946  0  1.045906  0
H  H36  1  0.18192080  0.29848712  0.65400493  1  0.094547  0  0.093234  0.073046  0  1.057379  0
H  H37  1  0.68192343  0.20151731  0.84599553  1  0.094608  0  0.093202  0.073017  0  1.057329  0
H  H38  1  0.81808127  0.70151473  0.34599314  1  0.094481  0  0.093229  0.073104  0  1.057165  0
H  H39  1  0.31807269  0.79847900  0.15400266  1  0.095041  0  0.093242  0.073051  0  1.057377  0
H  H40  1  0.32707115  0.32097303  0.58106305  1  0.140427  0  0.112906  0.126991  0  1.008592  0
H  H41  1  0.82707953  0.17903042  0.91893620  1  0.140633  0  0.112967  0.127136  0  1.008625  0
H  H42  1  0.67292735  0.67903020  0.41893481  1  0.140682  0  0.112977  0.12716  0  1.008564  0
H  H43  1  0.17292492  0.82096726  0.08106144  1  0.140553  0  0.112973  0.127153  0  1.008586  0
H  H44  1  0.48374086  0.58705211  0.66135412  1  0.108532  0  0.113113  0.126981  0  0.98997  0
H  H45  1  0.98374245  0.91294794  0.83864428  1  0.108601  0  0.113106  0.126957  0  0.989839  0
H  H46  1  0.51625764  0.41294837  0.33864521  1  0.108591  0  0.11311  0.126979  0  0.989826  0
H  H47  1  0.01625368  0.08705043  0.16135308  1  0.108595  0  0.113099  0.126981  0  0.989792  0
H  H48  1  0.32464201  0.55629212  0.73074553  1  0.103758  0  0.102433  0.081413  0  1.023526  0
H  H49  1  0.82463185  0.94370967  0.76925591  1  0.103793  0  0.102467  0.08141  0  1.023533  0
H  H50  1  0.67536243  0.44370768  0.26925442  1  0.103731  0  0.102473  0.081415  0  1.023508  0
H  H51  1  0.17536308  0.05628664  0.23074264  1  0.103901  0  0.102456  0.081408  0  1.02344  0
H  H52  1  0.11915743  0.89809996  0.38993627  1  0.092288  0  0.094393  0.071016  0  1.051476  0
H  H53  1  0.61915090  0.60190186  0.11006534  1  0.092308  0  0.094369  0.070991  0  1.051486  0
H  H54  1  0.88085059  0.10190405  0.61006657  1  0.092358  0  0.094387  0.071009  0  1.051453  0
H  H55  1  0.38084760  0.39810070  0.88993385  1  0.092278  0  0.09436  0.071003  0  1.051376  0
H  H56  1  0.96996152  0.81190657  0.44342255  1  0.118455  0  0.104694  0.117811  0  1.00429  0
H  H57  1  0.46996106  0.68809805  0.05657817  1  0.118868  0  0.104719  0.117848  0  1.004297  0
H  H58  1  0.03003936  0.18810161  0.55658072  1  0.118313  0  0.104725  0.11781  0  1.004372  0
H  H59  1  0.53003506  0.31190521  0.94342145  1  0.118494  0  0.104702  0.117826  0  1.004256  0
H  H60  1  0.25740918  0.57249176  0.38606656  1  0.09716  0  0.111531  0.126593  0  1.026197  0
H  H61  1  0.75742118  0.92750490  0.11393201  1  0.097625  0  0.111521  0.126562  0  1.026235  0
H  H62  1  0.74257387  0.42750943  0.61393354  1  0.094165  0  0.11153  0.126593  0  1.026175  0
H  H63  1  0.24258208  0.07249559  0.88606766  1  0.09759  0  0.111529  0.126595  0  1.026151  0
H  H64  1  0.39479902  0.66768649  0.33495092  1  0.115404  0  0.09885  0.079605  0  1.041935  0
H  H65  1  0.89480534  0.83230854  0.16504849  1  0.115319  0  0.098853  0.079554  0  1.042024  0
H  H66  1  0.60519116  0.33231192  0.66504890  1  0.115669  0  0.098842  0.079563  0  1.042068  0
H  H67  1  0.10519792  0.16769126  0.83495182  1  0.115157  0  0.098882  0.079576  0  1.04204  0
H  H68  1  0.16075142  0.18577997  0.44411909  1  0.107905  0  0.124158  0.043501  0  0.996098  0
H  H69  1  0.66074404  0.31422345  0.05588101  1  0.107839  0  0.124161  0.04353  0  0.995912  0
H  H70  1  0.83925541  0.81421983  0.55588086  1  0.107874  0  0.12417  0.043495  0  0.995973  0
H  H71  1  0.33925803  0.68577498  0.94411985  1  0.107764  0  0.124145  0.043459  0  0.995934  0
H  H72  1  0.54610020  0.24338168  0.49673596  1  0.100879  0  0.119071  0.147787  0  0.992582  0
H  H73  1  0.04609843  0.25661918  0.00326462  1  0.100782  0  0.119066  0.147822  0  0.992519  0
H  H74  1  0.45389593  0.75661678  0.50326665  1  0.10086  0  0.119101  0.147851  0  0.992413  0
H  H75  1  0.95390364  0.74337992  0.99673526  1  0.100819  0  0.119015  0.147761  0  0.992592  0
H  H76  1  0.61463263  0.12805021  0.47117917  1  0.093776  0  0.100532  0.115279  0  0.992946  0
H  H77  1  0.11462897  0.37194983  0.02882131  1  0.093788  0  0.100541  0.115318  0  0.993012  0
H  H78  1  0.38536588  0.87195034  0.52882436  1  0.093577  0  0.100499  0.115282  0  0.993028  0
H  H79  1  0.88537429  0.62804997  0.97117865  1  0.093696  0  0.100539  0.11534  0  0.992935  0
H  H80  1  0.52778415  0.15281928  0.52979910  1  0.067228  0  0.097292  0.114762  0  1.010751  0
H  H81  1  0.02778346  0.34718058  0.97020165  1  0.067262  0  0.09727  0.114742  0  1.010789  0
H  H82  1  0.47221078  0.84718055  0.47020296  1  0.067238  0  0.097253  0.114747  0  1.01087  0
H  H83  1  0.97221861  0.65281852  0.02979788  1  0.067263  0  0.097281  0.114768  0  1.010778  0
H  H84  1  0.18875820  0.04631924  0.45470555  1  0.06158  0  0.104164  0.116097  0  1.007012  0
H  H85  1  0.68875728  0.45368343  0.04529412  1  0.061565  0  0.104152  0.116072  0  1.007041  0
H  H86  1  0.81124744  0.95367918  0.54529496  1  0.061547  0  0.104149  0.116088  0  1.007017  0
H  H87  1  0.31124598  0.54631567  0.95470541  1  0.061528  0  0.104135  0.116066  0  1.007017  0
H  H88  1  0.30576041  0.03597545  0.50587853  1  0.042271  0  0.091978  0.109047  0  1.021829  0
H  H89  1  0.80576106  0.46402667  0.99412164  1  0.038724  0  0.091942  0.108998  0  1.021802  0
H  H90  1  0.69424047  0.96402295  0.49412058  1  0.042513  0  0.091938  0.109004  0  1.021779  0
H  H91  1  0.19423982  0.53597173  0.00587747  1  0.038743  0  0.091958  0.109021  0  1.021923  0
H  H92  1  0.38686897  0.00297941  0.44652209  1  0.080085  0  0.092762  0.109896  0  1.033766  0
H  H93  1  0.88686779  0.49702082  0.05347795  1  0.080071  0  0.092764  0.109905  0  1.033795  0
H  H94  1  0.61313192  0.99702111  0.55347934  1  0.080096  0  0.092768  0.109924  0  1.033641  0
H  H95  1  0.11313428  0.50297827  0.94652124  1  0.080484  0  0.092785  0.10999  0  1.033745  0
C  C96  1  0.43538196  0.79407987  0.62786866  1  0.459054  0  0.040581  0.091093  0  3.905936  0
C  C97  1  0.93538803  0.70592378  0.87213223  1  0.459216  0  0.040547  0.091062  0  3.905794  0
C  C98  1  0.56461773  0.20592132  0.37213143  1  0.459044  0  0.04059  0.091075  0  3.906007  0
C  C99  1  0.06461285  0.29407328  0.12786954  1  0.459335  0  0.040605  0.091047  0  3.906066  0
C  C100  1  0.36295217  0.71369875  0.60289655  1  0.059197  0  -0.075076  -0.131368  0  3.929789  0
C  C101  1  0.86295653  0.78630640  0.89710313  1  0.059326  0  -0.075169  -0.131344  0  3.929745  0
C  C102  1  0.63705228  0.28630104  0.39710271  1  0.058868  0  -0.075084  -0.131262  0  3.929862  0
C  C103  1  0.13704911  0.21369204  0.10289808  1  0.058854  0  -0.075209  -0.131406  0  3.93004  0
C  C104  1  0.19722756  0.70829948  0.60191032  1  -0.088238  0  0.001314  0.003038  0  3.920857  0
C  C105  1  0.69723070  0.79170665  0.89808777  1  -0.088525  0  0.001398  0.003002  0  3.921002  0
C  C106  1  0.80277808  0.29169754  0.39808934  1  -0.088126  0  0.001321  0.003065  0  3.920739  0
C  C107  1  0.30277375  0.20829316  0.10191254  1  -0.088189  0  0.001337  0.00292  0  3.920901  0
C  C108  1  0.11036238  0.78406227  0.62715953  1  -0.011329  0  -0.08042  -0.136028  0  3.941894  0
C  C109  1  0.61036721  0.71594473  0.87283973  1  -0.011444  0  -0.080485  -0.13612  0  3.942141  0
C  C110  1  0.88964207  0.21593340  0.37284209  1  -0.011313  0  -0.080486  -0.136081  0  3.941891  0
C  C111  1  0.38963724  0.28405510  0.12716162  1  -0.011548  0  -0.08044  -0.136  0  3.942052  0
C  C112  1  0.19166192  0.86213677  0.65108426  1  0.536095  0  0.030007  0.076843  0  3.938108  0
C  C113  1  0.69166487  0.63786592  0.84891523  1  0.536355  0  0.030061  0.077106  0  3.937961  0
C  C114  1  0.80833777  0.13785889  0.34891667  1  0.536228  0  0.030054  0.076882  0  3.938086  0
C  C115  1  0.30833601  0.36213252  0.15108633  1  0.536399  0  0.030063  0.077137  0  3.93777  0
C  C116  1  0.11559271  0.62504844  0.57213954  1  1.624865  0  0.240455  0.661062  0  4.132507  0
C  C117  1  0.61559411  0.87495782  0.92785790  1  1.624937  0  0.240547  0.661248  0  4.132316  0
C  C118  1  0.88441055  0.37494997  0.42786062  1  1.625159  0  0.240454  0.660941  0  4.132552  0
C  C119  1  0.38441034  0.12504127  0.07214128  1  1.625026  0  0.240622  0.661391  0  4.132106  0
C  C120  1  0.24749771  0.36233037  0.65383771  1  0.460308  0  0.034779  0.084802  0  3.908394  0
C  C121  1  0.74750068  0.13767254  0.84616257  1  0.460308  0  0.034804  0.084811  0  3.908307  0
C  C122  1  0.75250198  0.63766940  0.34616050  1  0.460517  0  0.034853  0.084701  0  3.908231  0
C  C123  1  0.25249782  0.86232307  0.15383555  1  0.459666  0  0.034767  0.08472  0  3.90841  0
C  C124  1  0.32976670  0.37463467  0.61355666  1  -0.033007  0  -0.074898  -0.129742  0  3.93576  0
C  C125  1  0.82977193  0.12537088  0.88644386  1  -0.03339  0  -0.074947  -0.129927  0  3.935883  0
C  C126  1  0.67023061  0.62536998  0.38644275  1  -0.033358  0  -0.074996  -0.129887  0  3.935907  0
C  C127  1  0.17022657  0.87462612  0.11355475  1  -0.033316  0  -0.075009  -0.12999  0  3.935851  0
C  C128  1  0.41333752  0.45729007  0.61512847  1  -0.05342  0  0.004912  0.005389  0  3.933022  0
C  C129  1  0.91334080  0.04271461  0.88487087  1  -0.05299  0  0.004949  0.005519  0  3.932856  0
C  C130  1  0.58665979  0.54271595  0.38487038  1  -0.053006  0  0.004921  0.005369  0  3.932983  0
C  C131  1  0.08665889  0.95728449  0.11512831  1  -0.052979  0  0.004988  0.005551  0  3.932967  0
C  C132  1  0.41605918  0.52303250  0.65823038  1  0.006598  0  -0.076955  -0.129565  0  3.927735  0
C  C133  1  0.91605686  0.97697184  0.84176814  1  0.006528  0  -0.076957  -0.129555  0  3.927591  0
C  C134  1  0.58394170  0.47697213  0.34176833  1  0.00645  0  -0.07694  -0.129571  0  3.927681  0
C  C135  1  0.08394045  0.02302584  0.15822914  1  0.006407  0  -0.076915  -0.12956  0  3.927627  0
C  C136  1  0.32837847  0.50629842  0.69673108  1  0.469021  0  0.038512  0.087421  0  3.913737  0
C  C137  1  0.82837266  0.99370264  0.80326853  1  0.46891  0  0.038454  0.087462  0  3.913798  0
C  C138  1  0.67162479  0.49370136  0.30326747  1  0.468906  0  0.038445  0.087496  0  3.913623  0
C  C139  1  0.17162227  0.00629436  0.19672938  1  0.468972  0  0.038453  0.087408  0  3.91363  0
C  C140  1  0.49545905  0.47491055  0.57137719  1  1.586994  0  0.231849  0.626485  0  4.19859  0
C  C141  1  0.99546461  0.02509189  0.92862224  1  1.587057  0  0.231879  0.62656  0  4.198401  0
C  C142  1  0.50453588  0.52509338  0.42862109  1  1.587354  0  0.231797  0.626448  0  4.198313  0
C  C143  1  0.00453627  0.97490720  0.07137659  1  1.586959  0  0.231837  0.626536  0  4.198383  0
C  C144  1  0.14839362  0.82646015  0.39133247  1  0.437332  0  0.030643  0.078569  0  3.935667  0
C  C145  1  0.64839386  0.67354022  0.10866898  1  0.437341  0  0.030711  0.078635  0  3.935539  0
C  C146  1  0.85160726  0.17354315  0.60866960  1  0.436903  0  0.030725  0.078643  0  3.935406  0
C  C147  1  0.35160702  0.32645958  0.89133097  1  0.437323  0  0.030743  0.078617  0  3.93542  0
C  C148  1  0.06636852  0.77858543  0.42071788  1  -0.013171  0  -0.083092  -0.139692  0  3.950536  0
C  C149  1  0.56636983  0.72141646  0.07928236  1  -0.013875  0  -0.083123  -0.139758  0  3.950387  0
C  C150  1  0.93362999  0.22141994  0.57928335  1  -0.013329  0  -0.083208  -0.1398  0  3.950646  0
C  C151  1  0.43363224  0.27858681  0.92071760  1  -0.013226  0  -0.083114  -0.139669  0  3.950251  0
C  C152  1  0.10887191  0.68644817  0.42045871  1  -0.044927  0  0.002775  0.012669  0  3.922226  0
C  C153  1  0.60888108  0.81355155  0.07954059  1  -0.04465  0  0.002745  0.012706  0  3.922197  0
C  C154  1  0.89112303  0.31355511  0.57954161  1  -0.044252  0  0.002785  0.012683  0  3.922268  0
C  C155  1  0.39112337  0.18645172  0.92045972  1  -0.044967  0  0.002806  0.012723  0  3.921888  0
C  C156  1  0.22695293  0.64520910  0.38877764  1  0.054816  0  -0.078421  -0.12807  0  3.921183  0
C  C157  1  0.72696294  0.85479038  0.11122054  1  0.054486  0  -0.078369  -0.127964  0  3.921203  0
C  C158  1  0.77303487  0.35479417  0.61122267  1  0.057608  0  -0.078383  -0.127961  0  3.92122  0
C  C159  1  0.27303913  0.14521219  0.88877900  1  0.054244  0  -0.0784  -0.128043  0  3.921072  0
C  C160  1  0.30288966  0.69771091  0.36035139  1  0.427152  0  0.035777  0.090212  0  3.923808  0
C  C161  1  0.80289149  0.80228777  0.13964913  1  0.427202  0  0.035846  0.09034  0  3.923806  0
C  C162  1  0.69710647  0.30229100  0.63965088  1  0.427333  0  0.035815  0.09022  0  3.923863  0
C  C163  1  0.19710820  0.19771410  0.86035034  1  0.427384  0  0.035766  0.090281  0  3.923869  0
C  C164  1  0.03017282  0.63225022  0.45276646  1  1.593821  0  0.23242  0.645913  0  4.159913  0
C  C165  1  0.53019018  0.86774826  0.04723345  1  1.593665  0  0.232153  0.645521  0  4.160172  0
C  C166  1  0.96981617  0.36775167  0.54723441  1  1.593224  0  0.232311  0.645791  0  4.160173  0
C  C167  1  0.46981546  0.13225086  0.95276714  1  1.593639  0  0.232279  0.645779  0  4.160047  0
C  C168  1  0.28016875  0.20986798  0.45730919  1  1.388837  0  0.190672  0.332178  0  4.104606  0
C  C169  1  0.78016631  0.29013591  0.04269056  1  1.38886  0  0.190671  0.332104  0  4.104402  0
C  C170  1  0.71983094  0.79013320  0.54269055  1  1.38892  0  0.190722  0.33224  0  4.10433  0
C  C171  1  0.21983695  0.70986251  0.95730960  1  1.389052  0  0.190765  0.332312  0  4.104528  0
C  C172  1  0.52381605  0.16917573  0.49400374  1  0.207552  0  -0.131127  -0.265269  0  3.854609  0
C  C173  1  0.02381746  0.33082518  0.00599685  1  0.207635  0  -0.131133  -0.265355  0  3.854613  0
C  C174  1  0.47618483  0.83082551  0.50599951  1  0.207824  0  -0.131086  -0.265382  0  3.854766  0
C  C175  1  0.97618699  0.66917393  0.99400338  1  0.20776  0  -0.131094  -0.265309  0  3.854651  0
C  C176  1  0.30867144  0.05247763  0.47008951  1  0.265289  0  -0.134843  -0.277462  0  3.919818  0
C  C177  1  0.80866944  0.44752621  0.02991058  1  0.268767  0  -0.134765  -0.277349  0  3.919713  0
C  C178  1  0.69132825  0.94752010  0.52991093  1  0.265075  0  -0.134824  -0.277497  0  3.919597  0
C  C179  1  0.19133144  0.55247289  0.97008895  1  0.268345  0  -0.13484  -0.277503  0  3.919814  0
I  I180  1  0.05336249  0.22954250  0.74140497  1  -0.338657  0  -0.137522  -0.193233  0  2.377767  0
I  I181  1  0.55336159  0.27045938  0.75859492  1  -0.338558  0  -0.137515  -0.19321  0  2.377758  0
I  I182  1  0.94663601  0.77045728  0.25859393  1  -0.338588  0  -0.13751  -0.193206  0  2.37774  0
I  I183  1  0.44664167  0.72953766  0.24140614  1  -0.338576  0  -0.137499  -0.193237  0  2.377748  0
I  I184  1  0.82671518  0.40055870  0.87672587  1  -0.424747  0  -0.198913  -0.31955  0  1.837853  0
I  I185  1  0.32671845  0.09944408  0.62327471  1  -0.424711  0  -0.198921  -0.319536  0  1.83784  0
I  I186  1  0.17328451  0.59943903  0.12327457  1  -0.424675  0  -0.198931  -0.31958  0  1.837825  0
I  I187  1  0.67328362  0.90055503  0.37672517  1  -0.42471  0  -0.198927  -0.319587  0  1.837849  0
I  I188  1  0.26587617  0.51859639  0.82739512  1  -0.404264  0  -0.172319  -0.294317  0  1.901154  0
I  I189  1  0.76587337  0.98140340  0.67260473  1  -0.404243  0  -0.172322  -0.29431  0  1.901137  0
I  I190  1  0.73412115  0.48140339  0.17260343  1  -0.404261  0  -0.172315  -0.294329  0  1.901131  0
I  I191  1  0.23412157  0.01859223  0.32739409  1  -0.404199  0  -0.172341  -0.294385  0  1.901196  0
I  I192  1  0.82182911  0.49575596  0.73121845  1  -0.370257  0  -0.176803  -0.252877  0  1.906048  0
I  I193  1  0.32182153  0.00424473  0.76878157  1  -0.370302  0  -0.176812  -0.252884  0  1.906111  0
I  I194  1  0.17817534  0.50424314  0.26878108  1  -0.370279  0  -0.176811  -0.252883  0  1.906091  0
I  I195  1  0.67816627  0.99575506  0.23121768  1  -0.370224  0  -0.176838  -0.252937  0  1.906067  0
N  N196  1  0.36646778  0.14670693  0.47344483  1  -1.203834  0  -0.275317  0.03468  0  3.704131  0
N  N197  1  0.86646628  0.35329472  0.02655501  1  -1.203793  0  -0.275313  0.03469  0  3.704058  0
N  N198  1  0.63353072  0.85329149  0.52655603  1  -1.203909  0  -0.275292  0.034784  0  3.704198  0
N  N199  1  0.13353817  0.64670578  0.97344502  1  -1.204005  0  -0.275268  0.034618  0  3.704136  0
N  N200  1  0.35199857  0.86789727  0.65101345  1  -1.272761  0  -0.364258  -0.163739  0  3.647086  0
N  N201  1  0.85200630  0.63210654  0.84898784  1  -1.273004  0  -0.364325  -0.163971  0  3.647031  0
N  N202  1  0.64799756  0.13210185  0.34898783  1  -1.272705  0  -0.364303  -0.163795  0  3.647055  0
N  N203  1  0.14799339  0.36789052  0.15101393  1  -1.272953  0  -0.364305  -0.163926  0  3.647018  0
N  N204  1  0.24322015  0.42776482  0.69466579  1  -1.225734  0  -0.36171  -0.157644  0  3.628365  0
N  N205  1  0.74321649  0.07223742  0.80533511  1  -1.225763  0  -0.361711  -0.157744  0  3.628552  0
N  N206  1  0.75678311  0.57223567  0.30533388  1  -1.225861  0  -0.361744  -0.157669  0  3.628313  0
N  N207  1  0.25677725  0.92775819  0.19466336  1  -1.225539  0  -0.361706  -0.157641  0  3.628421  0
N  N208  1  0.26759598  0.78765054  0.36217549  1  -1.222009  0  -0.36265  -0.166536  0  3.630034  0
N  N209  1  0.76759708  0.71234820  0.13782435  1  -1.222101  0  -0.362697  -0.166618  0  3.630155  0
N  N210  1  0.73240134  0.21235136  0.63782608  1  -1.222178  0  -0.362683  -0.166524  0  3.629893  0
N  N211  1  0.23240499  0.28765299  0.86217540  1  -1.221799  0  -0.362726  -0.166656  0  3.63007  0
O  O212  1  0.20193702  0.55595927  0.55352031  1  -1.202065  0  -0.392076  -0.678732  0  2.337684  0
O  O213  1  0.70193560  0.94404891  0.94647695  1  -1.202074  0  -0.392094  -0.678758  0  2.337537  0
O  O214  1  0.79806624  0.44404052  0.44647860  1  -1.202176  0  -0.392068  -0.678666  0  2.337656  0
O  O215  1  0.29806647  0.05595157  0.05352238  1  -1.202057  0  -0.392131  -0.678842  0  2.337431  0
O  O216  1  0.96655009  0.63163078  0.56685329  1  -1.201105  0  -0.39543  -0.661556  0  2.296994  0
O  O217  1  0.46655064  0.86837554  0.93314471  1  -1.201063  0  -0.395508  -0.661671  0  2.29703  0
O  O218  1  0.03345435  0.36836765  0.43314757  1  -1.201131  0  -0.395441  -0.66154  0  2.297078  0
O  O219  1  0.53344905  0.13162702  0.06685413  1  -1.201135  0  -0.395512  -0.661697  0  2.297023  0
O  O220  1  0.45380396  0.42723652  0.53079193  1  -1.199461  0  -0.394155  -0.694257  0  2.317361  0
O  O221  1  0.95380553  0.07276600  0.96920718  1  -1.199678  0  -0.394137  -0.694272  0  2.317272  0
O  O222  1  0.54619573  0.57276463  0.46920572  1  -1.199894  0  -0.39409  -0.694186  0  2.317232  0
O  O223  1  0.04619060  0.92723516  0.03079082  1  -1.199622  0  -0.394153  -0.694324  0  2.317273  0
O  O224  1  0.60386851  0.53666226  0.57702116  1  -1.172851  0  -0.388009  -0.646534  0  2.275624  0
O  O225  1  0.10387219  0.96333851  0.92297816  1  -1.172867  0  -0.388055  -0.646603  0  2.275606  0
O  O226  1  0.39612286  0.46334238  0.42297789  1  -1.172914  0  -0.388042  -0.646548  0  2.275516  0
O  O227  1  0.89612632  0.03666059  0.07702138  1  -1.172871  0  -0.388014  -0.646551  0  2.27559  0
O  O228  1  0.89497160  0.65885107  0.47008737  1  -1.190953  0  -0.375967  -0.649057  0  2.292793  0
O  O229  1  0.39499069  0.84115435  0.02991136  1  -1.190721  0  -0.375847  -0.648881  0  2.293009  0
O  O230  1  0.10501501  0.34115359  0.52991274  1  -1.190741  0  -0.375936  -0.648995  0  2.292913  0
O  O231  1  0.60501733  0.15884821  0.97008748  1  -1.190708  0  -0.375927  -0.64905  0  2.292868  0
O  O232  1  0.10299545  0.56191756  0.46151151  1  -1.211078  0  -0.406442  -0.71792  0  2.402206  0
O  O233  1  0.60302080  0.93807867  0.03848604  1  -1.211189  0  -0.406404  -0.717853  0  2.402162  0
O  O234  1  0.89699354  0.43808435  0.53849006  1  -1.210742  0  -0.406412  -0.717923  0  2.402348  0
O  O235  1  0.39698721  0.06192250  0.96151301  1  -1.211081  0  -0.406403  -0.717883  0  2.40235  0
O  O236  1  0.32834744  0.28994335  0.45643401  1  -1.181793  0  -0.375329  -0.550904  0  2.432463  0
O  O237  1  0.82834659  0.21005630  0.04356669  1  -1.18171  0  -0.375336  -0.550882  0  2.432377  0
O  O238  1  0.67165582  0.71005577  0.54356692  1  -1.181823  0  -0.375388  -0.550966  0  2.432368  0
O  O239  1  0.17166142  0.78994142  0.95643340  1  -1.181653  0  -0.3754  -0.550929  0  2.432497  0
