# generated using pymatgen
data_CdH12C18I3N3O5
_symmetry_space_group_name_H-M   'P 1'
_cell_length_a   8.47032268
_cell_length_b   15.21047596
_cell_length_c   17.05814342
_cell_angle_alpha   89.99968390
_cell_angle_beta   89.99956006
_cell_angle_gamma   89.99997433
_symmetry_Int_Tables_number   1
_chemical_formula_structural   CdH12C18I3N3O5
_chemical_formula_sum   'Cd4 H48 C72 I12 N12 O20'
_cell_volume   2197.73093239
_cell_formula_units_Z   4
loop_
 _symmetry_equiv_pos_site_id
 _symmetry_equiv_pos_as_xyz
  1  'x, y, z'
loop_
 _atom_site_type_symbol
 _atom_site_label
 _atom_site_symmetry_multiplicity
 _atom_site_fract_x
 _atom_site_fract_y
 _atom_site_fract_z
 _atom_site_occupancy
 _atom_site_pbe_bader_charge
 _atom_site_pbe_bader_spin_density
 _atom_site_pbe_cm5_charge
 _atom_site_pbe_ddec_charge
 _atom_site_pbe_ddec_spin_density
 _atom_site_pbe_ddec_sum_bond_order
 _atom_site_pbe_magmom
Cd  Cd0  1  0.67770044  0.80224894  0.59858420  1  1.249712  0  0.755976  0.901907  0  2.097458  0
Cd  Cd1  1  0.32229521  0.30225018  0.40141397  1  1.249707  0  0.755968  0.90201  0  2.097425  0
Cd  Cd2  1  0.82228541  0.80224594  0.09858226  1  1.24976  0  0.756004  0.902029  0  2.097422  0
Cd  Cd3  1  0.17771142  0.30224595  0.90142236  1  1.249688  0  0.755981  0.902002  0  2.0974  0
H  H4  1  0.86300434  0.72068309  0.69865822  1  0.645202  0  0.278218  0.370529  0  0.981229  0
H  H5  1  0.13699015  0.22068965  0.30133564  1  0.645821  0  0.278238  0.370548  0  0.981222  0
H  H6  1  0.63698005  0.72068936  0.19866229  1  0.645331  0  0.278255  0.370559  0  0.981226  0
H  H7  1  0.36302507  0.22068995  0.80133626  1  0.645964  0  0.278251  0.370585  0  0.981196  0
H  H8  1  0.97896150  0.74614535  0.62599352  1  0.610698  0  0.279921  0.348279  0  0.999371  0
H  H9  1  0.02103771  0.24614295  0.37400492  1  0.610329  0  0.279925  0.348293  0  0.999352  0
H  H10  1  0.52102869  0.74613524  0.12599042  1  0.610123  0  0.279912  0.348186  0  0.999487  0
H  H11  1  0.47897170  0.24614189  0.87400801  1  0.61063  0  0.279901  0.348222  0  0.999431  0
H  H12  1  0.30904205  0.76948852  0.04945491  1  0.443471  0  0.293343  0.294696  0  0.953204  0
H  H13  1  0.69096305  0.26948669  0.95054048  1  0.443382  0  0.293308  0.294701  0  0.953246  0
H  H14  1  0.19096611  0.76948889  0.54945446  1  0.443397  0  0.293316  0.294658  0  0.953236  0
H  H15  1  0.80904372  0.26949027  0.45054797  1  0.44351  0  0.293349  0.294722  0  0.953237  0
H  H16  1  0.45978748  0.82882930  0.00892544  1  0.472414  0  0.286101  0.297958  0  0.984224  0
H  H17  1  0.54022351  0.32882990  0.99107554  1  0.471871  0  0.286082  0.297985  0  0.984188  0
H  H18  1  0.04021889  0.82883170  0.50892442  1  0.472356  0  0.286105  0.298036  0  0.984135  0
H  H19  1  0.95979092  0.32882881  0.49107539  1  0.472383  0  0.286104  0.297997  0  0.984269  0
H  H20  1  0.44524953  0.92921114  0.50318712  1  0.105442  0  0.107821  0.081626  0  1.040125  0
H  H21  1  0.55475198  0.42920772  0.49681867  1  0.1056  0  0.10788  0.081774  0  1.040055  0
H  H22  1  0.05475336  0.92920233  0.00319151  1  0.105844  0  0.107862  0.081724  0  1.040072  0
H  H23  1  0.94524344  0.42919615  0.99682659  1  0.10552  0  0.10777  0.081674  0  1.0402  0
H  H24  1  0.28733085  0.93473540  0.37852965  1  0.090148  0  0.097236  0.101234  0  1.045245  0
H  H25  1  0.71268010  0.43471730  0.62147493  1  0.090254  0  0.097235  0.101207  0  1.045263  0
H  H26  1  0.21268419  0.93472327  0.87853498  1  0.090308  0  0.097242  0.101252  0  1.045304  0
H  H27  1  0.78733622  0.43470313  0.12148896  1  0.090287  0  0.097135  0.101009  0  1.045254  0
H  H28  1  0.30365207  0.80599088  0.28598996  1  0.127174  0  0.111952  0.118357  0  0.97196  0
H  H29  1  0.69635066  0.30596363  0.71401113  1  0.127248  0  0.111946  0.118425  0  0.972007  0
H  H30  1  0.19634903  0.80597875  0.78599183  1  0.127297  0  0.111946  0.118381  0  0.972051  0
H  H31  1  0.80368440  0.30595604  0.21402450  1  0.127701  0  0.11191  0.118397  0  0.972056  0
H  H32  1  0.47008467  0.67830636  0.32258769  1  0.09991  0  0.116112  0.13126  0  0.986694  0
H  H33  1  0.52989567  0.17828534  0.67740871  1  0.099082  0  0.116204  0.131466  0  0.986788  0
H  H34  1  0.02990412  0.67829430  0.82258729  1  0.099674  0  0.116184  0.131414  0  0.986814  0
H  H35  1  0.97011518  0.17827241  0.17741497  1  0.099556  0  0.116155  0.131391  0  0.986836  0
H  H36  1  0.61629023  0.58314550  0.35222508  1  0.116918  0  0.113262  0.131926  0  1.002457  0
H  H37  1  0.38368423  0.08313854  0.64777059  1  0.116778  0  0.11327  0.131952  0  1.002469  0
H  H38  1  0.88367658  0.58314579  0.85222034  1  0.116453  0  0.113257  0.131915  0  1.002471  0
H  H39  1  0.11634511  0.08313299  0.14777650  1  0.116904  0  0.113264  0.131881  0  1.002622  0
H  H40  1  0.80563219  0.46883464  0.39452911  1  0.086742  0  0.109637  0.112662  0  0.971441  0
H  H41  1  0.19434334  0.96882632  0.60546301  1  0.086712  0  0.109669  0.112693  0  0.971387  0
H  H42  1  0.69434348  0.46882974  0.89452688  1  0.086469  0  0.10967  0.112711  0  0.971384  0
H  H43  1  0.30569226  0.96882990  0.10546231  1  0.086613  0  0.109689  0.112745  0  0.971505  0
H  H44  1  0.93280582  0.48203166  0.52714466  1  0.115932  0  0.087431  0.084651  0  1.097001  0
H  H45  1  0.06718505  0.98202689  0.47284388  1  0.115707  0  0.087428  0.084631  0  1.097024  0
H  H46  1  0.56720362  0.48201890  0.02715076  1  0.115418  0  0.087441  0.084605  0  1.09711  0
H  H47  1  0.43282385  0.98202650  0.97284012  1  0.115991  0  0.08746  0.084615  0  1.096883  0
H  H48  1  0.85844319  0.60900573  0.61241991  1  0.093412  0  0.110001  0.075838  0  1.024537  0
H  H49  1  0.14154662  0.10900450  0.38756802  1  0.09331  0  0.11003  0.075703  0  1.024607  0
H  H50  1  0.64155905  0.60899360  0.11242806  1  0.09342  0  0.109956  0.075712  0  1.024596  0
H  H51  1  0.35844611  0.10900152  0.88756573  1  0.093371  0  0.110032  0.075774  0  1.024539  0
C  C52  1  0.59169318  0.69617487  0.74784529  1  1.61936  0  0.190669  0.578454  0  4.262244  0
C  C53  1  0.40830132  0.19617770  0.25214927  1  1.619121  0  0.19066  0.57841  0  4.261978  0
C  C54  1  0.90828813  0.69618432  0.24785063  1  1.619372  0  0.190667  0.578309  0  4.262036  0
C  C55  1  0.09172290  0.19617219  0.75214921  1  1.619422  0  0.190654  0.578463  0  4.262331  0
C  C56  1  0.49287824  0.67382624  0.81961185  1  0.061406  0  -0.026828  -0.063075  0  4.002816  0
C  C57  1  0.50712218  0.17382819  0.18038574  1  0.06121  0  -0.026854  -0.063022  0  4.002723  0
C  C58  1  0.00710706  0.67383060  0.31961468  1  0.06107  0  -0.026832  -0.063083  0  4.002932  0
C  C59  1  0.99290044  0.17382449  0.68038644  1  0.061262  0  -0.02669  -0.063172  0  4.00298  0
C  C60  1  0.41615384  0.59279918  0.82721091  1  -0.213021  0  -0.058107  -0.026208  0  3.882434  0
C  C61  1  0.58384305  0.09279852  0.17278765  1  -0.213069  0  -0.058097  -0.026211  0  3.882335  0
C  C62  1  0.08382546  0.59280022  0.32720698  1  -0.212421  0  -0.058122  -0.026197  0  3.882018  0
C  C63  1  0.91617143  0.09279551  0.67279334  1  -0.212473  0  -0.058128  -0.026135  0  3.882189  0
C  C64  1  0.33448231  0.56973724  0.89585576  1  0.037419  0  -0.025596  -0.054284  0  3.996853  0
C  C65  1  0.66551105  0.06973502  0.10414232  1  0.037297  0  -0.025641  -0.054326  0  3.996903  0
C  C66  1  0.16550425  0.56973825  0.39585444  1  0.037285  0  -0.025609  -0.054255  0  3.996364  0
C  C67  1  0.83449029  0.06973796  0.60414892  1  0.037448  0  -0.025546  -0.054201  0  3.996655  0
C  C68  1  0.33306985  0.62961156  0.95797962  1  -0.245552  0  -0.063926  -0.089062  0  3.843236  0
C  C69  1  0.66693176  0.12961106  0.04201936  1  -0.245889  0  -0.063932  -0.089001  0  3.843268  0
C  C70  1  0.16692640  0.62961388  0.45797887  1  -0.245807  0  -0.063896  -0.089012  0  3.843024  0
C  C71  1  0.83307167  0.12961203  0.54202479  1  -0.245463  0  -0.063917  -0.088998  0  3.843151  0
C  C72  1  0.40867266  0.71246301  0.95343482  1  0.452305  0  0.07948  0.232252  0  4.10491  0
C  C73  1  0.59133011  0.21246382  0.04656319  1  0.452567  0  0.079469  0.232194  0  4.105037  0
C  C74  1  0.09132599  0.71246405  0.45343555  1  0.452515  0  0.079516  0.232307  0  4.10486  0
C  C75  1  0.90867205  0.21246279  0.54656715  1  0.452272  0  0.079554  0.232359  0  4.104785  0
C  C76  1  0.48624874  0.73312728  0.88236006  1  -0.187833  0  -0.058605  -0.082522  0  3.832967  0
C  C77  1  0.51375520  0.23313094  0.11763668  1  -0.18769  0  -0.058627  -0.082556  0  3.83328  0
C  C78  1  0.01374624  0.73312966  0.38236285  1  -0.18782  0  -0.058584  -0.082444  0  3.833137  0
C  C79  1  0.98625770  0.23312396  0.61763798  1  -0.188136  0  -0.058672  -0.082497  0  3.83308  0
C  C80  1  0.26634318  0.47801097  0.90401936  1  1.60323  0  0.173803  0.555047  0  4.285592  0
C  C81  1  0.73363707  0.97800444  0.09597623  1  1.603158  0  0.173702  0.554786  0  4.285363  0
C  C82  1  0.23362676  0.47800866  0.40401777  1  1.603322  0  0.173747  0.554811  0  4.285164  0
C  C83  1  0.76635467  0.97801069  0.59598720  1  1.603452  0  0.173807  0.554957  0  4.285644  0
C  C84  1  0.44535728  0.87463310  0.46174252  1  0.511917  0  0.036324  0.088638  0  3.974573  0
C  C85  1  0.55465369  0.37462349  0.53826000  1  0.51165  0  0.036285  0.088579  0  3.974342  0
C  C86  1  0.05465182  0.87462300  0.96174437  1  0.511372  0  0.036347  0.088622  0  3.97449  0
C  C87  1  0.94535680  0.37461255  0.03827164  1  0.507203  0  0.036531  0.088716  0  3.974445  0
C  C88  1  0.35980852  0.87771675  0.39204987  1  -0.020139  0  -0.097225  -0.140185  0  4.002207  0
C  C89  1  0.64019773  0.37769745  0.60795264  1  -0.019701  0  -0.097178  -0.140177  0  4.002124  0
C  C90  1  0.14019689  0.87770662  0.89205197  1  -0.019956  0  -0.097173  -0.140196  0  4.002087  0
C  C91  1  0.85981999  0.37768851  0.10796696  1  -0.014253  0  -0.097062  -0.13975  0  4.001828  0
C  C92  1  0.36846855  0.80606564  0.34112889  1  -0.103196  0  -0.065607  -0.010928  0  3.94721  0
C  C93  1  0.63152710  0.30604601  0.65887571  1  -0.103059  0  -0.065546  -0.010852  0  3.947165  0
C  C94  1  0.13153409  0.80605419  0.84112867  1  -0.103453  0  -0.065585  -0.010808  0  3.947025  0
C  C95  1  0.86848989  0.30603378  0.15888296  1  -0.103371  0  -0.065706  -0.011122  0  3.947658  0
C  C96  1  0.46148612  0.73438666  0.36175069  1  0.01758  0  -0.07338  -0.13494  0  3.90307  0
C  C97  1  0.53850365  0.23436786  0.63824780  1  0.017908  0  -0.073479  -0.135244  0  3.903038  0
C  C98  1  0.03850916  0.73437723  0.86174850  1  0.017818  0  -0.073487  -0.135245  0  3.903167  0
C  C99  1  0.96150540  0.23435626  0.13825526  1  0.016494  0  -0.073395  -0.135087  0  3.903557  0
C  C100  1  0.54311412  0.73510434  0.43321200  1  0.476545  0  0.114472  0.161592  0  4.009283  0
C  C101  1  0.45687565  0.23509656  0.56678473  1  0.476493  0  0.1145  0.161756  0  4.009098  0
C  C102  1  0.95688214  0.73509737  0.93321166  1  0.476643  0  0.11462  0.161854  0  4.009167  0
C  C103  1  0.04312534  0.23508578  0.06679093  1  0.476442  0  0.114545  0.161768  0  4.009114  0
C  C104  1  0.64581724  0.66109669  0.45787643  1  0.500277  0  0.1116  0.15316  0  4.007127  0
C  C105  1  0.35416193  0.16109437  0.54211947  1  0.500213  0  0.111636  0.153066  0  4.006877  0
C  C106  1  0.85416451  0.66109371  0.95787533  1  0.500271  0  0.111644  0.153001  0  4.006921  0
C  C107  1  0.14585243  0.16108881  0.04212467  1  0.500345  0  0.111626  0.152853  0  4.006817  0
C  C108  1  0.67267964  0.58851463  0.40905353  1  0.051944  0  -0.06973  -0.123188  0  3.898859  0
C  C109  1  0.32729955  0.08851003  0.59094505  1  0.052032  0  -0.069714  -0.123215  0  3.89876  0
C  C110  1  0.82729460  0.58851034  0.90904726  1  0.05265  0  -0.069813  -0.123165  0  3.898742  0
C  C111  1  0.17272473  0.08850380  0.09094956  1  0.051627  0  -0.069558  -0.122778  0  3.898524  0
C  C112  1  0.77751963  0.52364937  0.43327710  1  -0.070593  0  -0.064252  -0.012205  0  3.929327  0
C  C113  1  0.22247257  0.02364102  0.56671651  1  -0.070181  0  -0.064232  -0.012111  0  3.929389  0
C  C114  1  0.72247788  0.52363986  0.93327417  1  -0.07063  0  -0.064205  -0.012192  0  3.929181  0
C  C115  1  0.27754619  0.02363804  0.06671767  1  -0.070392  0  -0.064501  -0.012506  0  3.929598  0
C  C116  1  0.84782691  0.53055686  0.50679432  1  -0.004549  0  -0.088075  -0.120555  0  3.978427  0
C  C117  1  0.15216292  0.03055099  0.49320277  1  -0.004806  0  -0.088171  -0.120723  0  3.97843  0
C  C118  1  0.65216865  0.53054800  0.00679012  1  -0.004365  0  -0.088141  -0.120598  0  3.978438  0
C  C119  1  0.34784952  0.03055129  0.99320346  1  -0.004953  0  -0.0881  -0.120557  0  3.978315  0
C  C120  1  0.80984925  0.60244664  0.55353671  1  0.465964  0  0.03898  0.091919  0  3.97508  0
C  C121  1  0.19013229  0.10244172  0.44645594  1  0.466146  0  0.039045  0.092328  0  3.974881  0
C  C122  1  0.69013733  0.60243777  0.05353646  1  0.466151  0  0.039091  0.092187  0  3.975103  0
C  C123  1  0.30986665  0.10243875  0.94645619  1  0.466055  0  0.039011  0.09218  0  3.975043  0
I  I124  1  0.44133302  0.49777746  0.73767086  1  0.154524  0  0.131935  0.059871  0  1.860248  0
I  I125  1  0.55865077  0.99777978  0.26232758  1  0.154578  0  0.131941  0.059881  0  1.860264  0
I  I126  1  0.05861340  0.49778180  0.23766996  1  0.154357  0  0.131959  0.059883  0  1.860276  0
I  I127  1  0.94137864  0.99777478  0.76233258  1  0.154275  0  0.13194  0.059863  0  1.860295  0
I  I128  1  0.22325774  0.59362548  0.06534995  1  0.126752  0  0.102286  0.000434  0  1.833438  0
I  I129  1  0.77673561  0.09362503  0.93465095  1  0.12676  0  0.102309  0.00047  0  1.833517  0
I  I130  1  0.27673134  0.59362318  0.56534505  1  0.126858  0  0.102247  0.000374  0  1.833568  0
I  I131  1  0.72326555  0.09362733  0.43465526  1  0.12685  0  0.102253  0.000379  0  1.833466  0
I  I132  1  0.59757870  0.85701099  0.86906912  1  0.137857  0  0.12919  0.038504  0  1.796243  0
I  I133  1  0.40242874  0.35701199  0.13092704  1  0.137855  0  0.12921  0.03854  0  1.796335  0
I  I134  1  0.90241848  0.85701848  0.36907741  1  0.137832  0  0.129165  0.038457  0  1.796331  0
I  I135  1  0.09757951  0.35701437  0.63092813  1  0.137838  0  0.129129  0.038438  0  1.796169  0
N  N136  1  0.41121549  0.76815860  0.01793428  1  -1.234278  0  -0.59496  -0.602682  0  3.369886  0
N  N137  1  0.58878962  0.26815923  0.98206229  1  -1.233705  0  -0.594866  -0.60273  0  3.369822  0
N  N138  1  0.08878723  0.76815966  0.51793658  1  -1.23421  0  -0.594911  -0.602789  0  3.369828  0
N  N139  1  0.91121787  0.26815948  0.48206585  1  -1.234311  0  -0.59499  -0.602864  0  3.369974  0
N  N140  1  0.53269738  0.80486597  0.48210874  1  -1.255512  0  -0.334333  -0.299443  0  3.545325  0
N  N141  1  0.46729355  0.30486310  0.51789294  1  -1.255257  0  -0.33441  -0.299631  0  3.54547  0
N  N142  1  0.96729932  0.80485899  0.98211129  1  -1.255414  0  -0.334539  -0.299748  0  3.545587  0
N  N143  1  0.03269987  0.30485364  0.01789273  1  -1.255292  0  -0.334438  -0.299692  0  3.54533  0
N  N144  1  0.71453782  0.66712650  0.52916833  1  -1.2489  0  -0.329871  -0.294664  0  3.512022  0
N  N145  1  0.28545078  0.16712401  0.47082578  1  -1.249118  0  -0.330014  -0.294949  0  3.512103  0
N  N146  1  0.78546090  0.66711957  0.02917122  1  -1.24891  0  -0.329942  -0.294714  0  3.512122  0
N  N147  1  0.21454541  0.16711846  0.97082523  1  -1.248878  0  -0.330009  -0.29483  0  3.512093  0
O  O148  1  0.52736778  0.74662186  0.69733453  1  -1.151341  0  -0.339322  -0.563513  0  2.261658  0
O  O149  1  0.47262316  0.24661513  0.30266624  1  -1.151174  0  -0.339221  -0.563446  0  2.261652  0
O  O150  1  0.97260718  0.74662011  0.19733726  1  -1.151551  0  -0.339151  -0.563325  0  2.261701  0
O  O151  1  0.02740148  0.24661162  0.80266585  1  -1.151091  0  -0.33921  -0.563403  0  2.261428  0
O  O152  1  0.72910355  0.66411602  0.74638304  1  -1.17396  0  -0.314429  -0.549049  0  2.204162  0
O  O153  1  0.27088034  0.16412548  0.25360405  1  -1.173846  0  -0.314503  -0.549118  0  2.203987  0
O  O154  1  0.77086245  0.66412882  0.24639830  1  -1.173676  0  -0.314643  -0.549185  0  2.203974  0
O  O155  1  0.22914033  0.16412123  0.75360110  1  -1.173918  0  -0.31459  -0.549197  0  2.204315  0
O  O156  1  0.35521678  0.42113820  0.93638216  1  -1.163493  0  -0.328915  -0.559076  0  2.257551  0
O  O157  1  0.64475168  0.92113783  0.06361018  1  -1.163664  0  -0.328751  -0.558859  0  2.257442  0
O  O158  1  0.14474208  0.42114119  0.43638209  1  -1.164027  0  -0.328779  -0.55887  0  2.257369  0
O  O159  1  0.85522757  0.92113945  0.56362080  1  -1.163971  0  -0.328923  -0.559053  0  2.257592  0
O  O160  1  0.13029898  0.46149813  0.87667672  1  -1.152565  0  -0.329945  -0.547298  0  2.138245  0
O  O161  1  0.86967301  0.96148610  0.12332247  1  -1.152218  0  -0.329986  -0.547275  0  2.138247  0
O  O162  1  0.36967137  0.46149116  0.37667635  1  -1.15237  0  -0.330027  -0.547319  0  2.137972  0
O  O163  1  0.63031007  0.96149570  0.62333163  1  -1.152755  0  -0.329987  -0.547313  0  2.138271  0
O  O164  1  0.91424345  0.77009648  0.66879426  1  -1.249225  0  -0.592656  -0.737869  0  2.109713  0
O  O165  1  0.08575457  0.27009959  0.33120582  1  -1.249428  0  -0.592671  -0.737908  0  2.109733  0
O  O166  1  0.58574491  0.77009555  0.16878739  1  -1.248814  0  -0.592708  -0.737883  0  2.109696  0
O  O167  1  0.41425547  0.27009855  0.83121034  1  -1.249877  0  -0.592665  -0.737895  0  2.109631  0
