# generated using pymatgen
data_CoH10(C2O)4
_symmetry_space_group_name_H-M   'P 1'
_cell_length_a   5.06413434
_cell_length_b   6.47792383
_cell_length_c   12.98640630
_cell_angle_alpha   100.55022062
_cell_angle_beta   98.39694249
_cell_angle_gamma   100.64771204
_symmetry_Int_Tables_number   1
_chemical_formula_structural   CoH10(C2O)4
_chemical_formula_sum   'Co2 H20 C16 O8'
_cell_volume   404.41175351
_cell_formula_units_Z   2
loop_
 _symmetry_equiv_pos_site_id
 _symmetry_equiv_pos_as_xyz
  1  'x, y, z'
loop_
 _atom_site_type_symbol
 _atom_site_label
 _atom_site_symmetry_multiplicity
 _atom_site_fract_x
 _atom_site_fract_y
 _atom_site_fract_z
 _atom_site_occupancy
 _atom_site_hle17_bader_spin_density
 _atom_site_hle17_ddec_charge
 _atom_site_hle17_ddec_spin_density
 _atom_site_hle17_ddec_sum_bond_order
 _atom_site_hle17_magmom
 _atom_site_hse06_10hf_bader_spin_density
 _atom_site_hse06_10hf_ddec_charge
 _atom_site_hse06_10hf_ddec_spin_density
 _atom_site_hse06_10hf_ddec_sum_bond_order
 _atom_site_hse06_10hf_magmom
 _atom_site_hse06_bader_spin_density
 _atom_site_hse06_ddec_charge
 _atom_site_hse06_ddec_spin_density
 _atom_site_hse06_ddec_sum_bond_order
 _atom_site_hse06_magmom
 _atom_site_pbe_bader_spin_density
 _atom_site_pbe_cm5_charge
 _atom_site_pbe_ddec_charge
 _atom_site_pbe_ddec_spin_density
 _atom_site_pbe_ddec_sum_bond_order
 _atom_site_pbe_magmom
Co  Co0  1  0.77909346  0.92506813  0.96887680  1  0  0.67964  0  2.491221  0  0  0.669746  0  2.958018  0  0  0.744061  0  2.881168  0  0  0.540582  0.62316  0  3.01107  0
Co  Co1  1  0.22654605  0.07492992  0.03195751  1  0  0.678092  0  2.489808  0  0  0.667527  0  2.957048  0  0  0.741759  0  2.880512  0  0  0.540058  0.621196  0  3.009806  0
H  H2  1  0.58746019  0.47481988  0.17246417  1  0  0.113777  0  0.923292  0  0  0.121496  0  0.984447  0  0  0.124622  0  0.982593  0  0  0.116095  0.119173  0  0.985918  0
H  H3  1  0.41703942  0.52537282  0.82728574  1  0  0.114075  0  0.922601  0  0  0.121001  0  0.984693  0  0  0.123971  0  0.983092  0  0  0.116243  0.11877  0  0.986066  0
H  H4  1  0.97792381  0.34037737  0.33820015  1  0  0.0607  0  0.942852  0  0  0.078664  0  1.0083  0  0  0.079308  0  1.008645  0  0  0.087721  0.078125  0  1.008186  0
H  H5  1  0.02192242  0.66095769  0.66343448  1  0  0.061114  0  0.941829  0  0  0.07947  0  1.006635  0  0  0.080154  0  1.006926  0  0  0.088388  0.078922  0  1.006529  0
H  H6  1  0.64030636  0.19662446  0.27857191  1  0  0.087187  0  0.941171  0  0  0.103148  0  1.002782  0  0  0.104639  0  1.002487  0  0  0.097613  0.102007  0  1.00313  0
H  H7  1  0.36154967  0.80292967  0.72128881  1  0  0.087056  0  0.939921  0  0  0.102898  0  1.001684  0  0  0.104372  0  1.001407  0  0  0.097697  0.101728  0  1.002072  0
H  H8  1  0.44684940  0.49510116  0.35617241  1  0  0.060473  0  0.949767  0  0  0.078546  0  1.014866  0  0  0.079512  0  1.014771  0  0  0.087346  0.077769  0  1.01504  0
H  H9  1  0.54884651  0.50283099  0.64051311  1  0  0.059791  0  0.947186  0  0  0.078231  0  1.012315  0  0  0.079176  0  1.012183  0  0  0.087052  0.077478  0  1.012489  0
H  H10  1  0.65764741  0.42416819  0.45874771  1  0  0.054921  0  0.963586  0  0  0.073249  0  1.028373  0  0  0.07369  0  1.028994  0  0  0.086235  0.072839  0  1.028059  0
H  H11  1  0.33330984  0.57505651  0.53985530  1  0  0.055314  0  0.962454  0  0  0.073662  0  1.027541  0  0  0.074133  0  1.028119  0  0  0.086529  0.073239  0  1.027251  0
H  H12  1  0.73068821  0.82803567  0.47507397  1  0  0.060124  0  0.934366  0  0  0.082425  0  0.990103  0  0  0.083115  0  0.990527  0  0  0.088954  0.08176  0  0.990036  0
H  H13  1  0.25703488  0.17121699  0.52248292  1  0  0.057939  0  0.937013  0  0  0.079892  0  0.992949  0  0  0.080432  0  0.993543  0  0  0.087871  0.079365  0  0.992741  0
H  H14  1  0.03166383  0.73111972  0.46566302  1  0  0.055108  0  0.947234  0  0  0.077523  0  1.005749  0  0  0.077701  0  1.007078  0  0  0.086073  0.077292  0  1.004954  0
H  H15  1  0.95946225  0.27028816  0.53549807  1  0  0.055475  0  0.945978  0  0  0.077203  0  1.004766  0  0  0.077474  0  1.005941  0  0  0.086002  0.076907  0  1.004076  0
H  H16  1  0.66199040  0.84527176  0.28464936  1  0  0.0807  0  0.936295  0  0  0.097289  0  0.999513  0  0  0.098915  0  0.998935  0  0  0.094992  0.096091  0  0.999937  0
H  H17  1  0.33742447  0.15377922  0.71336081  1  0  0.080916  0  0.934947  0  0  0.097506  0  0.997886  0  0  0.099092  0  0.997354  0  0  0.094794  0.096331  0  0.998327  0
H  H18  1  0.99521097  0.98797765  0.34855497  1  0  0.066304  0  0.951561  0  0  0.082345  0  1.016379  0  0  0.083162  0  1.016615  0  0  0.090258  0.081762  0  1.016217  0
H  H19  1  0.00193926  0.01213882  0.65145563  1  0  0.066901  0  0.950518  0  0  0.08288  0  1.01531  0  0  0.083745  0  1.015531  0  0  0.090597  0.082258  0  1.015172  0
H  H20  1  0.18752570  0.67736371  0.27425046  1  0  0.079322  0  0.927585  0  0  0.090973  0  0.987011  0  0  0.092732  0  0.986558  0  0  0.103698  0.089706  0  0.987332  0
H  H21  1  0.81521017  0.32472830  0.72776118  1  0  0.078506  0  0.926387  0  0  0.08957  0  0.986572  0  0  0.09141  0  0.98597  0  0  0.103136  0.088293  0  0.986926  0
C  C22  1  0.79300443  0.46060206  0.20684351  1  0  -0.131712  0  3.631004  0  0  -0.139795  0  3.865859  0  0  -0.147424  0  3.878928  0  0  -0.083471  -0.134266  0  3.856917  0
C  C23  1  0.21098999  0.53954394  0.79357116  1  0  -0.13629  0  3.631985  0  0  -0.143886  0  3.868479  0  0  -0.151561  0  3.881598  0  0  -0.084474  -0.138343  0  3.859443  0
C  C24  1  0.77258854  0.35840830  0.30453710  1  0  -0.115191  0  3.64434  0  0  -0.16025  0  3.903118  0  0  -0.16041  0  3.916382  0  0  -0.161257  -0.160087  0  3.894076  0
C  C25  1  0.22774400  0.64168680  0.69568253  1  0  -0.11416  0  3.643473  0  0  -0.158916  0  3.902671  0  0  -0.159083  0  3.915946  0  0  -0.16087  -0.158737  0  3.89365  0
C  C26  1  0.66100073  0.49657046  0.38859495  1  0  -0.105021  0  3.69761  0  0  -0.146019  0  3.96282  0  0  -0.146772  0  3.977112  0  0  -0.167156  -0.145311  0  3.952825  0
C  C27  1  0.33388224  0.50269985  0.61009070  1  0  -0.103535  0  3.695494  0  0  -0.145594  0  3.962032  0  0  -0.146301  0  3.976206  0  0  -0.167984  -0.144925  0  3.952135  0
C  C28  1  0.82814213  0.72803073  0.42074491  1  0  -0.098857  0  3.693782  0  0  -0.142074  0  3.961817  0  0  -0.143117  0  3.977127  0  0  -0.16597  -0.141141  0  3.951111  0
C  C29  1  0.16458029  0.27190531  0.57857902  1  0  -0.099173  0  3.693545  0  0  -0.140412  0  3.960088  0  0  -0.141423  0  3.975373  0  0  -0.164931  -0.139534  0  3.949395  0
C  C30  1  0.86171768  0.82650631  0.32379651  1  0  -0.122166  0  3.64487  0  0  -0.16585  0  3.904586  0  0  -0.166113  0  3.917601  0  0  -0.161852  -0.165536  0  3.895514  0
C  C31  1  0.13648150  0.17326579  0.67577213  1  0  -0.121786  0  3.64685  0  0  -0.165843  0  3.90549  0  0  -0.166162  0  3.918542  0  0  -0.161152  -0.165524  0  3.89644  0
C  C32  1  0.97901513  0.68617018  0.24008109  1  0  -0.111936  0  3.622513  0  0  -0.120943  0  3.859057  0  0  -0.126929  0  3.87179  0  0  -0.083669  -0.116475  0  3.850122  0
C  C33  1  0.02391547  0.31438293  0.76082010  1  0  -0.110457  0  3.626333  0  0  -0.118092  0  3.861233  0  0  -0.124027  0  3.873888  0  0  -0.08256  -0.113653  0  3.852305  0
C  C34  1  0.88029260  0.30415155  0.12477704  1  0  0.654004  0  3.720565  0  0  0.614459  0  4.01788  0  0  0.656879  0  4.008385  0  0  0.234404  0.58395  0  4.024854  0
C  C35  1  0.12501585  0.69607156  0.87606761  1  0  0.661647  0  3.712523  0  0  0.619422  0  4.014025  0  0  0.661954  0  4.004389  0  0  0.236989  0.588887  0  4.02107  0
C  C36  1  0.99781268  0.79563373  0.14696448  1  0  0.635801  0  3.755648  0  0  0.598009  0  4.060823  0  0  0.63811  0  4.054065  0  0  0.222777  0.569563  0  4.065592  0
C  C37  1  0.00680181  0.20440930  0.85380711  1  0  0.63701  0  3.757966  0  0  0.599409  0  4.062269  0  0  0.63949  0  4.05543  0  0  0.223847  0.570972  0  4.067114  0
O  O38  1  0.68843305  0.15824038  0.06151841  1  0  -0.503303  0  2.250903  0  0  -0.466166  0  2.532305  0  0  -0.508042  0  2.519511  0  0  -0.270823  -0.438402  0  2.542168  0
O  O39  1  0.31695970  0.84161429  0.93946666  1  0  -0.503065  0  2.248214  0  0  -0.465838  0  2.531955  0  0  -0.507614  0  2.518814  0  0  -0.270655  -0.438083  0  2.541834  0
O  O40  1  0.13309574  0.30917325  0.12484214  1  0  -0.501286  0  2.116764  0  0  -0.47113  0  2.387509  0  0  -0.507048  0  2.376267  0  0  -0.274628  -0.446825  0  2.395339  0
O  O41  1  0.87229091  0.69137036  0.87604166  1  0  -0.5053  0  2.116973  0  0  -0.474086  0  2.389343  0  0  -0.51001  0  2.377985  0  0  -0.277425  -0.44975  0  2.397167  0
O  O42  1  0.77919426  0.76432095  0.07786777  1  0  -0.486361  0  2.120695  0  0  -0.463676  0  2.394111  0  0  -0.501556  0  2.385994  0  0  -0.279725  -0.438289  0  2.399953  0
O  O43  1  0.22568977  0.23518315  0.92266171  1  0  -0.487628  0  2.119359  0  0  -0.46491  0  2.392698  0  0  -0.502734  0  2.38439  0  0  -0.280967  -0.439572  0  2.398663  0
O  O44  1  0.22449308  0.92032835  0.14571322  1  0  -0.511896  0  2.104146  0  0  -0.490822  0  2.381722  0  0  -0.527912  0  2.372391  0  0  -0.287918  -0.465855  0  2.388227  0
O  O45  1  0.78022616  0.07958246  0.85504206  1  0  -0.512777  0  2.104875  0  0  -0.49224  0  2.382151  0  0  -0.529373  0  2.372848  0  0  -0.288464  -0.467238  0  2.388676  0
