# generated using pymatgen
data_Dy2H37C36N7O22
_symmetry_space_group_name_H-M   'P 1'
_cell_length_a   13.65922854
_cell_length_b   13.65922842
_cell_length_c   16.20090780
_cell_angle_alpha   67.05705867
_cell_angle_beta   67.05708682
_cell_angle_gamma   75.78671623
_symmetry_Int_Tables_number   1
_chemical_formula_structural   Dy2H37C36N7O22
_chemical_formula_sum   'Dy4 H74 C72 N14 O44'
_cell_volume   2547.71244256
_cell_formula_units_Z   2
loop_
 _symmetry_equiv_pos_site_id
 _symmetry_equiv_pos_as_xyz
  1  'x, y, z'
loop_
 _atom_site_type_symbol
 _atom_site_label
 _atom_site_symmetry_multiplicity
 _atom_site_fract_x
 _atom_site_fract_y
 _atom_site_fract_z
 _atom_site_occupancy
 _atom_site_pbe_bader_charge
 _atom_site_pbe_bader_spin_density
 _atom_site_pbe_cm5_charge
 _atom_site_pbe_ddec_charge
 _atom_site_pbe_ddec_spin_density
 _atom_site_pbe_ddec_sum_bond_order
 _atom_site_pbe_magmom
Dy  Dy0  1  0.45193169  0.16950974  0.49856263  1  2.19867  0  1.525133  2.086954  0  2.16454  0
Dy  Dy1  1  0.83049083  0.54806798  0.00143728  1  2.19867  0  1.525154  2.086938  0  2.164579  0
Dy  Dy2  1  0.54806768  0.83048927  0.50143792  1  2.198683  0  1.525138  2.086917  0  2.164593  0
Dy  Dy3  1  0.16951015  0.45193084  0.99856342  1  2.198561  0  1.525138  2.086924  0  2.164589  0
H  H4  1  0.23027298  0.32954280  0.75157061  1  0.150439  0  0.119137  0.129791  0  0.991014  0
H  H5  1  0.67045912  0.76972891  0.74842821  1  0.150478  0  0.119129  0.12976  0  0.991094  0
H  H6  1  0.76972961  0.67045822  0.24842883  1  0.150496  0  0.119112  0.129742  0  0.991181  0
H  H7  1  0.32954345  0.23026973  0.25157079  1  0.150485  0  0.11912  0.129771  0  0.991135  0
H  H8  1  0.90477675  0.47167990  0.78186194  1  0.162184  0  0.124252  0.137247  0  1.00452  0
H  H9  1  0.52831926  0.09522442  0.71813751  1  0.162167  0  0.12426  0.137239  0  1.004507  0
H  H10  1  0.09522502  0.52831804  0.21813879  1  0.162134  0  0.124262  0.137246  0  1.004486  0
H  H11  1  0.47168332  0.90477500  0.28186122  1  0.162233  0  0.124254  0.137245  0  1.004487  0
H  H12  1  0.08577590  0.34313699  0.55348870  1  0.15427  0  0.120956  0.134014  0  0.994129  0
H  H13  1  0.65686293  0.91422552  0.94651091  1  0.154273  0  0.120955  0.134009  0  0.994115  0
H  H14  1  0.91422587  0.65686095  0.44651203  1  0.154292  0  0.120964  0.134024  0  0.994083  0
H  H15  1  0.34313885  0.08577401  0.05348867  1  0.154303  0  0.120951  0.134005  0  0.994154  0
H  H16  1  0.24166909  0.75833115  0.74999992  1  0.119256  0  0.115135  0.119169  0  1.027795  0
H  H17  1  0.75833108  0.24166855  0.24999952  1  0.11926  0  0.115139  0.119186  0  1.027779  0
H  H18  1  0.13335722  0.09259021  0.64616744  1  0.172141  0  0.12277  0.141173  0  0.996801  0
H  H19  1  0.90740986  0.86664426  0.85383153  1  0.172149  0  0.122769  0.141142  0  0.996817  0
H  H20  1  0.86664376  0.90740941  0.35383361  1  0.172098  0  0.122778  0.141183  0  0.996768  0
H  H21  1  0.09258950  0.13335553  0.14616691  1  0.172116  0  0.12278  0.141182  0  0.99679  0
H  H22  1  0.36112448  0.45082653  0.32666820  1  0.116075  0  0.125457  0.053758  0  1.004572  0
H  H23  1  0.54917398  0.63887748  0.17333090  1  0.116081  0  0.125447  0.053753  0  1.004575  0
H  H24  1  0.63887729  0.54917141  0.67333192  1  0.116126  0  0.125449  0.05376  0  1.00455  0
H  H25  1  0.45082780  0.36112364  0.82666815  1  0.116051  0  0.125458  0.053757  0  1.004548  0
H  H26  1  0.58762795  0.26053566  0.26528399  1  0.12256  0  0.113199  0.132844  0  1.051077  0
H  H27  1  0.73946405  0.41237177  0.23471619  1  0.122548  0  0.11319  0.132836  0  1.05108  0
H  H28  1  0.41237464  0.73946378  0.73471659  1  0.122656  0  0.113193  0.132854  0  1.051093  0
H  H29  1  0.26053532  0.58762724  0.76528436  1  0.122633  0  0.113182  0.132844  0  1.051098  0
H  H30  1  0.62548894  0.35003187  0.14440873  1  0.097927  0  0.10845  0.130355  0  1.025229  0
H  H31  1  0.64996744  0.37450988  0.35559002  1  0.097875  0  0.108447  0.130354  0  1.025224  0
H  H32  1  0.37451203  0.64996616  0.85559161  1  0.098083  0  0.10845  0.130372  0  1.025195  0
H  H33  1  0.35003272  0.62548823  0.64440933  1  0.097937  0  0.108456  0.130388  0  1.025201  0
H  H34  1  0.53812773  0.25025504  0.18244579  1  0.052013  0  0.099687  0.109146  0  1.019045  0
H  H35  1  0.74974410  0.46187097  0.31755491  1  0.052087  0  0.099691  0.109143  0  1.019062  0
H  H36  1  0.46187404  0.74974210  0.81755582  1  0.05194  0  0.0997  0.109161  0  1.019035  0
H  H37  1  0.25025607  0.53812715  0.68244629  1  0.051892  0  0.099676  0.109123  0  1.019089  0
H  H38  1  0.35857414  0.50665871  0.18336377  1  0.073719  0  0.109927  0.130793  0  1.013235  0
H  H39  1  0.49334236  0.64142589  0.31663577  1  0.073729  0  0.109906  0.13074  0  1.013272  0
H  H40  1  0.64142763  0.49334001  0.81663546  1  0.073776  0  0.109916  0.130766  0  1.013196  0
H  H41  1  0.50665942  0.35857442  0.68336294  1  0.07382  0  0.109901  0.130736  0  1.013268  0
H  H42  1  0.38692349  0.40160173  0.13636139  1  0.108704  0  0.105692  0.134688  0  1.0155  0
H  H43  1  0.59839948  0.61307575  0.36363777  1  0.108588  0  0.105686  0.134657  0  1.015536  0
H  H44  1  0.61307827  0.59839620  0.86363872  1  0.108622  0  0.105688  0.134689  0  1.015502  0
H  H45  1  0.40160149  0.38692387  0.63636143  1  0.108682  0  0.105693  0.134679  0  1.015498  0
H  H46  1  0.48496065  0.49224699  0.09415681  1  0.038305  0  0.106407  0.121633  0  1.00221  0
H  H47  1  0.50775363  0.51503894  0.40584306  1  0.038353  0  0.106384  0.121569  0  1.002235  0
H  H48  1  0.51504112  0.50775094  0.90584331  1  0.038474  0  0.106404  0.121641  0  1.002196  0
H  H49  1  0.49224654  0.48496077  0.59415700  1  0.038368  0  0.106405  0.121606  0  1.002218  0
H  H50  1  0.68932404  0.12131629  0.54251468  1  0.095894  0  0.125512  0.047096  0  1.007823  0
H  H51  1  0.87868407  0.31067224  0.95748540  1  0.095865  0  0.125509  0.047083  0  1.007817  0
H  H52  1  0.31067373  0.87868448  0.45748458  1  0.095865  0  0.125526  0.047082  0  1.007825  0
H  H53  1  0.12131528  0.68932437  0.04251472  1  0.095887  0  0.125523  0.047097  0  1.007796  0
H  H54  1  0.78499563  0.41183157  0.46525394  1  0.074064  0  0.10533  0.120535  0  0.994477  0
H  H55  1  0.58816717  0.21500357  0.03474736  1  0.074056  0  0.105338  0.120574  0  0.994433  0
H  H56  1  0.21500453  0.58816735  0.53474576  1  0.07408  0  0.105329  0.120528  0  0.994486  0
H  H57  1  0.41183060  0.78499563  0.96525489  1  0.074093  0  0.105339  0.120546  0  0.994473  0
H  H58  1  0.70743839  0.38450583  0.58683223  1  0.07702  0  0.105881  0.119373  0  0.997931  0
H  H59  1  0.61549276  0.29256241  0.91316874  1  0.07705  0  0.105882  0.119368  0  0.997984  0
H  H60  1  0.29256258  0.61549379  0.41316697  1  0.077017  0  0.105886  0.119363  0  0.997948  0
H  H61  1  0.38450502  0.70743758  0.08683324  1  0.077075  0  0.105884  0.119365  0  0.99794  0
H  H62  1  0.64385398  0.40464182  0.50203572  1  0.089017  0  0.11226  0.125554  0  1.024199  0
H  H63  1  0.59535874  0.35614528  0.99796633  1  0.088998  0  0.11227  0.125554  0  1.024191  0
H  H64  1  0.35614620  0.59536027  0.49796354  1  0.08903  0  0.112263  0.125558  0  1.024192  0
H  H65  1  0.40464064  0.64385374  0.00203606  1  0.089029  0  0.112263  0.125556  0  1.024197  0
H  H66  1  0.83261786  0.11436550  0.56876135  1  0.045377  0  0.109121  0.119982  0  0.989788  0
H  H67  1  0.88563359  0.16738140  0.93123696  1  0.045434  0  0.10912  0.120014  0  0.989796  0
H  H68  1  0.16738071  0.88563360  0.43123882  1  0.045421  0  0.109128  0.120022  0  0.989772  0
H  H69  1  0.11436417  0.83261778  0.06876160  1  0.04535  0  0.109121  0.119967  0  0.989763  0
H  H70  1  0.83410314  0.21024800  0.61820850  1  0.074302  0  0.100938  0.117848  0  1.030532  0
H  H71  1  0.78974937  0.16589563  0.88179114  1  0.074283  0  0.100946  0.117883  0  1.030496  0
H  H72  1  0.16589542  0.78975030  0.38179132  1  0.074301  0  0.100957  0.1179  0  1.030487  0
H  H73  1  0.21024759  0.83410364  0.11820828  1  0.074319  0  0.100944  0.117869  0  1.030521  0
H  H74  1  0.90325554  0.22976313  0.49523748  1  0.07861  0  0.108247  0.12579  0  0.966993  0
H  H75  1  0.77023707  0.09674200  0.00476272  1  0.078577  0  0.108231  0.125781  0  0.966993  0
H  H76  1  0.09674224  0.77023606  0.50476354  1  0.078572  0  0.108228  0.125782  0  0.96699  0
H  H77  1  0.22976148  0.90325550  0.99523676  1  0.078619  0  0.108245  0.125801  0  0.966969  0
C  C78  1  0.26901649  0.27787476  0.59201739  1  1.567043  0  0.185185  0.56037  0  4.258948  0
C  C79  1  0.72212545  0.73098348  0.90798387  1  1.56708  0  0.185153  0.560232  0  4.259106  0
C  C80  1  0.73098369  0.72212574  0.40798301  1  1.567049  0  0.18516  0.560239  0  4.259083  0
C  C81  1  0.27787552  0.26901534  0.09201683  1  1.567076  0  0.185179  0.560384  0  4.258881  0
C  C82  1  0.16914372  0.33230080  0.64595913  1  0.039352  0  -0.009298  -0.01476  0  3.939611  0
C  C83  1  0.66769815  0.83085613  0.85404257  1  0.039109  0  -0.009305  -0.014747  0  3.939624  0
C  C84  1  0.83085807  0.66770031  0.35404054  1  0.039002  0  -0.009328  -0.014797  0  3.939663  0
C  C85  1  0.33230282  0.16914269  0.14595813  1  0.038991  0  -0.009306  -0.014798  0  3.939653  0
C  C86  1  0.16223263  0.35354949  0.72599879  1  -0.085302  0  -0.057902  -0.08051  0  3.875469  0
C  C87  1  0.64645097  0.83776783  0.77400220  1  -0.085241  0  -0.057878  -0.080466  0  3.875541  0
C  C88  1  0.83776915  0.64645163  0.27400150  1  -0.085394  0  -0.057839  -0.080407  0  3.875565  0
C  C89  1  0.35355160  0.16223081  0.22599741  1  -0.085155  0  -0.05783  -0.080409  0  3.875563  0
C  C90  1  0.06782520  0.40498677  0.77446169  1  0.008455  0  -0.013858  -0.038082  0  3.953808  0
C  C91  1  0.59501578  0.93217568  0.72553720  1  0.008497  0  -0.013871  -0.038097  0  3.953812  0
C  C92  1  0.93217578  0.59501364  0.22553786  1  0.008531  0  -0.013868  -0.038049  0  3.953668  0
C  C93  1  0.40498759  0.06782366  0.27446191  1  0.008483  0  -0.013906  -0.038092  0  3.953752  0
C  C94  1  0.97855875  0.43208573  0.74462493  1  -0.048585  0  -0.063206  -0.127103  0  3.913696  0
C  C95  1  0.56791566  0.02144228  0.75537384  1  -0.048569  0  -0.063212  -0.127081  0  3.913677  0
C  C96  1  0.02144223  0.56791309  0.25537576  1  -0.048529  0  -0.063216  -0.127118  0  3.913588  0
C  C97  1  0.43208851  0.97855776  0.24462415  1  -0.048679  0  -0.06321  -0.127104  0  3.913543  0
C  C98  1  0.98674578  0.40817844  0.66592330  1  0.18591  0  0.078613  0.064295  0  3.958902  0
C  C99  1  0.59182262  0.01325581  0.83407602  1  0.186012  0  0.078649  0.064383  0  3.958879  0
C  C100  1  0.01325600  0.59182109  0.33407690  1  0.18599  0  0.078607  0.064327  0  3.958935  0
C  C101  1  0.40818075  0.98674432  0.16592221  1  0.185923  0  0.078594  0.064304  0  3.958914  0
C  C102  1  0.08079715  0.36066786  0.61502065  1  0.016924  0  -0.05926  -0.103225  0  3.917249  0
C  C103  1  0.63933097  0.91920314  0.88498030  1  0.016955  0  -0.05927  -0.103253  0  3.91719  0
C  C104  1  0.91920383  0.63933175  0.38497917  1  0.017196  0  -0.059251  -0.103214  0  3.917158  0
C  C105  1  0.36067081  0.08079638  0.11501990  1  0.017158  0  -0.059263  -0.103241  0  3.917299  0
C  C106  1  0.06081135  0.43053289  0.85919921  1  1.618907  0  0.232642  0.645587  0  4.166133  0
C  C107  1  0.56946825  0.93918910  0.64080090  1  1.618825  0  0.232601  0.645484  0  4.166329  0
C  C108  1  0.93919043  0.56946664  0.14080160  1  1.619226  0  0.232623  0.645477  0  4.16626  0
C  C109  1  0.43053352  0.06080963  0.35919894  1  1.618772  0  0.232608  0.645469  0  4.166398  0
C  C110  1  0.31107628  0.94938368  0.62263367  1  1.623352  0  0.230703  0.642822  0  4.168819  0
C  C111  1  0.05061637  0.68892355  0.87736758  1  1.623318  0  0.230734  0.642862  0  4.168774  0
C  C112  1  0.68892309  0.05061454  0.37736899  1  1.623328  0  0.230735  0.642856  0  4.168843  0
C  C113  1  0.94938460  0.31107607  0.12263162  1  1.62332  0  0.230728  0.642884  0  4.168724  0
C  C114  1  0.17684492  0.82315499  0.75000001  1  -0.091673  0  -0.058437  -0.075137  0  3.867003  0
C  C115  1  0.82315525  0.17684471  0.24999942  1  -0.091664  0  -0.058449  -0.075165  0  3.867023  0
C  C116  1  0.19899298  0.92708132  0.68961865  1  0.05248  0  -0.009675  -0.022207  0  3.930582  0
C  C117  1  0.07291881  0.80100706  0.81038186  1  0.052481  0  -0.00967  -0.022218  0  3.930614  0
C  C118  1  0.80100720  0.07291919  0.31038298  1  0.052494  0  -0.00969  -0.022216  0  3.930615  0
C  C119  1  0.92708055  0.19899194  0.18961685  1  0.052469  0  -0.009689  -0.022234  0  3.930607  0
C  C120  1  0.11641775  0.01106969  0.69110204  1  -0.044656  0  -0.063846  -0.120388  0  3.900721  0
C  C121  1  0.98893065  0.88358204  0.80889742  1  -0.044651  0  -0.063877  -0.120371  0  3.900788  0
C  C122  1  0.88358243  0.98893002  0.30889925  1  -0.044629  0  -0.063849  -0.120395  0  3.900718  0
C  C123  1  0.01106952  0.11641846  0.19110052  1  -0.04464  0  -0.063844  -0.120377  0  3.900729  0
C  C124  1  0.01287319  0.98712706  0.74999926  1  0.171339  0  0.070919  0.048583  0  3.976516  0
C  C125  1  0.98712619  0.01287274  0.25000041  1  0.171374  0  0.070874  0.048545  0  3.97654  0
C  C126  1  0.43096367  0.39043797  0.31602595  1  1.383751  0  0.191829  0.336679  0  4.069417  0
C  C127  1  0.60956197  0.56903714  0.18397374  1  1.383719  0  0.191831  0.336674  0  4.06947  0
C  C128  1  0.56903810  0.60956076  0.68397452  1  1.383603  0  0.191813  0.336714  0  4.069533  0
C  C129  1  0.39043901  0.43096327  0.81602581  1  1.38374  0  0.191841  0.336714  0  4.069498  0
C  C130  1  0.56134720  0.30591312  0.20377320  1  0.211108  0  -0.137136  -0.278796  0  3.847729  0
C  C131  1  0.69408667  0.43865166  0.29622662  1  0.211053  0  -0.137126  -0.278776  0  3.847704  0
C  C132  1  0.43865457  0.69408562  0.79622727  1  0.210891  0  -0.137161  -0.278797  0  3.847816  0
C  C133  1  0.30591270  0.56134656  0.70377420  1  0.210999  0  -0.137134  -0.278815  0  3.847842  0
C  C134  1  0.42235585  0.44922071  0.15656111  1  0.258181  0  -0.132785  -0.293862  0  3.888357  0
C  C135  1  0.55078021  0.57764420  0.34343849  1  0.258246  0  -0.132737  -0.293701  0  3.888453  0
C  C136  1  0.57764592  0.55077723  0.84343962  1  0.257987  0  -0.132731  -0.29376  0  3.888215  0
C  C137  1  0.44922077  0.42235621  0.65656106  1  0.258052  0  -0.132749  -0.293717  0  3.88835  0
C  C138  1  0.66466866  0.20738660  0.53149241  1  1.385388  0  0.182096  0.314882  0  4.108841  0
C  C139  1  0.79261408  0.33532904  0.96850769  1  1.385276  0  0.182095  0.314916  0  4.108783  0
C  C140  1  0.33532912  0.79261417  0.46850747  1  1.385274  0  0.18208  0.314912  0  4.108761  0
C  C141  1  0.20738689  0.66466978  0.03149116  1  1.385341  0  0.182131  0.315014  0  4.108746  0
C  C142  1  0.71631006  0.37163489  0.52132065  1  0.256032  0  -0.132025  -0.269658  0  3.884864  0
C  C143  1  0.62836504  0.28368835  0.97868130  1  0.256049  0  -0.132074  -0.269739  0  3.884904  0
C  C144  1  0.28369012  0.62836562  0.47867914  1  0.255995  0  -0.132058  -0.269694  0  3.884904  0
C  C145  1  0.37163354  0.71630996  0.02132098  1  0.255984  0  -0.132047  -0.269661  0  3.884922  0
C  C146  1  0.83181274  0.19973820  0.55515033  1  0.279526  0  -0.131262  -0.277237  0  3.918071  0
C  C147  1  0.80025995  0.16818598  0.94484969  1  0.279511  0  -0.13124  -0.27729  0  3.918165  0
C  C148  1  0.16818583  0.80026090  0.44484984  1  0.279683  0  -0.13127  -0.277347  0  3.918129  0
C  C149  1  0.19973701  0.83181250  0.05514999  1  0.279526  0  -0.131267  -0.277238  0  3.918043  0
N  N150  1  0.89220645  0.43020794  0.63710608  1  0.382254  0  0.060941  0.527431  0  4.185962  0
N  N151  1  0.56979151  0.10779426  0.86289466  1  0.382284  0  0.060856  0.527265  0  4.185991  0
N  N152  1  0.10779373  0.56979098  0.36289546  1  0.382267  0  0.060819  0.527259  0  4.185989  0
N  N153  1  0.43020947  0.89220615  0.13710489  1  0.382254  0  0.060858  0.527309  0  4.186  0
N  N154  1  0.92554153  0.07445748  0.74999984  1  0.357246  0  0.054961  0.511374  0  4.199496  0
N  N155  1  0.07445863  0.92554063  0.24999952  1  0.357267  0  0.054956  0.511347  0  4.199588  0
N  N156  1  0.46922987  0.38149502  0.22980103  1  -1.190716  0  -0.27496  0.044009  0  3.724891  0
N  N157  1  0.61850518  0.53077064  0.27019868  1  -1.190502  0  -0.274958  0.043979  0  3.724913  0
N  N158  1  0.53077190  0.61850291  0.77019969  1  -1.190361  0  -0.274965  0.043857  0  3.725028  0
N  N159  1  0.38149579  0.46922898  0.72980114  1  -1.190628  0  -0.274948  0.043947  0  3.725016  0
N  N160  1  0.73511458  0.25789552  0.53437253  1  -1.220636  0  -0.277868  0.034822  0  3.708403  0
N  N161  1  0.74210389  0.26488345  0.96562851  1  -1.22057  0  -0.277868  0.034821  0  3.708485  0
N  N162  1  0.26488400  0.74210516  0.46562711  1  -1.220702  0  -0.277854  0.034874  0  3.70844  0
N  N163  1  0.25789468  0.73511486  0.03437255  1  -1.220623  0  -0.277873  0.034737  0  3.708575  0
O  O164  1  0.27151840  0.26703061  0.51684626  1  -1.161668  0  -0.370027  -0.605901  0  2.183916  0
O  O165  1  0.73296977  0.72848239  0.98315468  1  -1.16171  0  -0.370064  -0.605875  0  2.18394  0
O  O166  1  0.72848258  0.73297060  0.48315364  1  -1.161705  0  -0.370038  -0.60583  0  2.183931  0
O  O167  1  0.26703040  0.27151653  0.01684625  1  -1.161699  0  -0.370045  -0.605914  0  2.183885  0
O  O168  1  0.34853125  0.24379718  0.62309215  1  -1.181485  0  -0.390149  -0.643551  0  2.172731  0
O  O169  1  0.75620326  0.65146842  0.87690793  1  -1.181501  0  -0.390093  -0.643454  0  2.172764  0
O  O170  1  0.65146892  0.75620332  0.37690703  1  -1.181464  0  -0.390105  -0.64348  0  2.172773  0
O  O171  1  0.24379691  0.34853049  0.12309300  1  -1.181411  0  -0.390126  -0.643536  0  2.172688  0
O  O172  1  0.14517120  0.41157184  0.88026349  1  -1.173173  0  -0.378571  -0.633885  0  2.294238  0
O  O173  1  0.58842976  0.85483038  0.61973611  1  -1.17306  0  -0.378563  -0.63383  0  2.294367  0
O  O174  1  0.85483059  0.58842928  0.11973679  1  -1.173456  0  -0.378606  -0.633894  0  2.29435  0
O  O175  1  0.41157042  0.14517091  0.38026218  1  -1.173056  0  -0.378577  -0.633885  0  2.294419  0
O  O176  1  0.97005396  0.46911605  0.90383052  1  -1.213761  0  -0.404115  -0.708852  0  2.406117  0
O  O177  1  0.53088469  0.02994787  0.59616882  1  -1.213769  0  -0.404086  -0.708819  0  2.406153  0
O  O178  1  0.02994782  0.53088348  0.09616968  1  -1.213788  0  -0.404072  -0.708784  0  2.406106  0
O  O179  1  0.46911709  0.97005245  0.40383050  1  -1.213791  0  -0.404057  -0.708769  0  2.40612  0
O  O180  1  0.90445418  0.42370061  0.55935819  1  -0.479488  0  -0.123198  -0.340885  0  1.977223  0
O  O181  1  0.57629711  0.09554608  0.94064266  1  -0.479521  0  -0.123146  -0.340808  0  1.977301  0
O  O182  1  0.09554598  0.57629593  0.44064354  1  -0.479587  0  -0.123137  -0.340804  0  1.977229  0
O  O183  1  0.42370387  0.90445433  0.05935689  1  -0.479568  0  -0.123159  -0.340834  0  1.977266  0
O  O184  1  0.80398251  0.45270888  0.69300258  1  -0.487712  0  -0.134465  -0.353753  0  1.941621  0
O  O185  1  0.54729165  0.19601863  0.80699640  1  -0.487744  0  -0.134451  -0.353697  0  1.941509  0
O  O186  1  0.19601847  0.54729074  0.30699785  1  -0.487718  0  -0.134409  -0.353674  0  1.941516  0
O  O187  1  0.45271012  0.80398168  0.19300169  1  -0.487723  0  -0.134416  -0.353684  0  1.941535  0
O  O188  1  0.32851431  0.04641488  0.58528119  1  -1.189778  0  -0.39151  -0.656799  0  2.355057  0
O  O189  1  0.95358594  0.67148575  0.91471805  1  -1.189711  0  -0.391511  -0.656804  0  2.355032  0
O  O190  1  0.67148666  0.95358473  0.41471740  1  -1.189768  0  -0.391519  -0.656806  0  2.355051  0
O  O191  1  0.04641503  0.32851387  0.08528116  1  -1.189727  0  -0.391517  -0.656805  0  2.355048  0
O  O192  1  0.37724029  0.86924402  0.60877310  1  -1.200367  0  -0.377172  -0.669379  0  2.340902  0
O  O193  1  0.13075679  0.62275930  0.89122677  1  -1.200381  0  -0.377189  -0.669382  0  2.340874  0
O  O194  1  0.62275908  0.13075579  0.39122780  1  -1.200367  0  -0.377171  -0.669367  0  2.340892  0
O  O195  1  0.86924418  0.37724032  0.10877244  1  -1.200367  0  -0.377177  -0.669394  0  2.340815  0
O  O196  1  0.46972043  0.33662643  0.38150140  1  -1.198858  0  -0.390921  -0.577979  0  2.417401  0
O  O197  1  0.66337282  0.53028045  0.11849913  1  -1.198831  0  -0.390915  -0.577971  0  2.417475  0
O  O198  1  0.53028054  0.66337161  0.61850079  1  -1.198805  0  -0.390897  -0.577982  0  2.417492  0
O  O199  1  0.33662816  0.46971917  0.88150130  1  -1.198812  0  -0.39093  -0.577994  0  2.417495  0
O  O200  1  0.57777687  0.25107459  0.51795632  1  -1.170515  0  -0.347992  -0.52787  0  2.371628  0
O  O201  1  0.74892677  0.42222064  0.98204606  1  -1.17045  0  -0.347966  -0.527848  0  2.371591  0
O  O202  1  0.42222172  0.74892611  0.48204455  1  -1.170458  0  -0.347969  -0.527864  0  2.371569  0
O  O203  1  0.25107499  0.57777650  0.01795493  1  -1.170508  0  -0.348016  -0.527946  0  2.371559  0
O  O204  1  0.83196801  0.05102893  0.78779586  1  -0.481387  0  -0.130445  -0.346767  0  1.973172  0
O  O205  1  0.94897056  0.16803219  0.71220201  1  -0.481467  0  -0.130474  -0.346788  0  1.973116  0
O  O206  1  0.16803215  0.94896997  0.21220199  1  -0.48147  0  -0.13043  -0.346728  0  1.973155  0
O  O207  1  0.05102960  0.83196671  0.28779585  1  -0.481405  0  -0.130467  -0.346791  0  1.973218  0
