# generated using pymatgen
data_AlH15C21(NO)6
_symmetry_space_group_name_H-M   'P 1'
_cell_length_a   3.95877103
_cell_length_b   27.90102375
_cell_length_c   27.90117661
_cell_angle_alpha   119.99929417
_cell_angle_beta   89.99922875
_cell_angle_gamma   90.00036244
_symmetry_Int_Tables_number   1
_chemical_formula_structural   AlH15C21(NO)6
_chemical_formula_sum   'Al2 H30 C42 N12 O12'
_cell_volume   2668.92740089
_cell_formula_units_Z   2
loop_
 _symmetry_equiv_pos_site_id
 _symmetry_equiv_pos_as_xyz
  1  'x, y, z'
loop_
 _atom_site_type_symbol
 _atom_site_label
 _atom_site_symmetry_multiplicity
 _atom_site_fract_x
 _atom_site_fract_y
 _atom_site_fract_z
 _atom_site_occupancy
 _atom_site_pbe_bader_charge
 _atom_site_pbe_bader_spin_density
 _atom_site_pbe_cm5_charge
 _atom_site_pbe_ddec_charge
 _atom_site_pbe_ddec_spin_density
 _atom_site_pbe_ddec_sum_bond_order
 _atom_site_pbe_magmom
Al  Al0  1  0.95980812  0.50000106  0.49999876  1  2.505595  0  0.421435  1.588992  0  2.579342  0
Al  Al1  1  0.95980480  0.16666675  0.83333730  1  2.505467  0  0.421444  1.589035  0  2.579307  0
H  H2  1  0.15127279  0.19052142  0.70260435  1  0.100318  0  0.107451  0.112644  0  0.987077  0
H  H3  1  0.14619909  0.24377409  0.65188761  1  0.103934  0  0.103613  0.114121  0  1.012099  0
H  H4  1  0.70149932  0.37457300  0.78592933  1  0.088648  0  0.106614  0.122167  0  0.994748  0
H  H5  1  0.70146589  0.29209203  0.54740071  1  0.08816  0  0.106634  0.122193  0  0.994815  0
H  H6  1  0.14612851  0.42288500  0.68143875  1  0.103914  0  0.103619  0.114268  0  1.01208  0
H  H7  1  0.15119937  0.47614258  0.63072569  1  0.100322  0  0.10743  0.112619  0  0.986838  0
H  H8  1  0.15120551  0.01208006  0.80947856  1  0.102257  0  0.107455  0.112635  0  0.986864  0
H  H9  1  0.14615621  0.90810978  0.75622258  1  0.092604  0  0.103595  0.11417  0  1.012158  0
H  H10  1  0.70151417  0.91135915  0.62543065  1  0.055266  0  0.106609  0.122201  0  0.994758  0
H  H11  1  0.70151678  0.75530488  0.70790881  1  0.054966  0  0.106601  0.122111  0  0.994727  0
H  H12  1  0.14615630  0.75856069  0.57712019  1  0.092748  0  0.10362  0.11416  0  1.012019  0
H  H13  1  0.15122875  0.65459104  0.52386230  1  0.102513  0  0.107439  0.112656  0  0.986944  0
H  H14  1  0.15119339  0.29738719  0.98792010  1  0.091127  0  0.107493  0.112719  0  0.986793  0
H  H15  1  0.14611960  0.34809993  0.09188717  1  0.105177  0  0.103663  0.11423  0  1.012127  0
H  H16  1  0.70152139  0.21406668  0.08864715  1  0.074401  0  0.106534  0.122043  0  0.994696  0
H  H17  1  0.70145875  0.45259976  0.24468760  1  0.074758  0  0.106599  0.122174  0  0.994689  0
H  H18  1  0.14610926  0.31856059  0.24144890  1  0.105098  0  0.103613  0.114219  0  1.012104  0
H  H19  1  0.15120299  0.36927246  0.34541716  1  0.090819  0  0.10743  0.112598  0  0.986807  0
H  H20  1  0.84575105  0.29740345  0.85703155  1  0.475862  0  0.304009  0.315263  0  0.968955  0
H  H21  1  0.94734975  0.35539272  0.85318677  1  0.439611  0  0.307754  0.306534  0  0.935751  0
H  H22  1  0.84575320  0.36926278  0.47630273  1  0.475595  0  0.304008  0.315279  0  0.968988  0
H  H23  1  0.94733120  0.31127494  0.48014875  1  0.439731  0  0.307762  0.306573  0  0.935772  0
H  H24  1  0.84575301  0.05962793  0.70259831  1  0.499932  0  0.303997  0.315267  0  0.969042  0
H  H25  1  0.94734657  0.99779522  0.64461092  1  0.443521  0  0.307711  0.306498  0  0.935891  0
H  H26  1  0.84574619  0.60703439  0.63073414  1  0.499838  0  0.304004  0.315249  0  0.968972  0
H  H27  1  0.94734707  0.66886587  0.68872597  1  0.443489  0  0.30771  0.30652  0  0.935719  0
H  H28  1  0.84574608  0.14296656  0.94037966  1  0.470459  0  0.30416  0.315409  0  0.968859  0
H  H29  1  0.94734775  0.14681164  0.00220868  1  0.442429  0  0.307804  0.306596  0  0.935836  0
H  H30  1  0.84575060  0.52369550  0.39295377  1  0.47063  0  0.304117  0.315407  0  0.968842  0
H  H31  1  0.94731528  0.51985089  0.33112088  1  0.442882  0  0.307822  0.306597  0  0.935842  0
C  C32  1  0.45560690  0.46265263  0.41431757  1  1.498068  0  0.265837  0.653066  0  4.054822  0
C  C33  1  0.45559825  0.45166604  0.53734656  1  1.49546  0  0.265862  0.653155  0  4.054615  0
C  C34  1  0.45560836  0.58568303  0.54833373  1  1.451694  0  0.265911  0.65324  0  4.054618  0
C  C35  1  0.45560828  0.21500043  0.79598828  1  1.495625  0  0.265779  0.652871  0  4.054858  0
C  C36  1  0.45559818  0.08098267  0.78500116  1  1.452027  0  0.265813  0.653261  0  4.054906  0
C  C37  1  0.45560721  0.20401137  0.91901687  1  1.498415  0  0.265878  0.653161  0  4.054213  0
C  C38  1  0.45136909  0.24996807  0.77026926  1  -0.016464  0  -0.027265  -0.178756  0  3.929186  0
C  C39  1  0.27938588  0.23026731  0.71951798  1  0.000723  0  -0.080115  -0.051966  0  4.004567  0
C  C40  1  0.27471219  0.25933566  0.69140546  1  -0.046575  0  -0.102665  -0.191061  0  3.992811  0
C  C41  1  0.42989923  0.31184745  0.71656934  1  0.31844  0  0.088576  0.19605  0  4.078657  0
C  C42  1  0.58570826  0.33368975  0.76802484  1  -0.071312  0  -0.098084  -0.277314  0  3.916927  0
C  C43  1  0.61477589  0.30257361  0.79493797  1  0.471667  0  0.108632  0.307211  0  4.076431  0
C  C44  1  0.58566235  0.33297637  0.56530650  1  -0.07052  0  -0.098117  -0.277407  0  3.916884  0
C  C45  1  0.42982920  0.35481529  0.61676140  1  0.318857  0  0.088728  0.196299  0  4.078619  0
C  C46  1  0.27466488  0.40732843  0.64192568  1  -0.047142  0  -0.102801  -0.19156  0  3.993085  0
C  C47  1  0.27931227  0.43639103  0.61381029  1  0.000875  0  -0.079978  -0.051589  0  4.004203  0
C  C48  1  0.45133480  0.41669744  0.56306297  1  -0.016779  0  -0.027365  -0.17907  0  3.929118  0
C  C49  1  0.61475166  0.36409071  0.53839153  1  0.47153  0  0.108699  0.307366  0  4.076311  0
C  C50  1  0.45135219  0.02030060  0.75003341  1  0.083884  0  -0.027461  -0.179361  0  3.929044  0
C  C51  1  0.27932500  0.98924253  0.76972760  1  0.063411  0  -0.079979  -0.051525  0  4.004136  0
C  C52  1  0.27469486  0.93206702  0.74066427  1  -0.16932  0  -0.102751  -0.191362  0  3.993613  0
C  C53  1  0.42987369  0.90471788  0.68815432  1  0.357622  0  0.088543  0.195934  0  4.079066  0
C  C54  1  0.58570155  0.93433836  0.66631493  1  -0.016221  0  -0.098023  -0.277236  0  3.916806  0
C  C55  1  0.61477607  0.99236651  0.69742939  1  0.427622  0  0.108704  0.307462  0  4.076172  0
C  C56  1  0.58571207  0.73232737  0.66702809  1  -0.015808  0  -0.098086  -0.277322  0  3.916763  0
C  C57  1  0.42988259  0.76194751  0.64518864  1  0.357271  0  0.088712  0.196101  0  4.07874  0
C  C58  1  0.27470248  0.73460116  0.59267764  1  -0.169195  0  -0.102803  -0.191349  0  3.993281  0
C  C59  1  0.27933279  0.67742439  0.56361055  1  0.063254  0  -0.080015  -0.051679  0  4.004386  0
C  C60  1  0.45135170  0.64636689  0.58330329  1  0.083861  0  -0.027344  -0.179072  0  3.929091  0
C  C61  1  0.61477428  0.67429967  0.63590739  1  0.427322  0  0.108715  0.30746  0  4.076013  0
C  C62  1  0.45133842  0.22972509  0.97970294  1  0.011557  0  -0.027422  -0.179166  0  3.928656  0
C  C63  1  0.27931479  0.28047580  0.01075740  1  -0.007059  0  -0.080038  -0.051713  0  4.004091  0
C  C64  1  0.27465721  0.30858868  0.06793112  1  -0.054884  0  -0.102814  -0.191335  0  3.993485  0
C  C65  1  0.42984743  0.28342908  0.09528229  1  0.308711  0  0.088551  0.195858  0  4.078898  0
C  C66  1  0.58569149  0.23197029  0.06566601  1  -0.064861  0  -0.09803  -0.2772  0  3.916506  0
C  C67  1  0.61479107  0.20505478  0.00763609  1  0.510174  0  0.108818  0.307536  0  4.075998  0
C  C68  1  0.58564605  0.43469256  0.26766826  1  -0.065563  0  -0.097966  -0.277264  0  3.916505  0
C  C69  1  0.42981258  0.38323328  0.23805136  1  0.308948  0  0.088566  0.196037  0  4.078898  0
C  C70  1  0.27464890  0.35807435  0.26540432  1  -0.054858  0  -0.102756  -0.191448  0  3.99338  0
C  C71  1  0.27931240  0.38618676  0.32257922  1  -0.006778  0  -0.080054  -0.051642  0  4.004198  0
C  C72  1  0.45133516  0.43693715  0.35363471  1  0.011146  0  -0.027411  -0.179077  0  3.929033  0
C  C73  1  0.61475394  0.46160810  0.32570024  1  0.51082  0  0.108664  0.30734  0  4.076405  0
N  N74  1  0.43560242  0.34632697  0.69283870  1  -0.535462  0  -0.14222  -0.124385  0  3.255419  0
N  N75  1  0.43557401  0.32033675  0.64049177  1  -0.368068  0  -0.142257  -0.124325  0  3.255573  0
N  N76  1  0.43561822  0.84651328  0.65367669  1  -0.533969  0  -0.142346  -0.124598  0  3.255852  0
N  N77  1  0.43561890  0.82015514  0.67966682  1  -0.377277  0  -0.142046  -0.123922  0  3.255297  0
N  N78  1  0.43558435  0.30715913  0.15349345  1  -0.544284  0  -0.142053  -0.124124  0  3.25537  0
N  N79  1  0.43554892  0.35950562  0.17984424  1  -0.379486  0  -0.142252  -0.124326  0  3.255717  0
N  N80  1  0.77791050  0.32501705  0.84502176  1  -1.23331  0  -0.596723  -0.620125  0  3.305781  0
N  N81  1  0.77789760  0.34164925  0.48830900  1  -1.233158  0  -0.59676  -0.620219  0  3.305861  0
N  N82  1  0.77791419  0.02000821  0.67498557  1  -1.25647  0  -0.596669  -0.620069  0  3.305845  0
N  N83  1  0.77790654  0.64665468  0.65835005  1  -1.256154  0  -0.596743  -0.620178  0  3.305441  0
N  N84  1  0.77791785  0.15497318  0.97999833  1  -1.23958  0  -0.596954  -0.620325  0  3.305889  0
N  N85  1  0.77789277  0.51169007  0.35333476  1  -1.240182  0  -0.596904  -0.620315  0  3.305998  0
O  O86  1  0.69198123  0.55842451  0.55602147  1  -1.256391  0  -0.239818  -0.606226  0  2.394575  0
O  O87  1  0.69197773  0.49759792  0.44157183  1  -1.257273  0  -0.239764  -0.606036  0  2.39454  0
O  O88  1  0.69197361  0.44397807  0.50240145  1  -1.256226  0  -0.239763  -0.606047  0  2.394372  0
O  O89  1  0.22478289  0.56236741  0.51160535  1  -1.259056  0  -0.246148  -0.607117  0  2.368998  0
O  O90  1  0.22476923  0.48839590  0.55075863  1  -1.253894  0  -0.246177  -0.607131  0  2.369184  0
O  O91  1  0.22477122  0.44924217  0.43763581  1  -1.261988  0  -0.24614  -0.60709  0  2.369129  0
O  O92  1  0.69197400  0.16906293  0.89176025  1  -1.257384  0  -0.23988  -0.606271  0  2.394429  0
O  O93  1  0.69197307  0.22269048  0.83093585  1  -1.256289  0  -0.239772  -0.606029  0  2.394246  0
O  O94  1  0.69196545  0.10824215  0.77731270  1  -1.256657  0  -0.239747  -0.606271  0  2.394547  0
O  O95  1  0.22476931  0.21742163  0.89570216  1  -1.261972  0  -0.24611  -0.607058  0  2.368925  0
O  O96  1  0.22478037  0.10429925  0.82172761  1  -1.259119  0  -0.246112  -0.607082  0  2.369269  0
O  O97  1  0.22477887  0.17827470  0.78257828  1  -1.254066  0  -0.246031  -0.60682  0  2.369292  0
