# generated using pymatgen
data_ZnH8C12Br(NO2)2
_symmetry_space_group_name_H-M   'P 1'
_cell_length_a   8.22923186
_cell_length_b   11.91782744
_cell_length_c   15.46990831
_cell_angle_alpha   84.34140917
_cell_angle_beta   74.56494406
_cell_angle_gamma   69.81462659
_symmetry_Int_Tables_number   1
_chemical_formula_structural   ZnH8C12Br(NO2)2
_chemical_formula_sum   'Zn4 H32 C48 Br4 N8 O16'
_cell_volume   1372.62071554
_cell_formula_units_Z   4
loop_
 _symmetry_equiv_pos_site_id
 _symmetry_equiv_pos_as_xyz
  1  'x, y, z'
loop_
 _atom_site_type_symbol
 _atom_site_label
 _atom_site_symmetry_multiplicity
 _atom_site_fract_x
 _atom_site_fract_y
 _atom_site_fract_z
 _atom_site_occupancy
 _atom_site_hle17_bader_spin_density
 _atom_site_hle17_ddec_charge
 _atom_site_hle17_ddec_spin_density
 _atom_site_hle17_ddec_sum_bond_order
 _atom_site_hle17_magmom
 _atom_site_hse06_10hf_bader_spin_density
 _atom_site_hse06_10hf_ddec_charge
 _atom_site_hse06_10hf_ddec_spin_density
 _atom_site_hse06_10hf_ddec_sum_bond_order
 _atom_site_hse06_10hf_magmom
 _atom_site_hse06_bader_spin_density
 _atom_site_hse06_ddec_charge
 _atom_site_hse06_ddec_spin_density
 _atom_site_hse06_ddec_sum_bond_order
 _atom_site_hse06_magmom
 _atom_site_pbe_bader_spin_density
 _atom_site_pbe_cm5_charge
 _atom_site_pbe_ddec_charge
 _atom_site_pbe_ddec_spin_density
 _atom_site_pbe_ddec_sum_bond_order
 _atom_site_pbe_magmom
Zn  Zn0  1  0.26474099  0.24774610  0.62072674  1  0  1.081034  0  1.849119  0  0  0.903867  0  2.334217  0  0  0.951151  0  2.273282  0  0  0.700717  0.87084  0  2.376245  0
Zn  Zn1  1  0.13344601  0.25205853  0.87908503  1  0  1.081319  0  1.84758  0  0  0.903849  0  2.33293  0  0  0.951161  0  2.272  0  0  0.700464  0.870785  0  2.374887  0
Zn  Zn2  1  0.73525558  0.75225634  0.37927415  1  0  1.081005  0  1.84909  0  0  0.90381  0  2.334183  0  0  0.951095  0  2.273249  0  0  0.700693  0.87078  0  2.37621  0
Zn  Zn3  1  0.86655338  0.74794212  0.12091393  1  0  1.081309  0  1.847574  0  0  0.903841  0  2.33292  0  0  0.951154  0  2.27199  0  0  0.700466  0.87078  0  2.374873  0
H  H4  1  0.95712256  0.54134320  0.59766496  1  0  0.126321  0  0.935506  0  0  0.134336  0  0.998334  0  0  0.138829  0  0.993979  0  0  0.111965  0.131039  0  1.001549  0
H  H5  1  0.09603339  0.95877096  0.90216669  1  0  0.125976  0  0.935732  0  0  0.133667  0  0.999218  0  0  0.138157  0  0.994869  0  0  0.11172  0.130347  0  1.002474  0
H  H6  1  0.04287730  0.45865296  0.40233074  1  0  0.126269  0  0.935561  0  0  0.134293  0  0.998373  0  0  0.138783  0  0.994021  0  0  0.11193  0.130997  0  1.001588  0
H  H7  1  0.90396294  0.04123327  0.09783354  1  0  0.125945  0  0.935574  0  0  0.133662  0  0.999052  0  0  0.138153  0  0.994702  0  0  0.111703  0.130338  0  1.002313  0
H  H8  1  0.61563585  0.89149437  0.69710941  1  0  0.109461  0  0.955529  0  0  0.116166  0  1.024495  0  0  0.119643  0  1.021748  0  0  0.104126  0.113614  0  1.026527  0
H  H9  1  0.20453987  0.60824335  0.80316346  1  0  0.110094  0  0.955078  0  0  0.11677  0  1.023985  0  0  0.120306  0  1.021131  0  0  0.104258  0.114213  0  1.026027  0
H  H10  1  0.38436386  0.10850003  0.30289366  1  0  0.109492  0  0.955559  0  0  0.116185  0  1.024535  0  0  0.119664  0  1.021787  0  0  0.104122  0.113631  0  1.026565  0
H  H11  1  0.79545754  0.39176088  0.19683695  1  0  0.110088  0  0.955164  0  0  0.116759  0  1.024077  0  0  0.12029  0  1.021224  0  0  0.104264  0.1142  0  1.026118  0
H  H12  1  0.83358350  0.61780954  0.87952863  1  0  0.121378  0  0.954147  0  0  0.127014  0  1.0243  0  0  0.130838  0  1.021356  0  0  0.107016  0.124136  0  1.026591  0
H  H13  1  0.33121633  0.88170177  0.62037698  1  0  0.121712  0  0.954715  0  0  0.126982  0  1.025232  0  0  0.13084  0  1.022264  0  0  0.106849  0.124135  0  1.027482  0
H  H14  1  0.16642852  0.38218395  0.12046886  1  0  0.121387  0  0.954144  0  0  0.127049  0  1.024279  0  0  0.130876  0  1.021332  0  0  0.10704  0.124169  0  1.026571  0
H  H15  1  0.66878542  0.11830067  0.37962250  1  0  0.12169  0  0.954752  0  0  0.12698  0  1.025251  0  0  0.130835  0  1.022282  0  0  0.106829  0.124131  0  1.027505  0
H  H16  1  0.54023844  0.37018594  0.65457716  1  0  0.103578  0  0.967969  0  0  0.110557  0  1.032411  0  0  0.113511  0  1.030691  0  0  0.110607  0.108452  0  1.033633  0
H  H17  1  0.56548043  0.12981037  0.84512329  1  0  0.103269  0  0.966211  0  0  0.109856  0  1.031047  0  0  0.1128  0  1.029351  0  0  0.110664  0.10777  0  1.032258  0
H  H18  1  0.45975364  0.62981293  0.34542499  1  0  0.103616  0  0.967884  0  0  0.11056  0  1.032358  0  0  0.113513  0  1.03064  0  0  0.110615  0.108454  0  1.033581  0
H  H19  1  0.43451989  0.87018491  0.15487619  1  0  0.103222  0  0.966337  0  0  0.109863  0  1.031105  0  0  0.112807  0  1.029409  0  0  0.110669  0.107777  0  1.032315  0
H  H20  1  0.90555187  0.23942253  0.61268075  1  0  0.127828  0  0.963162  0  0  0.136571  0  1.023832  0  0  0.139532  0  1.021991  0  0  0.123442  0.134416  0  1.025216  0
H  H21  1  0.75776559  0.26074168  0.88719580  1  0  0.12688  0  0.96388  0  0  0.136288  0  1.023743  0  0  0.139237  0  1.021933  0  0  0.123546  0.134115  0  1.025173  0
H  H22  1  0.09444237  0.76057724  0.38732257  1  0  0.127804  0  0.963188  0  0  0.136583  0  1.023831  0  0  0.139545  0  1.021989  0  0  0.123431  0.134428  0  1.025215  0
H  H23  1  0.24223493  0.73925540  0.11280384  1  0  0.126868  0  0.963901  0  0  0.136289  0  1.023746  0  0  0.139238  0  1.021937  0  0  0.123547  0.134116  0  1.025175  0
H  H24  1  0.61934498  0.02814008  0.56126931  1  0  0.122122  0  0.98158  0  0  0.129235  0  1.046644  0  0  0.133002  0  1.042213  0  0  0.137268  0.126449  0  1.049841  0
H  H25  1  0.20878175  0.47161445  0.93870912  1  0  0.122796  0  0.980429  0  0  0.130232  0  1.044998  0  0  0.133781  0  1.040903  0  0  0.137448  0.127434  0  1.048235  0
H  H26  1  0.38065096  0.97185967  0.43872977  1  0  0.122129  0  0.981577  0  0  0.129228  0  1.046656  0  0  0.132997  0  1.04222  0  0  0.137267  0.126442  0  1.049854  0
H  H27  1  0.79121813  0.52838262  0.06129116  1  0  0.122811  0  0.980479  0  0  0.130254  0  1.045036  0  0  0.133796  0  1.040952  0  0  0.137453  0.127456  0  1.048274  0
H  H28  1  0.95847624  0.92479611  0.58452871  1  0  0.086311  0  0.912548  0  0  0.101824  0  0.972518  0  0  0.101888  0  0.97362  0  0  0.114352  0.101688  0  0.971824  0
H  H29  1  0.46743941  0.57522808  0.91553240  1  0  0.086017  0  0.911942  0  0  0.101887  0  0.971787  0  0  0.101904  0  0.972952  0  0  0.11425  0.101768  0  0.971025  0
H  H30  1  0.04152034  0.07520454  0.41547054  1  0  0.086308  0  0.912574  0  0  0.101834  0  0.972543  0  0  0.101899  0  0.973645  0  0  0.114359  0.101695  0  0.971859  0
H  H31  1  0.53256153  0.42476898  0.08446430  1  0  0.086034  0  0.911924  0  0  0.101924  0  0.971735  0  0  0.101945  0  0.972902  0  0  0.114252  0.101804  0  0.970976  0
H  H32  1  0.07869584  0.02650652  0.57323788  1  0  0.101217  0  0.944806  0  0  0.112851  0  1.011689  0  0  0.114387  0  1.010667  0  0  0.117569  0.111597  0  1.012626  0
H  H33  1  0.67824321  0.47367322  0.92663603  1  0  0.100714  0  0.943983  0  0  0.112173  0  1.011251  0  0  0.113716  0  1.010213  0  0  0.117721  0.110928  0  1.012161  0
H  H34  1  0.92130181  0.97349502  0.42676237  1  0  0.101189  0  0.944825  0  0  0.112825  0  1.01172  0  0  0.11436  0  1.010701  0  0  0.117542  0.111574  0  1.012657  0
H  H35  1  0.32175359  0.52632653  0.07336094  1  0  0.100705  0  0.944047  0  0  0.112166  0  1.011308  0  0  0.113707  0  1.010272  0  0  0.117717  0.110922  0  1.012217  0
C  C36  1  0.01432399  0.44151287  0.75676992  1  0  0.682899  0  3.871473  0  0  0.632596  0  4.154266  0  0  0.668264  0  4.14548  0  0  0.225012  0.608298  0  4.159639  0
C  C37  1  0.21272484  0.05825881  0.74293604  1  0  0.681104  0  3.872524  0  0  0.6309  0  4.154854  0  0  0.66652  0  4.146133  0  0  0.225573  0.606632  0  4.160181  0
C  C38  1  0.98567826  0.55848510  0.24323006  1  0  0.682882  0  3.871376  0  0  0.632573  0  4.154155  0  0  0.668243  0  4.145371  0  0  0.225033  0.608276  0  4.159526  0
C  C39  1  0.78728082  0.94174183  0.25706169  1  0  0.681073  0  3.872609  0  0  0.630875  0  4.154882  0  0  0.666505  0  4.146149  0  0  0.225581  0.606607  0  4.160209  0
C  C40  1  0.90272458  0.56643672  0.74056833  1  0  -0.059891  0  3.757472  0  0  -0.031187  0  3.989715  0  0  -0.041335  0  4.013159  0  0  -0.016772  -0.024758  0  3.974007  0
C  C41  1  0.20972011  0.93336813  0.75927104  1  0  -0.059736  0  3.759891  0  0  -0.029524  0  3.990136  0  0  -0.039656  0  4.013593  0  0  -0.016415  -0.023064  0  3.974369  0
C  C42  1  0.09727832  0.43356035  0.25943019  1  0  -0.059824  0  3.757522  0  0  -0.031094  0  3.989738  0  0  -0.041251  0  4.0132  0  0  -0.016756  -0.024666  0  3.97403  0
C  C43  1  0.79028274  0.06663251  0.24072698  1  0  -0.059739  0  3.759744  0  0  -0.029486  0  3.989949  0  0  -0.039622  0  4.013403  0  0  -0.016426  -0.023027  0  3.974182  0
C  C44  1  0.88834857  0.60336968  0.65340042  1  0  -0.065147  0  3.67314  0  0  -0.107522  0  3.92253  0  0  -0.102943  0  3.938615  0  0  -0.074435  -0.110288  0  3.911706  0
C  C45  1  0.14504312  0.89662522  0.84650658  1  0  -0.063144  0  3.673023  0  0  -0.106189  0  3.922343  0  0  -0.101558  0  3.93838  0  0  -0.074106  -0.108913  0  3.911531  0
C  C46  1  0.11164673  0.39662917  0.34659850  1  0  -0.065165  0  3.673071  0  0  -0.107583  0  3.922479  0  0  -0.103002  0  3.938572  0  0  -0.074441  -0.11035  0  3.911657  0
C  C47  1  0.85495384  0.10338080  0.15349463  1  0  -0.06311  0  3.673016  0  0  -0.106215  0  3.922345  0  0  -0.101584  0  3.938384  0  0  -0.074104  -0.10894  0  3.911534  0
C  C48  1  0.78228161  0.72000669  0.63836026  1  0  -0.05548  0  3.764433  0  0  -0.029497  0  4.002696  0  0  -0.038981  0  4.025972  0  0  -0.018824  -0.02361  0  3.987223  0
C  C49  1  0.14055073  0.77997767  0.86169578  1  0  -0.057028  0  3.765483  0  0  -0.030249  0  4.003113  0  0  -0.039765  0  4.026395  0  0  -0.019121  -0.024346  0  3.987577  0
C  C50  1  0.21772151  0.27999038  0.36164055  1  0  -0.055406  0  3.764415  0  0  -0.029368  0  4.00261  0  0  -0.038851  0  4.025887  0  0  -0.01878  -0.023483  0  3.987135  0
C  C51  1  0.85944904  0.22002834  0.13830514  1  0  -0.057136  0  3.765648  0  0  -0.030325  0  4.00328  0  0  -0.039843  0  4.026564  0  0  -0.019126  -0.024423  0  3.987742  0
C  C52  1  0.69709938  0.80081907  0.70971106  1  0  -0.109124  0  3.723181  0  0  -0.145241  0  3.972796  0  0  -0.143655  0  3.992349  0  0  -0.086953  -0.14592  0  3.95961  0
C  C53  1  0.20783332  0.69895424  0.79046543  1  0  -0.111152  0  3.723235  0  0  -0.147447  0  3.973175  0  0  -0.145858  0  3.992723  0  0  -0.08751  -0.148054  0  3.959853  0
C  C54  1  0.30290136  0.19917891  0.29029169  1  0  -0.109238  0  3.723354  0  0  -0.145349  0  3.972952  0  0  -0.143766  0  3.992507  0  0  -0.086966  -0.146022  0  3.959759  0
C  C55  1  0.79216842  0.30105089  0.20953650  1  0  -0.110986  0  3.723351  0  0  -0.147303  0  3.973306  0  0  -0.145706  0  3.992848  0  0  -0.087515  -0.14791  0  3.959982  0
C  C56  1  0.71669078  0.76309085  0.79555746  1  0  0.088184  0  3.728832  0  0  0.108884  0  3.99617  0  0  0.108981  0  4.018926  0  0  -0.01708  0.108408  0  3.980833  0
C  C57  1  0.27572041  0.73650028  0.70457810  1  0  0.090085  0  3.72479  0  0  0.110413  0  3.992731  0  0  0.11052  0  4.015474  0  0  -0.016728  0.109947  0  3.977397  0
C  C58  1  0.28332727  0.23690802  0.20444517  1  0  0.088194  0  3.728733  0  0  0.108863  0  3.996116  0  0  0.108961  0  4.018874  0  0  -0.01712  0.108388  0  3.980778  0
C  C59  1  0.72427724  0.26350216  0.29542296  1  0  0.089928  0  3.725009  0  0  0.110278  0  3.992939  0  0  0.110384  0  4.015682  0  0  -0.016708  0.109815  0  3.977603  0
C  C60  1  0.81619671  0.64603054  0.81250241  1  0  -0.109712  0  3.714426  0  0  -0.146953  0  3.966674  0  0  -0.145278  0  3.985618  0  0  -0.085483  -0.147609  0  3.953819  0
C  C61  1  0.27488236  0.85361390  0.68743955  1  0  -0.1107  0  3.712698  0  0  -0.148059  0  3.965005  0  0  -0.1464  0  3.983885  0  0  -0.085219  -0.148805  0  3.952258  0
C  C62  1  0.18381116  0.35396743  0.18749699  1  0  -0.109701  0  3.714446  0  0  -0.146979  0  3.966687  0  0  -0.1453  0  3.985628  0  0  -0.085485  -0.147637  0  3.953835  0
C  C63  1  0.72511569  0.14639033  0.31256021  1  0  -0.110657  0  3.712596  0  0  -0.148051  0  3.964888  0  0  -0.146386  0  3.983768  0  0  -0.085216  -0.148799  0  3.952141  0
C  C64  1  0.75127138  0.75966677  0.54733906  1  0  0.620324  0  3.944236  0  0  0.570306  0  4.238991  0  0  0.604496  0  4.232786  0  0  0.195317  0.54722  0  4.242384  0
C  C65  1  0.05812368  0.74044870  0.95277719  1  0  0.622102  0  3.945282  0  0  0.571885  0  4.239919  0  0  0.6061  0  4.233676  0  0  0.195703  0.548764  0  4.243312  0
C  C66  1  0.24872695  0.24033479  0.45266430  1  0  0.620195  0  3.944397  0  0  0.570184  0  4.239132  0  0  0.604373  0  4.23293  0  0  0.195295  0.547097  0  4.242522  0
C  C67  1  0.94187614  0.25955285  0.04722342  1  0  0.622152  0  3.945195  0  0  0.571913  0  4.239858  0  0  0.606129  0  4.233614  0  0  0.195718  0.548792  0  4.243254  0
C  C68  1  0.61118195  0.28009046  0.62944341  1  0  -0.000277  0  3.772795  0  0  -0.034965  0  4.040371  0  0  -0.033526  0  4.061048  0  0  -0.006742  -0.035936  0  4.026391  0
C  C69  1  0.52103091  0.21989556  0.87032592  1  0  0.003354  0  3.767997  0  0  -0.030814  0  4.035248  0  0  -0.029355  0  4.055918  0  0  -0.00534  -0.031848  0  4.021368  0
C  C70  1  0.38881226  0.71991019  0.37055696  1  0  -0.000256  0  3.772821  0  0  -0.034896  0  4.040412  0  0  -0.033457  0  4.061092  0  0  -0.006713  -0.035868  0  4.02643  0
C  C71  1  0.47897089  0.78010241  0.12967324  1  0  0.003448  0  3.768113  0  0  -0.030758  0  4.035328  0  0  -0.029299  0  4.055999  0  0  -0.005311  -0.031792  0  4.021447  0
C  C72  1  0.79068928  0.21672775  0.60969780  1  0  -0.058813  0  3.659697  0  0  -0.097719  0  3.910831  0  0  -0.09684  0  3.930358  0  0  0.003108  -0.098265  0  3.897727  0
C  C73  1  0.61724747  0.28332421  0.89018843  1  0  -0.059076  0  3.660238  0  0  -0.098554  0  3.911312  0  0  -0.097703  0  3.930921  0  0  0.002831  -0.099103  0  3.898264  0
C  C74  1  0.20930558  0.78327111  0.39030029  1  0  -0.058825  0  3.659777  0  0  -0.097794  0  3.910917  0  0  -0.096915  0  3.930444  0  0  0.003085  -0.098341  0  3.897813  0
C  C75  1  0.38275281  0.71667465  0.10981054  1  0  -0.059112  0  3.66034  0  0  -0.0986  0  3.911425  0  0  -0.097749  0  3.931034  0  0  0.00281  -0.09915  0  3.898377  0
C  C76  1  0.64412214  0.10473640  0.58137838  1  0  0.157616  0  3.623351  0  0  0.095282  0  3.886231  0  0  0.108579  0  3.898572  0  0  0.141388  0.086751  0  3.87765  0
C  C77  1  0.33032001  0.39509070  0.91854809  1  0  0.155912  0  3.621457  0  0  0.09316  0  3.884359  0  0  0.10656  0  3.896822  0  0  0.140682  0.084579  0  3.875845  0
C  C78  1  0.35587142  0.89526335  0.41862182  1  0  0.157597  0  3.62339  0  0  0.095274  0  3.886256  0  0  0.108573  0  3.898598  0  0  0.141317  0.086742  0  3.877672  0
C  C79  1  0.66967922  0.60490638  0.08145284  1  0  0.15586  0  3.621339  0  0  0.093106  0  3.884251  0  0  0.10651  0  3.896715  0  0  0.140627  0.084524  0  3.875737  0
C  C80  1  0.97509521  0.00726811  0.55104148  1  0  -0.022182  0  3.602315  0  0  -0.086006  0  3.860478  0  0  -0.082582  0  3.871353  0  0  -0.047122  -0.088153  0  3.853129  0
C  C81  1  0.53325485  0.49277207  0.94893519  1  0  -0.020703  0  3.597719  0  0  -0.084838  0  3.856445  0  0  -0.08137  0  3.867318  0  0  -0.046786  -0.086963  0  3.848902  0
C  C82  1  0.02489984  0.99273433  0.44895840  1  0  -0.022009  0  3.602263  0  0  -0.085915  0  3.860503  0  0  -0.082493  0  3.87138  0  0  -0.047045  -0.088066  0  3.853154  0
C  C83  1  0.46674262  0.50722590  0.05106326  1  0  -0.020775  0  3.597748  0  0  -0.084894  0  3.856409  0  0  -0.081431  0  3.867287  0  0  -0.046808  -0.08702  0  3.848864  0
Br  Br84  1  0.60311332  0.87251519  0.89281409  1  0  -0.050894  0  1.233743  0  0  -0.038701  0  1.46048  0  0  -0.043605  0  1.456066  0  0  0.048095  -0.035225  0  1.463533  0
Br  Br85  1  0.36976072  0.62655433  0.60765175  1  0  -0.050729  0  1.233693  0  0  -0.038407  0  1.460685  0  0  -0.043335  0  1.456307  0  0  0.048252  -0.034872  0  1.463777  0
Br  Br86  1  0.39691191  0.12748101  0.10719027  1  0  -0.050848  0  1.233749  0  0  -0.03865  0  1.460517  0  0  -0.043555  0  1.456105  0  0  0.048126  -0.035178  0  1.46357  0
Br  Br87  1  0.63024122  0.37345169  0.39234953  1  0  -0.050672  0  1.233665  0  0  -0.038361  0  1.460657  0  0  -0.043289  0  1.456278  0  0  0.048268  -0.034828  0  1.463751  0
N  N88  1  0.52207021  0.20922822  0.61146389  1  0  -0.400444  0  3.367903  0  0  -0.319728  0  3.675694  0  0  -0.341131  0  3.688621  0  0  -0.366648  -0.305259  0  3.666695  0
N  N89  1  0.34304097  0.29064017  0.88830842  1  0  -0.401566  0  3.365675  0  0  -0.32046  0  3.673163  0  0  -0.34186  0  3.686025  0  0  -0.366367  -0.305938  0  3.664145  0
N  N90  1  0.47792596  0.79077154  0.38853749  1  0  -0.400498  0  3.367954  0  0  -0.319779  0  3.675721  0  0  -0.341183  0  3.688648  0  0  -0.366628  -0.305308  0  3.666722  0
N  N91  1  0.65695958  0.70935601  0.11169416  1  0  -0.401559  0  3.365579  0  0  -0.320481  0  3.673113  0  0  -0.341881  0  3.685975  0  0  -0.366382  -0.305959  0  3.664094  0
N  N92  1  0.80877590  0.10608129  0.58012157  1  0  -0.05119  0  3.560815  0  0  0.045299  0  3.777409  0  0  0.030763  0  3.803705  0  0  -0.238637  0.054902  0  3.759445  0
N  N93  1  0.49496944  0.39388172  0.91985147  1  0  -0.051255  0  3.558773  0  0  0.045162  0  3.77599  0  0  0.030638  0  3.802256  0  0  -0.239048  0.054775  0  3.758004  0
N  N94  1  0.19121635  0.89391936  0.41987698  1  0  -0.05119  0  3.560739  0  0  0.045342  0  3.77735  0  0  0.030804  0  3.80365  0  0  -0.238594  0.054945  0  3.759386  0
N  N95  1  0.50502932  0.60611713  0.08014650  1  0  -0.051225  0  3.558738  0  0  0.045178  0  3.775965  0  0  0.030654  0  3.802229  0  0  -0.239021  0.054793  0  3.757978  0
O  O96  1  0.15352914  0.39342034  0.69593197  1  0  -0.64865  0  2.116984  0  0  -0.582163  0  2.402223  0  0  -0.608325  0  2.382722  0  0  -0.321714  -0.564038  0  2.415146  0
O  O97  1  0.24298258  0.10641501  0.80374382  1  0  -0.648202  0  2.115665  0  0  -0.58215  0  2.400816  0  0  -0.6083  0  2.381329  0  0  -0.322519  -0.56401  0  2.413674  0
O  O98  1  0.84647524  0.60657941  0.30406624  1  0  -0.648601  0  2.116902  0  0  -0.582097  0  2.402136  0  0  -0.608259  0  2.382634  0  0  -0.321705  -0.563974  0  2.41506  0
O  O99  1  0.75702372  0.89358653  0.19625408  1  0  -0.648169  0  2.115796  0  0  -0.582118  0  2.400942  0  0  -0.608272  0  2.381452  0  0  -0.322503  -0.563977  0  2.413798  0
O  O100  1  0.96371346  0.39238920  0.83181164  1  0  -0.63863  0  2.07974  0  0  -0.567048  0  2.351662  0  0  -0.594392  0  2.334205  0  0  -0.311352  -0.548002  0  2.362986  0
O  O101  1  0.18807199  0.10732985  0.66788805  1  0  -0.638079  0  2.078829  0  0  -0.566605  0  2.350198  0  0  -0.593968  0  2.332882  0  0  -0.311711  -0.547675  0  2.361639  0
O  O102  1  0.03628899  0.60760876  0.16818687  1  0  -0.638673  0  2.079653  0  0  -0.567085  0  2.351567  0  0  -0.594429  0  2.334106  0  0  -0.31138  -0.548039  0  2.36289  0
O  O103  1  0.81192414  0.89267259  0.33211202  1  0  -0.638037  0  2.078802  0  0  -0.566564  0  2.350169  0  0  -0.593932  0  2.332851  0  0  -0.311694  -0.547634  0  2.361611  0
O  O104  1  0.83885030  0.68413770  0.48245999  1  0  -0.643132  0  2.013764  0  0  -0.573019  0  2.276566  0  0  -0.601907  0  2.26114  0  0  -0.331594  -0.552684  0  2.286264  0
O  O105  1  0.00499406  0.81612904  0.01757779  1  0  -0.644012  0  2.012051  0  0  -0.573869  0  2.274671  0  0  -0.602835  0  2.259343  0  0  -0.331995  -0.553531  0  2.284445  0
O  O106  1  0.16114563  0.31586475  0.51754154  1  0  -0.643145  0  2.013756  0  0  -0.573046  0  2.276544  0  0  -0.601933  0  2.261119  0  0  -0.331639  -0.552716  0  2.286249  0
O  O107  1  0.99500143  0.18387340  0.98242292  1  0  -0.64401  0  2.011982  0  0  -0.573852  0  2.27458  0  0  -0.602817  0  2.259251  0  0  -0.331988  -0.553517  0  2.284356  0
O  O108  1  0.64188333  0.86096218  0.53710536  1  0  -0.615095  0  1.956441  0  0  -0.565334  0  2.189277  0  0  -0.589666  0  2.180563  0  0  -0.316898  -0.548367  0  2.194701  0
O  O109  1  0.04008172  0.63905018  0.96313226  1  0  -0.615551  0  1.956718  0  0  -0.565743  0  2.189477  0  0  -0.589946  0  2.180566  0  0  -0.316798  -0.548734  0  2.194921  0
O  O110  1  0.35811414  0.13903938  0.46290012  1  0  -0.615021  0  1.956489  0  0  -0.565281  0  2.189332  0  0  -0.589614  0  2.18062  0  0  -0.316901  -0.548313  0  2.194754  0
O  O111  1  0.95991916  0.36095225  0.03686557  1  0  -0.615623  0  1.956688  0  0  -0.565791  0  2.18944  0  0  -0.589998  0  2.180538  0  0  -0.316827  -0.548769  0  2.194858  0
