# generated using pymatgen
data_NdH15(C3O2)6
_symmetry_space_group_name_H-M   'P 1'
_cell_length_a   8.08160694
_cell_length_b   10.00117074
_cell_length_c   12.73567351
_cell_angle_alpha   92.63955119
_cell_angle_beta   95.71484865
_cell_angle_gamma   92.97986739
_symmetry_Int_Tables_number   1
_chemical_formula_structural   NdH15(C3O2)6
_chemical_formula_sum   'Nd2 H30 C36 O24'
_cell_volume   1021.50624026
_cell_formula_units_Z   2
loop_
 _symmetry_equiv_pos_site_id
 _symmetry_equiv_pos_as_xyz
  1  'x, y, z'
loop_
 _atom_site_type_symbol
 _atom_site_label
 _atom_site_symmetry_multiplicity
 _atom_site_fract_x
 _atom_site_fract_y
 _atom_site_fract_z
 _atom_site_occupancy
 _atom_site_hle17_bader_spin_density
 _atom_site_hle17_ddec_charge
 _atom_site_hle17_ddec_spin_density
 _atom_site_hle17_ddec_sum_bond_order
 _atom_site_hle17_magmom
 _atom_site_hse06_10hf_bader_spin_density
 _atom_site_hse06_10hf_ddec_charge
 _atom_site_hse06_10hf_ddec_spin_density
 _atom_site_hse06_10hf_ddec_sum_bond_order
 _atom_site_hse06_10hf_magmom
 _atom_site_hse06_bader_spin_density
 _atom_site_hse06_ddec_charge
 _atom_site_hse06_ddec_spin_density
 _atom_site_hse06_ddec_sum_bond_order
 _atom_site_hse06_magmom
 _atom_site_pbe_bader_spin_density
 _atom_site_pbe_cm5_charge
 _atom_site_pbe_ddec_charge
 _atom_site_pbe_ddec_spin_density
 _atom_site_pbe_ddec_sum_bond_order
 _atom_site_pbe_magmom
Nd  Nd0  1  0.41600952  0.60825083  0.67485438  1  0  2.281815  0  1.618007  0  0  2.127358  0  2.078942  0  0  2.220675  0  1.93772  0  0  1.476039  2.092451  0  2.118279  0
Nd  Nd1  1  0.58399074  0.39175133  0.32514393  1  0  2.281817  0  1.617979  0  0  2.127348  0  2.078933  0  0  2.220683  0  1.937679  0  0  1.476084  2.092439  0  2.118273  0
H  H2  1  0.48374526  0.08896354  0.72885526  1  0  0.120732  0  0.982489  0  0  0.126957  0  1.051009  0  0  0.130962  0  1.047588  0  0  0.112585  0.124254  0  1.05328  0
H  H3  1  0.51625421  0.91104467  0.27114631  1  0  0.120809  0  0.982386  0  0  0.12702  0  1.050934  0  0  0.131013  0  1.047549  0  0  0.112606  0.124333  0  1.053165  0
H  H4  1  0.27447856  0.33436759  0.96338936  1  0  0.121076  0  0.93942  0  0  0.132424  0  0.997637  0  0  0.137161  0  0.99289  0  0  0.113031  0.129213  0  1.000418  0
H  H5  1  0.72551414  0.66563267  0.03661628  1  0  0.121016  0  0.939408  0  0  0.132362  0  0.997651  0  0  0.137099  0  0.992903  0  0  0.112949  0.12915  0  1.000436  0
H  H6  1  0.27166308  0.90252406  0.98322286  1  0  0.124325  0  0.943587  0  0  0.133897  0  1.004681  0  0  0.137973  0  1.001561  0  0  0.113243  0.130952  0  1.006738  0
H  H7  1  0.72834840  0.09747814  0.01678005  1  0  0.124312  0  0.943597  0  0  0.133892  0  1.004687  0  0  0.137992  0  1.001535  0  0  0.113249  0.130943  0  1.006749  0
H  H8  1  0.26626444  0.97470528  0.16279823  1  0  0.073951  0  0.936227  0  0  0.084457  0  1.00442  0  0  0.084701  0  1.004226  0  0  0.107607  0.084346  0  1.004491  0
H  H9  1  0.73374053  0.02529293  0.83720496  1  0  0.073871  0  0.936237  0  0  0.084454  0  1.004404  0  0  0.084697  0  1.00421  0  0  0.107615  0.08434  0  1.004472  0
H  H10  1  0.07276346  0.95218500  0.08005811  1  0  0.061763  0  0.930286  0  0  0.073188  0  0.996612  0  0  0.073517  0  0.995998  0  0  0.104916  0.072841  0  0.997166  0
H  H11  1  0.92724108  0.04780719  0.91994488  1  0  0.06168  0  0.930329  0  0  0.07318  0  0.996629  0  0  0.073506  0  0.996018  0  0  0.104905  0.072828  0  0.997182  0
H  H12  1  0.13754611  0.12773435  0.28613031  1  0  0.077323  0  0.922016  0  0  0.090902  0  0.983638  0  0  0.091132  0  0.983489  0  0  0.110933  0.090791  0  0.983701  0
H  H13  1  0.86245615  0.87226084  0.71387184  1  0  0.077278  0  0.921994  0  0  0.090862  0  0.983633  0  0  0.091095  0  0.983483  0  0  0.110943  0.090762  0  0.983707  0
H  H14  1  0.94838153  0.12013508  0.19839543  1  0  0.066329  0  0.942728  0  0  0.076169  0  1.012011  0  0  0.076663  0  1.011436  0  0  0.10294  0.075717  0  1.012498  0
H  H15  1  0.05161688  0.87985813  0.80160878  1  0  0.066395  0  0.942574  0  0  0.076192  0  1.011901  0  0  0.076688  0  1.011329  0  0  0.102985  0.075754  0  1.012399  0
H  H16  1  0.91640738  0.72392209  0.34512712  1  0  0.121576  0  0.927775  0  0  0.130691  0  0.988129  0  0  0.135556  0  0.983876  0  0  0.113707  0.12697  0  0.991528  0
H  H17  1  0.08359392  0.27607709  0.65487352  1  0  0.121572  0  0.927756  0  0  0.130696  0  0.988095  0  0  0.135561  0  0.983841  0  0  0.113709  0.126978  0  0.991493  0
H  H18  1  0.64082413  0.90417230  0.58277524  1  0  0.126495  0  0.96451  0  0  0.130957  0  1.037119  0  0  0.135315  0  1.033449  0  0  0.114021  0.127798  0  1.03999  0
H  H19  1  0.35915744  0.09582981  0.41721642  1  0  0.126549  0  0.964343  0  0  0.130958  0  1.037  0  0  0.135332  0  1.033283  0  0  0.114074  0.127801  0  1.039865  0
H  H20  1  0.60641630  0.24197888  0.65392295  1  0  0.420251  0  0.856673  0  0  0.388309  0  0.934766  0  0  0.401974  0  0.919445  0  0  0.310716  0.378818  0  0.945037  0
H  H21  1  0.39358029  0.75802427  0.34607359  1  0  0.420202  0  0.856629  0  0  0.388241  0  0.934763  0  0  0.401905  0  0.919441  0  0  0.310676  0.37875  0  0.945033  0
H  H22  1  0.88872232  0.15345613  0.37174108  1  0  0.121306  0  0.972671  0  0  0.125796  0  1.045339  0  0  0.129418  0  1.043275  0  0  0.113813  0.123006  0  1.047245  0
H  H23  1  0.11126646  0.84654202  0.62825562  1  0  0.121373  0  0.972627  0  0  0.125858  0  1.045276  0  0  0.129486  0  1.043204  0  0  0.113794  0.123063  0  1.047205  0
H  H24  1  0.06704290  0.59896313  0.75334661  1  0  0.4492  0  0.791986  0  0  0.434307  0  0.841139  0  0  0.44267  0  0.829977  0  0  0.341441  0.428282  0  0.848148  0
H  H25  1  0.93295357  0.40103807  0.24665458  1  0  0.449214  0  0.791992  0  0  0.434319  0  0.841153  0  0  0.442681  0  0.829971  0  0  0.341451  0.42829  0  0.848169  0
H  H26  1  0.05224236  0.53791335  0.63684258  1  0  0.451197  0  0.802394  0  0  0.430701  0  0.857354  0  0  0.439833  0  0.844135  0  0  0.330707  0.42395  0  0.867341  0
H  H27  1  0.94776068  0.46209283  0.36315758  1  0  0.451164  0  0.802421  0  0  0.430671  0  0.857393  0  0  0.439801  0  0.844176  0  0  0.330699  0.42392  0  0.867379  0
H  H28  1  0.71273726  0.70383346  0.84438684  1  0  0.425348  0  0.87143  0  0  0.393191  0  0.936753  0  0  0.403535  0  0.921728  0  0  0.30553  0.385834  0  0.947534  0
H  H29  1  0.28726820  0.29617173  0.15561423  1  0  0.425361  0  0.871415  0  0  0.393219  0  0.936704  0  0  0.403559  0  0.921686  0  0  0.305544  0.385866  0  0.947477  0
H  H30  1  0.61356098  0.57572000  0.87495172  1  0  0.426327  0  0.831577  0  0  0.407028  0  0.890215  0  0  0.414736  0  0.881854  0  0  0.321044  0.401359  0  0.896722  0
H  H31  1  0.38644416  0.42428111  0.12504292  1  0  0.426408  0  0.831408  0  0  0.407109  0  0.890062  0  0  0.414819  0  0.88173  0  0  0.32108  0.40144  0  0.896568  0
C  C32  1  0.40586848  0.85295344  0.80079281  1  0  0.619164  0  3.972632  0  0  0.574221  0  4.264667  0  0  0.606691  0  4.26339  0  0  0.183694  0.551486  0  4.268521  0
C  C33  1  0.59413436  0.14704976  0.19920883  1  0  0.619312  0  3.972694  0  0  0.574381  0  4.264718  0  0  0.606851  0  4.263442  0  0  0.183743  0.551636  0  4.268582  0
C  C34  1  0.38042593  0.98641544  0.85235962  1  0  -0.039141  0  3.775206  0  0  -0.012607  0  4.008946  0  0  -0.019956  0  4.031042  0  0  -0.017369  -0.008139  0  3.994716  0
C  C35  1  0.61958291  0.01358475  0.14764308  1  0  -0.039144  0  3.775152  0  0  -0.012621  0  4.008896  0  0  -0.019974  0  4.031006  0  0  -0.017406  -0.008138  0  3.994651  0
C  C36  1  0.42683575  0.10119796  0.80207004  1  0  -0.092447  0  3.703655  0  0  -0.133711  0  3.955585  0  0  -0.131494  0  3.973491  0  0  -0.085997  -0.136372  0  3.94508  0
C  C37  1  0.57317076  0.89880427  0.19793493  1  0  -0.09268  0  3.703798  0  0  -0.13391  0  3.95571  0  0  -0.13168  0  3.973582  0  0  -0.086096  -0.136583  0  3.945218  0
C  C38  1  0.38993835  0.22690824  0.84293339  1  0  -0.037999  0  3.761419  0  0  -0.012482  0  3.997274  0  0  -0.019866  0  4.019037  0  0  -0.0151  -0.007815  0  3.982732  0
C  C39  1  0.61006831  0.77309599  0.15707165  1  0  -0.038012  0  3.761617  0  0  -0.012523  0  3.997533  0  0  -0.019905  0  4.019296  0  0  -0.015101  -0.007856  0  3.982994  0
C  C40  1  0.42429930  0.35224331  0.78720238  1  0  0.650512  0  3.906431  0  0  0.604405  0  4.196199  0  0  0.637248  0  4.194055  0  0  0.204754  0.581632  0  4.199876  0
C  C41  1  0.57570850  0.64775988  0.21279877  1  0  0.650525  0  3.906425  0  0  0.604396  0  4.196238  0  0  0.637237  0  4.194098  0  0  0.204731  0.581621  0  4.199918  0
C  C42  1  0.30944463  0.23643184  0.93496911  1  0  -0.152688  0  3.669069  0  0  -0.191695  0  3.923722  0  0  -0.190899  0  3.938025  0  0  -0.086294  -0.190089  0  3.912097  0
C  C43  1  0.69056065  0.76357040  0.06503657  1  0  -0.152597  0  3.669089  0  0  -0.191611  0  3.923756  0  0  -0.190819  0  3.938064  0  0  -0.086196  -0.189999  0  3.912118  0
C  C44  1  0.26991199  0.12120567  0.98763776  1  0  0.261038  0  3.802033  0  0  0.251872  0  4.072068  0  0  0.259983  0  4.088822  0  0  0.081914  0.245489  0  4.060305  0
C  C45  1  0.73009673  0.87879256  0.01236801  1  0  0.26095  0  3.802046  0  0  0.251865  0  4.072034  0  0  0.259974  0  4.088795  0  0  0.08185  0.245483  0  4.060267  0
C  C46  1  0.30329981  0.99493125  0.94598862  1  0  -0.180093  0  3.702629  0  0  -0.216512  0  3.959922  0  0  -0.217615  0  3.978202  0  0  -0.09044  -0.214001  0  3.946474  0
C  C47  1  0.69671029  0.00506895  0.05401494  1  0  -0.180002  0  3.702639  0  0  -0.216442  0  3.959912  0  0  -0.217559  0  3.978181  0  0  -0.090385  -0.213931  0  3.946462  0
C  C48  1  0.15266821  0.02322415  0.13397797  1  0  0.074445  0  3.594663  0  0  0.009828  0  3.869281  0  0  0.0182  0  3.872472  0  0  -0.065574  0.004136  0  3.866984  0
C  C49  1  0.84733551  0.97677403  0.86602279  1  0  0.07467  0  3.594303  0  0  0.009866  0  3.869161  0  0  0.018242  0  3.872352  0  0  -0.06557  0.004198  0  3.866865  0
C  C50  1  0.05791194  0.06512948  0.22574599  1  0  0.061901  0  3.596802  0  0  0.000483  0  3.866409  0  0  0.008306  0  3.870409  0  0  -0.066578  -0.004805  0  3.863446  0
C  C51  1  0.94209163  0.93486669  0.77425469  1  0  0.061884  0  3.596517  0  0  0.000513  0  3.866186  0  0  0.008329  0  3.870188  0  0  -0.066651  -0.004842  0  3.863312  0
C  C52  1  0.91482458  0.93911410  0.34922084  1  0  0.26951  0  3.836212  0  0  0.264371  0  4.098498  0  0  0.273217  0  4.116124  0  0  0.086735  0.257732  0  4.086351  0
C  C53  1  0.08516785  0.06088305  0.65077606  1  0  0.2696  0  3.836224  0  0  0.264427  0  4.098521  0  0  0.273257  0  4.116171  0  0  0.086796  0.257791  0  4.086368  0
C  C54  1  0.87319254  0.81250205  0.38457937  1  0  -0.147125  0  3.677417  0  0  -0.187354  0  3.937638  0  0  -0.188335  0  3.953811  0  0  -0.083766  -0.185273  0  3.925664  0
C  C55  1  0.12680247  0.18749612  0.61542007  1  0  -0.147243  0  3.67738  0  0  -0.187446  0  3.937622  0  0  -0.188433  0  3.953794  0  0  -0.083796  -0.185348  0  3.925668  0
C  C56  1  0.77456677  0.79905601  0.46780082  1  0  -0.056382  0  3.738813  0  0  -0.031145  0  3.976845  0  0  -0.03828  0  3.998141  0  0  -0.01456  -0.026483  0  3.961963  0
C  C57  1  0.22542063  0.20094016  0.53219731  1  0  -0.05626  0  3.738596  0  0  -0.031086  0  3.976705  0  0  -0.03819  0  3.997959  0  0  -0.014627  -0.026482  0  3.961903  0
C  C58  1  0.72373903  0.65987160  0.49746160  1  0  0.731394  0  3.858106  0  0  0.683172  0  4.151144  0  0  0.719069  0  4.141998  0  0  0.239391  0.658421  0  4.159525  0
C  C59  1  0.27625596  0.34012655  0.50253548  1  0  0.731562  0  3.85764  0  0  0.683303  0  4.150797  0  0  0.719188  0  4.141656  0  0  0.239481  0.658564  0  4.159186  0
C  C60  1  0.71809866  0.91373753  0.51783438  1  0  -0.089968  0  3.662841  0  0  -0.134689  0  3.924134  0  0  -0.132727  0  3.942074  0  0  -0.083401  -0.136444  0  3.912896  0
C  C61  1  0.28189260  0.08626062  0.48216247  1  0  -0.090087  0  3.662571  0  0  -0.134672  0  3.923942  0  0  -0.132715  0  3.941875  0  0  -0.083442  -0.136412  0  3.912717  0
C  C62  1  0.75958063  0.03991749  0.48132332  1  0  -0.05451  0  3.773381  0  0  -0.029954  0  4.010463  0  0  -0.037999  0  4.033728  0  0  -0.012622  -0.024899  0  3.994968  0
C  C63  1  0.24040932  0.96007967  0.51867421  1  0  -0.054531  0  3.773379  0  0  -0.030134  0  4.010677  0  0  -0.038171  0  4.033925  0  0  -0.012652  -0.025077  0  3.995176  0
C  C64  1  0.70072335  0.16541327  0.52844565  1  0  0.701737  0  3.767978  0  0  0.652253  0  4.059724  0  0  0.687169  0  4.050088  0  0  0.253776  0.628517  0  4.066638  0
C  C65  1  0.29927226  0.83459385  0.47154702  1  0  0.701887  0  3.767424  0  0  0.652418  0  4.059229  0  0  0.687329  0  4.049596  0  0  0.253854  0.628693  0  4.066126  0
C  C66  1  0.85764300  0.05357530  0.39709765  1  0  -0.184875  0  3.703977  0  0  -0.21923  0  3.955619  0  0  -0.222021  0  3.976761  0  0  -0.08908  -0.216171  0  3.940887  0
C  C67  1  0.14235067  0.94642184  0.60289854  1  0  -0.184954  0  3.703925  0  0  -0.219224  0  3.955596  0  0  -0.222015  0  3.976731  0  0  -0.089053  -0.216167  0  3.940864  0
O  O68  1  0.33180567  0.74760810  0.83073574  1  0  -0.690871  0  1.943006  0  0  -0.643782  0  2.173327  0  0  -0.671139  0  2.163065  0  0  -0.384018  -0.627875  0  2.181219  0
O  O69  1  0.66820580  0.25239409  0.16926639  1  0  -0.690945  0  1.942987  0  0  -0.643859  0  2.173323  0  0  -0.67122  0  2.16306  0  0  -0.384033  -0.62795  0  2.181225  0
O  O70  1  0.49762650  0.84794707  0.72447631  1  0  -0.701149  0  1.996758  0  0  -0.653713  0  2.245737  0  0  -0.68337  0  2.238022  0  0  -0.387837  -0.635754  0  2.250084  0
O  O71  1  0.50237258  0.15205609  0.27552116  1  0  -0.70119  0  1.996898  0  0  -0.653764  0  2.245906  0  0  -0.683421  0  2.238176  0  0  -0.387824  -0.635805  0  2.250258  0
O  O72  1  0.51509730  0.35491703  0.71005960  1  0  -0.681895  0  1.998894  0  0  -0.625666  0  2.225094  0  0  -0.655444  0  2.215  0  0  -0.330062  -0.607343  0  2.231204  0
O  O73  1  0.48490868  0.64507812  0.28993963  1  0  -0.681938  0  1.998736  0  0  -0.625684  0  2.224945  0  0  -0.655464  0  2.214852  0  0  -0.330092  -0.607358  0  2.231055  0
O  O74  1  0.35782972  0.45829614  0.81824767  1  0  -0.712686  0  1.974179  0  0  -0.663753  0  2.206073  0  0  -0.691941  0  2.193934  0  0  -0.391756  -0.647611  0  2.214665  0
O  O75  1  0.64217200  0.54170903  0.18175082  1  0  -0.712614  0  1.974243  0  0  -0.663661  0  2.206134  0  0  -0.691851  0  2.193999  0  0  -0.391703  -0.647517  0  2.214726  0
O  O76  1  0.19525626  0.14127043  0.07957671  1  0  -0.310055  0  2.33367  0  0  -0.227893  0  2.558956  0  0  -0.247189  0  2.560797  0  0  -0.177857  -0.214158  0  2.557303  0
O  O77  1  0.80474484  0.85872578  0.92042696  1  0  -0.309999  0  2.333409  0  0  -0.2279  0  2.558825  0  0  -0.2472  0  2.560664  0  0  -0.177794  -0.214158  0  2.557161  0
O  O78  1  0.00866180  0.93951480  0.26626688  1  0  -0.284703  0  2.340869  0  0  -0.213229  0  2.57562  0  0  -0.232795  0  2.580895  0  0  -0.178475  -0.199403  0  2.571645  0
O  O79  1  0.99134038  0.06047937  0.73373366  1  0  -0.284711  0  2.340926  0  0  -0.213212  0  2.57566  0  0  -0.23277  0  2.580941  0  0  -0.178457  -0.199373  0  2.571704  0
O  O80  1  0.75881646  0.56147179  0.43790166  1  0  -0.76307  0  2.033455  0  0  -0.71047  0  2.282805  0  0  -0.74097  0  2.267341  0  0  -0.397747  -0.693329  0  2.294556  0
O  O81  1  0.24117973  0.43852540  0.56209939  1  0  -0.763161  0  2.033199  0  0  -0.710544  0  2.282581  0  0  -0.741042  0  2.267121  0  0  -0.397738  -0.693398  0  2.29433  0
O  O82  1  0.64611281  0.64612908  0.57850833  1  0  -0.748863  0  2.037041  0  0  -0.698963  0  2.302616  0  0  -0.730457  0  2.284605  0  0  -0.415849  -0.681977  0  2.31396  0
O  O83  1  0.35387742  0.35387208  0.42148855  1  0  -0.748945  0  2.036962  0  0  -0.699022  0  2.302546  0  0  -0.730521  0  2.284538  0  0  -0.41588  -0.68203  0  2.313879  0
O  O84  1  0.69490460  0.27094628  0.48031577  1  0  -0.67122  0  2.034858  0  0  -0.624104  0  2.282248  0  0  -0.651845  0  2.268244  0  0  -0.35465  -0.609837  0  2.292551  0
O  O85  1  0.30509376  0.72904685  0.51968137  1  0  -0.671397  0  2.034428  0  0  -0.624272  0  2.281811  0  0  -0.652016  0  2.267816  0  0  -0.354737  -0.610017  0  2.292132  0
O  O86  1  0.65783223  0.15701460  0.62513883  1  0  -0.532133  0  2.125213  0  0  -0.475422  0  2.344092  0  0  -0.497944  0  2.328376  0  0  -0.30733  -0.459388  0  2.353674  0
O  O87  1  0.34216027  0.84298355  0.37485810  1  0  -0.532055  0  2.125101  0  0  -0.475311  0  2.343992  0  0  -0.497831  0  2.32828  0  0  -0.307259  -0.459294  0  2.353591  0
O  O88  1  0.09448222  0.61626365  0.68230176  1  0  -0.845824  0  1.821415  0  0  -0.803449  0  2.00397  0  0  -0.824865  0  1.972745  0  0  -0.592403  -0.7913  0  2.023007  0
O  O89  1  0.90551703  0.38374156  0.31769971  1  0  -0.845793  0  1.821424  0  0  -0.80342  0  2.003999  0  0  -0.824838  0  1.972753  0  0  -0.592404  -0.791265  0  2.023038  0
O  O90  1  0.66733601  0.61402901  0.81707703  1  0  -0.861045  0  1.839481  0  0  -0.817123  0  2.012376  0  0  -0.838571  0  1.982807  0  0  -0.613827  -0.805536  0  2.0314  0
O  O91  1  0.33266950  0.38597714  0.18292014  1  0  -0.861127  0  1.83939  0  0  -0.81722  0  2.012289  0  0  -0.838669  0  1.982755  0  0  -0.613864  -0.805635  0  2.031309  0
