# generated using pymatgen
data_ZnH12C15N3O5
_symmetry_space_group_name_H-M   'P 1'
_cell_length_a   9.49952681
_cell_length_b   9.43562096
_cell_length_c   9.67645333
_cell_angle_alpha   90.87650358
_cell_angle_beta   100.44950783
_cell_angle_gamma   112.60339296
_symmetry_Int_Tables_number   1
_chemical_formula_structural   ZnH12C15N3O5
_chemical_formula_sum   'Zn2 H24 C30 N6 O10'
_cell_volume   783.97700311
_cell_formula_units_Z   2
loop_
 _symmetry_equiv_pos_site_id
 _symmetry_equiv_pos_as_xyz
  1  'x, y, z'
loop_
 _atom_site_type_symbol
 _atom_site_label
 _atom_site_symmetry_multiplicity
 _atom_site_fract_x
 _atom_site_fract_y
 _atom_site_fract_z
 _atom_site_occupancy
 _atom_site_hle17_bader_spin_density
 _atom_site_hle17_ddec_charge
 _atom_site_hle17_ddec_spin_density
 _atom_site_hle17_ddec_sum_bond_order
 _atom_site_hle17_magmom
 _atom_site_hse06_10hf_bader_spin_density
 _atom_site_hse06_10hf_ddec_charge
 _atom_site_hse06_10hf_ddec_spin_density
 _atom_site_hse06_10hf_ddec_sum_bond_order
 _atom_site_hse06_10hf_magmom
 _atom_site_hse06_bader_spin_density
 _atom_site_hse06_ddec_charge
 _atom_site_hse06_ddec_spin_density
 _atom_site_hse06_ddec_sum_bond_order
 _atom_site_hse06_magmom
 _atom_site_pbe_bader_spin_density
 _atom_site_pbe_cm5_charge
 _atom_site_pbe_ddec_charge
 _atom_site_pbe_ddec_spin_density
 _atom_site_pbe_ddec_sum_bond_order
 _atom_site_pbe_magmom
Zn  Zn0  1  0.84606819  0.99965798  0.06178549  1  0  1.100288  0  1.800176  0  0  0.924265  0  2.262891  0  0  0.973712  0  2.203742  0  0  0.688944  0.890132  0  2.302714  0
Zn  Zn1  1  0.15393361  0.00034362  0.93821283  1  0  1.100372  0  1.800065  0  0  0.924338  0  2.262796  0  0  0.973775  0  2.203649  0  0  0.688994  0.890207  0  2.302621  0
H  H2  1  0.35573135  0.69385628  0.85644362  1  0  0.118882  0  0.915104  0  0  0.133353  0  0.972572  0  0  0.136049  0  0.970084  0  0  0.124324  0.131315  0  0.974629  0
H  H3  1  0.64426753  0.30614075  0.14355930  1  0  0.118885  0  0.915058  0  0  0.133352  0  0.972533  0  0  0.136045  0  0.97005  0  0  0.124367  0.131314  0  0.974588  0
H  H4  1  0.42075456  0.55384086  0.93193732  1  0  0.102613  0  0.932739  0  0  0.116268  0  0.998548  0  0  0.117791  0  0.997541  0  0  0.118765  0.115341  0  0.998984  0
H  H5  1  0.57924326  0.44615619  0.06806644  1  0  0.102639  0  0.932692  0  0  0.11628  0  0.998524  0  0  0.117801  0  0.997518  0  0  0.118768  0.115348  0  0.998967  0
H  H6  1  0.34005396  0.43767182  0.11945444  1  0  0.09874  0  0.939212  0  0  0.107398  0  1.004521  0  0  0.110208  0  1.001747  0  0  0.1269  0.105663  0  1.006332  0
H  H7  1  0.65994726  0.56233101  0.88055411  1  0  0.098772  0  0.939182  0  0  0.107392  0  1.00452  0  0  0.110193  0  1.001759  0  0  0.126906  0.105657  0  1.006331  0
H  H8  1  0.15330028  0.37583681  0.28223759  1  0  0.106975  0  1.000948  0  0  0.1107  0  1.070275  0  0  0.113151  0  1.072727  0  0  0.103117  0.109139  0  1.068339  0
H  H9  1  0.84669666  0.62416603  0.71776813  1  0  0.107022  0  1.000987  0  0  0.110781  0  1.070269  0  0  0.11323  0  1.072721  0  0  0.103142  0.109193  0  1.068361  0
H  H10  1  0.98080491  0.52399557  0.27452796  1  0  0.097662  0  0.939118  0  0  0.109119  0  0.99893  0  0  0.112823  0  0.994469  0  0  0.108717  0.106188  0  1.00251  0
H  H11  1  0.01919248  0.47600838  0.72547269  1  0  0.097638  0  0.939134  0  0  0.109123  0  0.99892  0  0  0.112824  0  0.994462  0  0  0.108704  0.106192  0  1.0025  0
H  H12  1  0.16335650  0.04803640  0.28090229  1  0  0.107241  0  0.926574  0  0  0.118943  0  0.984578  0  0  0.12146  0  0.981623  0  0  0.141993  0.117022  0  0.986798  0
H  H13  1  0.83664162  0.95196405  0.71909329  1  0  0.107238  0  0.926629  0  0  0.118939  0  0.984631  0  0  0.121456  0  0.98168  0  0  0.141988  0.117019  0  0.986851  0
H  H14  1  0.78780408  0.16356601  0.33103009  1  0  0.11263  0  0.935706  0  0  0.125862  0  0.987197  0  0  0.128482  0  0.985991  0  0  0.124672  0.12396  0  0.988194  0
H  H15  1  0.21219513  0.83643447  0.66897188  1  0  0.11263  0  0.935731  0  0  0.125848  0  0.987244  0  0  0.128468  0  0.986039  0  0  0.124668  0.123956  0  0.988229  0
H  H16  1  0.02029172  0.26561471  0.58016724  1  0  0.12196  0  0.984434  0  0  0.130348  0  1.047144  0  0  0.13294  0  1.046176  0  0  0.121171  0.128488  0  1.047764  0
H  H17  1  0.97971129  0.73438458  0.41983230  1  0  0.121988  0  0.984453  0  0  0.13037  0  1.047163  0  0  0.132962  0  1.046196  0  0  0.121207  0.128512  0  1.047782  0
H  H18  1  0.32117160  0.10999824  0.53963932  1  0  0.087701  0  0.909758  0  0  0.103553  0  0.966884  0  0  0.104632  0  0.965942  0  0  0.115732  0.103167  0  0.966684  0
H  H19  1  0.67882833  0.88999872  0.46035552  1  0  0.087746  0  0.909751  0  0  0.103546  0  0.966883  0  0  0.104622  0  0.96594  0  0  0.115715  0.103159  0  0.966681  0
H  H20  1  0.26182259  0.20335656  0.66394142  1  0  0.11873  0  0.944193  0  0  0.126402  0  1.013684  0  0  0.128595  0  1.011952  0  0  0.117644  0.124387  0  1.015769  0
H  H21  1  0.73817935  0.79664271  0.33605586  1  0  0.118753  0  0.944233  0  0  0.126424  0  1.013655  0  0  0.128617  0  1.011922  0  0  0.117617  0.124405  0  1.015744  0
H  H22  1  0.48981561  0.25949500  0.38152352  1  0  0.092284  0  0.945275  0  0  0.104826  0  1.001991  0  0  0.108027  0  1.000362  0  0  0.100157  0.102589  0  1.002759  0
H  H23  1  0.51018860  0.74050195  0.61847415  1  0  0.092252  0  0.945409  0  0  0.104824  0  1.002091  0  0  0.108025  0  1.000462  0  0  0.100142  0.102586  0  1.00286  0
H  H24  1  0.32648409  0.48351625  0.66853596  1  0  0.098758  0  0.963423  0  0  0.109596  0  1.026727  0  0  0.112284  0  1.025592  0  0  0.101302  0.107154  0  1.028374  0
H  H25  1  0.67352058  0.51648186  0.33146180  1  0  0.098767  0  0.963301  0  0  0.109639  0  1.026582  0  0  0.11233  0  1.025444  0  0  0.101316  0.107199  0  1.028233  0
C  C26  1  0.55707750  0.79058350  0.02439477  1  0  0.669542  0  3.886646  0  0  0.62578  0  4.18753  0  0  0.658085  0  4.181147  0  0  0.198701  0.603634  0  4.19122  0
C  C27  1  0.44292445  0.20941581  0.97560665  1  0  0.669589  0  3.886558  0  0  0.625803  0  4.187471  0  0  0.658105  0  4.18109  0  0  0.198696  0.603657  0  4.191159  0
C  C28  1  0.40255405  0.65868189  0.95568945  1  0  -0.147322  0  3.621437  0  0  -0.216043  0  3.882013  0  0  -0.214697  0  3.886647  0  0  -0.055501  -0.216785  0  3.878362  0
C  C29  1  0.59744422  0.34131630  0.04431337  1  0  -0.147366  0  3.621404  0  0  -0.216087  0  3.881996  0  0  -0.214731  0  3.886611  0  0  -0.055581  -0.216825  0  3.878347  0
C  C30  1  0.27014599  0.50436611  0.12846926  1  0  0.133051  0  3.626276  0  0  0.086431  0  3.885034  0  0  0.09938  0  3.899009  0  0  0.062797  0.07684  0  3.876308  0
C  C31  1  0.72985569  0.49563787  0.87153835  1  0  0.13302  0  3.626214  0  0  0.086431  0  3.884968  0  0  0.099384  0  3.898948  0  0  0.062788  0.076844  0  3.876235  0
C  C32  1  0.16494806  0.46949875  0.21587676  1  0  -0.15555  0  3.774226  0  0  -0.173144  0  4.046231  0  0  -0.185461  0  4.068509  0  0  -0.105968  -0.164832  0  4.031332  0
C  C33  1  0.83504688  0.53050177  0.78412445  1  0  -0.155593  0  3.774213  0  0  -0.173211  0  4.046184  0  0  -0.185529  0  4.068459  0  0  -0.105991  -0.164879  0  4.031302  0
C  C34  1  0.07138628  0.55382148  0.21227162  1  0  0.024213  0  3.73906  0  0  -0.011304  0  3.996846  0  0  0.001342  0  4.009541  0  0  -0.065276  -0.019747  0  3.988677  0
C  C35  1  0.92861325  0.44618246  0.78772941  1  0  0.024262  0  3.738866  0  0  -0.011277  0  3.996681  0  0  0.001373  0  4.009373  0  0  -0.06525  -0.019718  0  3.988504  0
C  C36  1  0.08628476  0.67421144  0.12779040  1  0  -0.261366  0  3.723891  0  0  -0.240204  0  3.97178  0  0  -0.259983  0  3.994278  0  0  -0.036368  -0.227571  0  3.956419  0
C  C37  1  0.91371324  0.32579136  0.87221035  1  0  -0.261398  0  3.723842  0  0  -0.24021  0  3.971777  0  0  -0.259991  0  3.994276  0  0  -0.036347  -0.227575  0  3.956416  0
C  C38  1  0.20390541  0.71637134  0.04323282  1  0  0.500705  0  3.78275  0  0  0.453523  0  4.054638  0  0  0.482022  0  4.059535  0  0  0.230049  0.43513  0  4.050136  0
C  C39  1  0.79609426  0.28363030  0.95676924  1  0  0.500802  0  3.782785  0  0  0.453527  0  4.054799  0  0  0.482028  0  4.059696  0  0  0.230034  0.435134  0  4.0503  0
C  C40  1  0.97387290  0.75117954  0.12573700  1  0  0.672311  0  3.90819  0  0  0.618068  0  4.207882  0  0  0.653056  0  4.201545  0  0  0.205492  0.594474  0  4.211279  0
C  C41  1  0.02612509  0.24882324  0.87426167  1  0  0.672407  0  3.908019  0  0  0.618157  0  4.207701  0  0  0.653147  0  4.20136  0  0  0.205545  0.594561  0  4.211102  0
C  C42  1  0.09008787  0.09093000  0.32732268  1  0  0.162562  0  3.646397  0  0  0.098961  0  3.917936  0  0  0.113029  0  3.929934  0  0  0.144396  0.08981  0  3.909783  0
C  C43  1  0.90991133  0.90907045  0.67267516  1  0  0.162498  0  3.646483  0  0  0.098935  0  3.918021  0  0  0.113002  0  3.930021  0  0  0.144374  0.089785  0  3.909865  0
C  C44  1  0.90028222  0.15593564  0.35812162  1  0  0.001343  0  3.748791  0  0  -0.032732  0  4.017296  0  0  -0.031158  0  4.037439  0  0  0.001451  -0.033882  0  4.004022  0
C  C45  1  0.09971805  0.84406482  0.64187848  1  0  0.001291  0  3.748826  0  0  -0.03279  0  4.017361  0  0  -0.03122  0  4.037503  0  0  0.001444  -0.033947  0  4.004083  0
C  C46  1  0.01245940  0.20709837  0.48007107  1  0  -0.072754  0  3.669826  0  0  -0.111336  0  3.927569  0  0  -0.110526  0  3.947699  0  0  -1.6e-05  -0.111449  0  3.913137  0
C  C47  1  0.98754254  0.79290093  0.51992828  1  0  -0.072726  0  3.669674  0  0  -0.11128  0  3.927448  0  0  -0.110472  0  3.947579  0  0  -4.8e-05  -0.111389  0  3.913006  0
C  C48  1  0.28143708  0.20261133  0.55592362  1  0  -0.053077  0  3.633331  0  0  -0.118985  0  3.879725  0  0  -0.114782  0  3.889489  0  0  -0.049974  -0.122012  0  3.874206  0
C  C49  1  0.71856438  0.79738679  0.44407254  1  0  -0.053268  0  3.633563  0  0  -0.118979  0  3.879717  0  0  -0.114765  0  3.889468  0  0  -0.049964  -0.122  0  3.87419  0
C  C50  1  0.39772253  0.35606677  0.52937456  1  0  0.075296  0  3.759669  0  0  0.095139  0  3.99742  0  0  0.094405  0  4.022463  0  0  -0.011554  0.095354  0  3.981045  0
C  C51  1  0.60228001  0.64393134  0.47062179  1  0  0.07542  0  3.759578  0  0  0.09519  0  3.997355  0  0  0.094455  0  4.0224  0  0  -0.011542  0.095403  0  3.98098  0
C  C52  1  0.49518722  0.36508143  0.43445844  1  0  -0.117196  0  3.76675  0  0  -0.137052  0  4.013379  0  0  -0.140096  0  4.035947  0  0  -0.092521  -0.134809  0  3.9985  0
C  C53  1  0.50481746  0.63491668  0.56554035  1  0  -0.117253  0  3.76688  0  0  -0.137138  0  4.013528  0  0  -0.140181  0  4.036096  0  0  -0.092557  -0.134893  0  3.998649  0
C  C54  1  0.40303271  0.49190024  0.59468590  1  0  -0.116222  0  3.749052  0  0  -0.136344  0  3.995838  0  0  -0.139503  0  4.018966  0  0  -0.093286  -0.134602  0  3.981223  0
C  C55  1  0.59697043  0.50809672  0.40531055  1  0  -0.116319  0  3.748887  0  0  -0.136485  0  3.995713  0  0  -0.13964  0  4.018833  0  0  -0.093346  -0.134747  0  3.981106  0
N  N56  1  0.28721768  0.62113159  0.04482912  1  0  -0.1101  0  3.482685  0  0  -0.018073  0  3.697985  0  0  -0.037222  0  3.72098  0  0  -0.225203  -0.005601  0  3.682425  0
N  N57  1  0.71278200  0.37887005  0.95517398  1  0  -0.110176  0  3.482681  0  0  -0.018109  0  3.697976  0  0  -0.037256  0  3.720954  0  0  -0.225198  -0.005637  0  3.682415  0
N  N58  1  0.95003117  0.08314070  0.26424272  1  0  -0.383274  0  3.323834  0  0  -0.307872  0  3.626153  0  0  -0.327574  0  3.638916  0  0  -0.357108  -0.294639  0  3.617881  0
N  N59  1  0.04996696  0.91685977  0.73575596  1  0  -0.383145  0  3.323733  0  0  -0.307763  0  3.626082  0  0  -0.327459  0  3.638833  0  0  -0.357065  -0.294528  0  3.617807  0
N  N60  1  0.13103606  0.16391203  0.45872498  1  0  -0.055927  0  3.577769  0  0  0.038029  0  3.796223  0  0  0.023179  0  3.823323  0  0  -0.23988  0.048262  0  3.777175  0
N  N61  1  0.86896527  0.83608840  0.54127221  1  0  -0.055915  0  3.577638  0  0  0.037919  0  3.796122  0  0  0.023066  0  3.823219  0  0  -0.239879  0.048154  0  3.77707  0
O  O62  1  0.65931660  0.82947062  0.94469463  1  0  -0.663659  0  1.973161  0  0  -0.597272  0  2.232723  0  0  -0.626433  0  2.218803  0  0  -0.344786  -0.576779  0  2.241013  0
O  O63  1  0.34068502  0.17052522  0.05530670  1  0  -0.663694  0  1.973152  0  0  -0.597252  0  2.232679  0  0  -0.626415  0  2.218772  0  0  -0.34475  -0.576763  0  2.240983  0
O  O64  1  0.57671421  0.84888119  0.14607799  1  0  -0.596264  0  1.898908  0  0  -0.551911  0  2.114612  0  0  -0.573733  0  2.106318  0  0  -0.319623  -0.536433  0  2.119935  0
O  O65  1  0.42328727  0.15111697  0.85392333  1  0  -0.596289  0  1.898841  0  0  -0.551921  0  2.114534  0  0  -0.573743  0  2.106241  0  0  -0.319645  -0.536445  0  2.119857  0
O  O66  1  0.23825446  0.82522360  0.96516389  1  0  -0.573366  0  2.103387  0  0  -0.513935  0  2.364807  0  0  -0.53973  0  2.355207  0  0  -0.296492  -0.496418  0  2.370816  0
O  O67  1  0.76174473  0.17477687  0.03483498  1  0  -0.573342  0  2.103364  0  0  -0.513895  0  2.36486  0  0  -0.539692  0  2.355263  0  0  -0.296466  -0.496366  0  2.370833  0
O  O68  1  0.99731501  0.87558793  0.06054275  1  0  -0.690926  0  2.1755  0  0  -0.602754  0  2.463276  0  0  -0.633923  0  2.44641  0  0  -0.323389  -0.581233  0  2.473968  0
O  O69  1  0.00269078  0.12441828  0.93945838  1  0  -0.690968  0  2.175466  0  0  -0.602756  0  2.46324  0  0  -0.633929  0  2.446379  0  0  -0.323382  -0.581237  0  2.473932  0
O  O70  1  0.86276480  0.69428301  0.18751051  1  0  -0.606478  0  1.918819  0  0  -0.567574  0  2.156407  0  0  -0.589803  0  2.148176  0  0  -0.319358  -0.55124  0  2.161448  0
O  O71  1  0.13723104  0.30571974  0.81248261  1  0  -0.606542  0  1.918685  0  0  -0.567689  0  2.156353  0  0  -0.589911  0  2.148108  0  0  -0.319428  -0.551352  0  2.161394  0
