# generated using pymatgen
data_ZnH22C31N3O7
_symmetry_space_group_name_H-M   'P 1'
_cell_length_a   7.68024163
_cell_length_b   10.14333460
_cell_length_c   17.68700000
_cell_angle_alpha   102.35528399
_cell_angle_beta   100.48353720
_cell_angle_gamma   102.77092416
_symmetry_Int_Tables_number   1
_chemical_formula_structural   ZnH22C31N3O7
_chemical_formula_sum   'Zn2 H44 C62 N6 O14'
_cell_volume   1274.09214181
_cell_formula_units_Z   2
loop_
 _symmetry_equiv_pos_site_id
 _symmetry_equiv_pos_as_xyz
  1  'x, y, z'
loop_
 _atom_site_type_symbol
 _atom_site_label
 _atom_site_symmetry_multiplicity
 _atom_site_fract_x
 _atom_site_fract_y
 _atom_site_fract_z
 _atom_site_occupancy
 _atom_site_hle17_bader_spin_density
 _atom_site_hle17_ddec_charge
 _atom_site_hle17_ddec_spin_density
 _atom_site_hle17_ddec_sum_bond_order
 _atom_site_hle17_magmom
 _atom_site_hse06_10hf_bader_spin_density
 _atom_site_hse06_10hf_ddec_charge
 _atom_site_hse06_10hf_ddec_spin_density
 _atom_site_hse06_10hf_ddec_sum_bond_order
 _atom_site_hse06_10hf_magmom
 _atom_site_hse06_bader_spin_density
 _atom_site_hse06_ddec_charge
 _atom_site_hse06_ddec_spin_density
 _atom_site_hse06_ddec_sum_bond_order
 _atom_site_hse06_magmom
 _atom_site_pbe_bader_charge
 _atom_site_pbe_bader_spin_density
 _atom_site_pbe_cm5_charge
 _atom_site_pbe_ddec_charge
 _atom_site_pbe_ddec_spin_density
 _atom_site_pbe_ddec_sum_bond_order
 _atom_site_pbe_magmom
Zn  Zn0  1  0.09781000  0.39546770  0.99852247  1  0  1.026194  0  1.878285  0  0  0.854886  0  2.347629  0  0  0.908347  0  2.281191  0  1.286284  0  0.669253  0.817773  0  2.392866  0
Zn  Zn1  1  0.90219058  0.60453293  0.00147612  1  0  1.02614  0  1.878301  0  0  0.854851  0  2.347641  0  0  0.908312  0  2.281204  0  1.286533  0  0.669258  0.817735  0  2.392877  0
H  H2  1  0.24556945  0.96038246  0.05998775  1  0  0.118238  0  0.952439  0  0  0.12844  0  1.011797  0  0  0.132007  0  1.010122  0  0.095031  0  0.113693  0.125875  0  1.013136  0
H  H3  1  0.75443718  0.03962026  0.94001271  1  0  0.118249  0  0.952434  0  0  0.128427  0  1.011824  0  0  0.131994  0  1.01015  0  0.094976  0  0.113671  0.125862  0  1.013162  0
H  H4  1  0.74719176  0.66295163  0.49867745  1  0  0.334089  0  0.960208  0  0  0.292897  0  1.057079  0  0  0.306351  0  1.044306  0  0.618673  0  0.281681  0.283448  0  1.066013  0
H  H5  1  0.25279691  0.33704899  0.50132133  1  0  0.334067  0  0.960255  0  0  0.292837  0  1.057205  0  0  0.30629  0  1.044438  0  0.618533  0  0.281648  0.283391  0  1.066136  0
H  H6  1  0.41550544  0.33979364  0.93259135  1  0  0.097002  0  0.929756  0  0  0.10433  0  0.99417  0  0  0.107237  0  0.991506  0  0.129906  0  0.123856  0.102218  0  0.995936  0
H  H7  1  0.58450437  0.66021432  0.06741113  1  0  0.09698  0  0.929896  0  0  0.104341  0  0.994277  0  0  0.107249  0  0.991612  0  0.129744  0  0.123864  0.102232  0  0.996037  0
H  H8  1  0.40949283  0.56007126  0.24428346  1  0  0.104863  0  0.993097  0  0  0.110935  0  1.064185  0  0  0.114559  0  1.061235  0  0.128666  0  0.103344  0.108329  0  1.066269  0
H  H9  1  0.59049700  0.43992517  0.75571660  1  0  0.104843  0  0.993176  0  0  0.1109  0  1.064277  0  0  0.114521  0  1.061332  0  0.128639  0  0.103331  0.108294  0  1.066361  0
H  H10  1  0.33592050  0.34818380  0.21905908  1  0  0.099535  0  0.937563  0  0  0.113721  0  0.991388  0  0  0.116805  0  0.989626  0  0.066642  0  0.106038  0.111332  0  0.993032  0
H  H11  1  0.66408029  0.65181368  0.78093915  1  0  0.099534  0  0.937567  0  0  0.113718  0  0.991397  0  0  0.116803  0  0.989635  0  0.066543  0  0.106026  0.111328  0  0.99304  0
H  H12  1  0.71778943  0.10316658  0.26496877  1  0  0.093784  0  1.008798  0  0  0.092285  0  1.089527  0  0  0.096489  0  1.08702  0  0.11722  0  0.092463  0.089235  0  1.091351  0
H  H13  1  0.28220702  0.89682985  0.73502955  1  0  0.093787  0  1.008825  0  0  0.09231  0  1.08954  0  0  0.096519  0  1.087029  0  0.117212  0  0.092473  0.08926  0  1.091363  0
H  H14  1  0.60189641  0.16958650  0.93273740  1  0  0.110319  0  0.981909  0  0  0.120325  0  1.042745  0  0  0.122996  0  1.042572  0  0.106738  0  0.110371  0.118339  0  1.043057  0
H  H15  1  0.39811717  0.83042461  0.06726803  1  0  0.110377  0  0.981823  0  0  0.120403  0  1.042626  0  0  0.12308  0  1.042438  0  0.106612  0  0.110386  0.118412  0  1.042939  0
H  H16  1  0.40799618  0.27209155  0.35116803  1  0  0.093214  0  0.916201  0  0  0.106965  0  0.977016  0  0  0.108035  0  0.975607  0  0.106383  0  0.116408  0.105937  0  0.978522  0
H  H17  1  0.59200498  0.72790697  0.64882979  1  0  0.093191  0  0.916157  0  0  0.106933  0  0.976992  0  0  0.108001  0  0.975583  0  0.106306  0  0.116407  0.105906  0  0.978498  0
H  H18  1  0.26481999  0.11983682  0.27861846  1  0  0.064735  0  0.941597  0  0  0.075184  0  1.011198  0  0  0.075823  0  1.010213  0  0.056479  0  0.103559  0.074505  0  1.011995  0
H  H19  1  0.73517911  0.88015961  0.72138064  1  0  0.064737  0  0.941618  0  0  0.075185  0  1.011216  0  0  0.075823  0  1.010229  0  0.056548  0  0.103566  0.074505  0  1.012014  0
H  H20  1  0.88577449  0.19323684  0.17269241  1  0  0.096135  0  0.942688  0  0  0.105729  0  1.004442  0  0  0.109623  0  1.001195  0  0.085653  0  0.100054  0.102887  0  1.006865  0
H  H21  1  0.11422498  0.80676064  0.82730628  1  0  0.096088  0  0.942686  0  0  0.105673  0  1.004452  0  0  0.109569  0  1.001203  0  0.085683  0  0.100035  0.102831  0  1.006875  0
H  H22  1  0.29781692  0.93960048  0.20490592  1  0  0.110477  0  0.967762  0  0  0.118861  0  1.034696  0  0  0.122723  0  1.031714  0  0.080063  0  0.104758  0.116195  0  1.036632  0
H  H23  1  0.70218218  0.06039595  0.79509261  1  0  0.110495  0  0.967763  0  0  0.11889  0  1.03468  0  0  0.12275  0  1.031707  0  0.080099  0  0.104772  0.116226  0  1.036611  0
H  H24  1  0.51547558  0.44740324  0.13192807  1  0  0.105683  0  0.9652  0  0  0.11154  0  1.035485  0  0  0.11524  0  1.032424  0  0.115581  0  0.10158  0.108939  0  1.037334  0
H  H25  1  0.48452973  0.55259948  0.86807285  1  0  0.105718  0  0.965172  0  0  0.111551  0  1.035485  0  0  0.115255  0  1.032412  0  0.115571  0  0.101565  0.10895  0  1.037333  0
H  H26  1  0.07721591  0.14212217  0.05573058  1  0  0.089187  0  0.949453  0  0  0.09718  0  1.012723  0  0  0.099987  0  1.010409  0  0.143102  0  0.120553  0.095101  0  1.014396  0
H  H27  1  0.92278770  0.85787950  0.94426782  1  0  0.089075  0  0.949496  0  0  0.097079  0  1.01275  0  0  0.099884  0  1.010441  0  0.143021  0  0.120514  0.095004  0  1.014422  0
H  H28  1  0.61551405  0.94087216  0.43354524  1  0  0.11519  0  0.946495  0  0  0.124309  0  1.011907  0  0  0.128536  0  1.008006  0  0.093276  0  0.107797  0.12117  0  1.01487  0
H  H29  1  0.38447520  0.05912636  0.56645616  1  0  0.115253  0  0.946453  0  0  0.124366  0  1.011871  0  0  0.128592  0  1.007973  0  0.093272  0  0.107814  0.121228  0  1.014834  0
H  H30  1  0.29816183  0.78942887  0.49447846  1  0  0.107057  0  0.962026  0  0  0.114539  0  1.028178  0  0  0.118157  0  1.026319  0  0.09608  0  0.106238  0.111977  0  1.029482  0
H  H31  1  0.70183404  0.21056965  0.50552403  1  0  0.107085  0  0.961964  0  0  0.114569  0  1.028118  0  0  0.118187  0  1.026259  0  0.096099  0  0.10626  0.112007  0  1.029422  0
H  H32  1  0.05748270  0.11003450  0.41258199  1  0  0.071309  0  0.949912  0  0  0.081136  0  1.012693  0  0  0.083947  0  1.010258  0  0.078503  0  0.10971  0.079989  0  1.012662  0
H  H33  1  0.94252111  0.88996403  0.58741830  1  0  0.071334  0  0.949928  0  0  0.081199  0  1.012652  0  0  0.084013  0  1.010218  0  0.078454  0  0.109733  0.080054  0  1.01262  0
H  H34  1  0.90431284  0.63332869  0.23871670  1  0  0.109126  0  0.953953  0  0  0.11984  0  1.01353  0  0  0.122649  0  1.013411  0  0.078676  0  0.10627  0.117893  0  1.013639  0
H  H35  1  0.09568965  0.36666983  0.76128236  1  0  0.109125  0  0.953993  0  0  0.119849  0  1.013555  0  0  0.122658  0  1.013437  0  0.078774  0  0.106269  0.117902  0  1.013664  0
H  H36  1  0.37261083  0.59502624  0.54683312  1  0  0.085012  0  0.973869  0  0  0.091937  0  1.039374  0  0  0.095422  0  1.035842  0  0.137689  0  0.114792  0.089112  0  1.042496  0
H  H37  1  0.62738901  0.40497228  0.45316799  1  0  0.085064  0  0.973869  0  0  0.09197  0  1.039384  0  0  0.095457  0  1.035851  0  0.137768  0  0.114793  0.08914  0  1.042504  0
H  H38  1  0.87970976  0.47366823  0.30424797  1  0  0.107569  0  0.978826  0  0  0.116319  0  1.042323  0  0  0.118356  0  1.043822  0  0.111815  0  0.10549  0.114894  0  1.041494  0
H  H39  1  0.12029405  0.52633030  0.69575119  1  0  0.107594  0  0.978834  0  0  0.11634  0  1.042326  0  0  0.11838  0  1.043825  0  0.111851  0  0.10551  0.114914  0  1.041497  0
H  H40  1  0.13366290  0.92630497  0.47215517  1  0  0.096825  0  0.966462  0  0  0.108475  0  1.02861  0  0  0.111249  0  1.027647  0  0.083001  0  0.105196  0.1064  0  1.029576  0
H  H41  1  0.86633487  0.07369146  0.52784438  1  0  0.0968  0  0.96649  0  0  0.108439  0  1.028648  0  0  0.111212  0  1.027686  0  0.082707  0  0.105203  0.106366  0  1.029614  0
H  H42  1  0.98399965  0.29474698  0.36171155  1  0  0.075037  0  0.949817  0  0  0.083415  0  1.016218  0  0  0.085571  0  1.014427  0  0.127463  0  0.1151  0.082887  0  1.015391  0
H  H43  1  0.01600681  0.70525155  0.63828781  1  0  0.075035  0  0.949833  0  0  0.083406  0  1.01623  0  0  0.085561  0  1.014441  0  0.127474  0  0.115106  0.082878  0  1.015403  0
H  H44  1  0.83265483  0.82949784  0.18969864  1  0  0.063499  0  0.948022  0  0  0.073522  0  1.01022  0  0  0.075614  0  1.009052  0  0.095889  0  0.106007  0.071986  0  1.011166  0
H  H45  1  0.16735296  0.17050068  0.81030084  1  0  0.06353  0  0.94807  0  0  0.073574  0  1.010228  0  0  0.07567  0  1.009054  0  0.095863  0  0.106031  0.072034  0  1.011187  0
C  C46  1  0.29046068  0.04223491  0.03120873  1  0  -0.140032  0  3.675711  0  0  -0.159936  0  3.924026  0  0  -0.167398  0  3.945134  0  0.013881  0  -0.069372  -0.155254  0  3.909918  0
C  C47  1  0.70954595  0.95776781  0.96879173  1  0  -0.140201  0  3.675952  0  0  -0.160138  0  3.924172  0  0  -0.1676  0  3.945276  0  0.013474  0  -0.069425  -0.155456  0  3.910068  0
C  C48  1  0.71344833  0.32741650  0.14662849  1  0  -0.095691  0  3.793988  0  0  -0.072717  0  4.030591  0  0  -0.082242  0  4.054469  0  -0.021783  0  -0.029511  -0.067089  0  4.01513  0
C  C49  1  0.28655453  0.67258307  0.85337129  1  0  -0.095707  0  3.793882  0  0  -0.072734  0  4.030461  0  0  -0.08226  0  4.054339  0  -0.021763  0  -0.029529  -0.067107  0  4.015  0
C  C50  1  0.44330927  0.04971403  0.99764453  1  0  0.105055  0  3.729666  0  0  0.116736  0  3.958401  0  0  0.120748  0  3.980157  0  0.018109  0  0.022536  0.114169  0  3.943512  0
C  C51  1  0.55670356  0.95029497  0.00235889  1  0  0.104995  0  3.729778  0  0  0.11694  0  3.958245  0  0  0.120953  0  3.980001  0  -0.027824  0  0.022551  0.114372  0  3.943358  0
C  C52  1  0.81937142  0.38575763  0.09270669  1  0  0.658891  0  3.891205  0  0  0.6072  0  4.18191  0  0  0.643101  0  4.174497  0  1.530025  0  0.211975  0.58296  0  4.186353  0
C  C53  1  0.18062917  0.61424299  0.90729360  1  0  0.658786  0  3.891344  0  0  0.607092  0  4.182051  0  0  0.642993  0  4.174642  0  1.530004  0  0.211945  0.582852  0  4.186492  0
C  C54  1  0.38240447  0.25325432  0.95961732  1  0  0.136813  0  3.667889  0  0  0.104356  0  3.921966  0  0  0.111547  0  3.939372  0  0.463356  0  0.054257  0.099686  0  3.910116  0
C  C55  1  0.61760439  0.74675469  0.04038578  1  0  0.13675  0  3.667963  0  0  0.104222  0  3.922119  0  0  0.111412  0  3.939529  0  0.463527  0  0.054163  0.099551  0  3.910269  0
C  C56  1  0.42442157  0.67133655  0.26553479  1  0  -0.090705  0  3.714781  0  0  -0.133128  0  3.966756  0  0  -0.131576  0  3.985693  0  0.029136  0  -0.088713  -0.13383  0  3.953654  0
C  C57  1  0.57557372  0.32866407  0.73446735  1  0  -0.090783  0  3.714795  0  0  -0.133176  0  3.966768  0  0  -0.131629  0  3.985706  0  0.028763  0  -0.088752  -0.133876  0  3.953662  0
C  C58  1  0.45790519  0.31520081  0.20946844  1  0  -0.10939  0  3.740708  0  0  -0.128198  0  3.992513  0  0  -0.13204  0  4.012583  0  -0.078173  0  -0.089314  -0.125357  0  3.978461  0
C  C59  1  0.54209597  0.68479771  0.79053051  1  0  -0.109462  0  3.740759  0  0  -0.128276  0  3.992541  0  0  -0.132121  0  4.012612  0  -0.078213  0  -0.089333  -0.125433  0  3.978487  0
C  C60  1  0.66883705  0.17634224  0.23512664  1  0  -0.131839  0  3.745426  0  0  -0.149481  0  3.99808  0  0  -0.154265  0  4.019051  0  -0.08986  0  -0.098334  -0.14663  0  3.984147  0
C  C61  1  0.33116035  0.82365314  0.76487106  1  0  -0.131887  0  3.745544  0  0  -0.14955  0  3.998175  0  0  -0.154337  0  4.019148  0  -0.08992  0  -0.098363  -0.146699  0  3.984241  0
C  C62  1  0.34491196  0.74284949  0.21608669  1  0  -0.04769  0  3.784295  0  0  -0.021122  0  4.019657  0  0  -0.028918  0  4.042749  0  -0.062947  0  -0.021151  -0.015875  0  4.003983  0
C  C63  1  0.65508825  0.25715009  0.78391344  1  0  -0.047635  0  3.784278  0  0  -0.021083  0  4.019654  0  0  -0.028874  0  4.042745  0  -0.062725  0  -0.021147  -0.015835  0  4.003979  0
C  C64  1  0.48558175  0.15710557  0.95997313  1  0  -0.137702  0  3.668562  0  0  -0.158553  0  3.915974  0  0  -0.166442  0  3.938058  0  -0.023873  0  -0.072348  -0.153373  0  3.901196  0
C  C65  1  0.51443050  0.84290553  0.04003163  1  0  -0.137679  0  3.668452  0  0  -0.158559  0  3.915769  0  0  -0.16645  0  3.937855  0  -0.02368  0  -0.072304  -0.153373  0  3.900987  0
C  C66  1  0.40959108  0.17695554  0.30801575  1  0  0.04344  0  3.635924  0  0  -0.018995  0  3.897587  0  0  -0.011199  0  3.901631  0  0.419156  0  -0.056702  -0.024025  0  3.894709  0
C  C67  1  0.59040876  0.82304298  0.69198253  1  0  0.043434  0  3.635932  0  0  -0.018988  0  3.8976  0  0  -0.011186  0  3.901636  0  0.419128  0  -0.056693  -0.024018  0  3.894721  0
C  C68  1  0.59437664  0.65781144  0.39540970  1  0  0.635282  0  3.84453  0  0  0.588861  0  4.139376  0  0  0.621157  0  4.131848  0  1.53998  0  0.222359  0.567191  0  4.143651  0
C  C69  1  0.40560793  0.34221120  0.60459768  1  0  0.634874  0  3.845743  0  0  0.588575  0  4.140416  0  0  0.620866  0  4.132887  0  1.539708  0  0.222226  0.566909  0  4.144689  0
C  C70  1  0.46349395  0.95788942  0.32222308  1  0  0.267251  0  3.813426  0  0  0.263179  0  4.076148  0  0  0.271877  0  4.09277  0  0.467082  0  0.084961  0.256713  0  4.064872  0
C  C71  1  0.53650155  0.04210806  0.67777417  1  0  0.267305  0  3.813426  0  0  0.263269  0  4.076096  0  0  0.27197  0  4.092718  0  0.467101  0  0.085014  0.256803  0  4.06482  0
C  C72  1  0.23166981  0.66409227  0.13367961  1  0  0.648375  0  3.891691  0  0  0.599667  0  4.177943  0  0  0.635065  0  4.170099  0  1.571031  0  0.210955  0.575616  0  4.182585  0
C  C73  1  0.76832983  0.33590940  0.86631904  1  0  0.648378  0  3.891839  0  0  0.599663  0  4.178088  0  0  0.635061  0  4.170241  0  1.570602  0  0.210929  0.57561  0  4.182732  0
C  C74  1  0.76580036  0.22800730  0.18340020  1  0  -0.06465  0  3.746868  0  0  -0.089466  0  3.99899  0  0  -0.088183  0  4.018416  0  -0.009933  0  -0.088561  -0.090201  0  3.986262  0
C  C75  1  0.23420080  0.77199122  0.81659818  1  0  -0.064505  0  3.746736  0  0  -0.089314  0  3.998844  0  0  -0.088026  0  4.01826  0  -0.009913  0  -0.088504  -0.090049  0  3.986115  0
C  C76  1  0.52102889  0.74212296  0.34410764  1  0  -0.055263  0  3.802841  0  0  -0.030531  0  4.039159  0  0  -0.037644  0  4.0625  0  -0.075098  0  -0.020209  -0.026244  0  4.023439  0
C  C77  1  0.47896189  0.25787242  0.65589349  1  0  -0.055133  0  3.802627  0  0  -0.030419  0  4.038889  0  0  -0.037527  0  4.062231  0  -0.073836  0  -0.020131  -0.026134  0  4.023168  0
C  C78  1  0.36351838  0.88667527  0.24435100  1  0  -0.189213  0  3.719341  0  0  -0.225982  0  3.973073  0  0  -0.228242  0  3.992902  0  -0.012474  0  -0.098264  -0.224264  0  3.959418  0
C  C79  1  0.63648051  0.11332430  0.75564789  1  0  -0.189266  0  3.71933  0  0  -0.226047  0  3.973047  0  0  -0.228312  0  3.992877  0  -0.012461  0  -0.09829  -0.224327  0  3.95939  0
C  C80  1  0.55818337  0.37075640  0.16032788  1  0  -0.070223  0  3.747186  0  0  -0.097911  0  4.003905  0  0  -0.0968  0  4.023729  0  -0.035116  0  -0.09002  -0.097978  0  3.989798  0
C  C81  1  0.44181986  0.62924422  0.83967263  1  0  -0.070261  0  3.747205  0  0  -0.097911  0  4.003872  0  0  -0.096801  0  4.023705  0  -0.035141  0  -0.090012  -0.097979  0  3.989766  0
C  C82  1  0.51439795  0.22041181  0.24899438  1  0  0.071686  0  3.731889  0  0  0.089118  0  3.969152  0  0  0.09025  0  3.992353  0  -0.049575  0  -0.011055  0.088617  0  3.952958  0
C  C83  1  0.48560019  0.77958566  0.75100364  1  0  0.071729  0  3.73192  0  0  0.089164  0  3.969179  0  0  0.090297  0  3.992377  0  -0.049429  0  -0.011019  0.088663  0  3.952984  0
C  C84  1  0.19385073  0.14234233  0.02866089  1  0  0.126429  0  3.690046  0  0  0.096679  0  3.937337  0  0  0.103224  0  3.956353  0  0.450243  0  0.049885  0.092516  0  3.924499  0
C  C85  1  0.80615723  0.85766039  0.97133968  1  0  0.126625  0  3.689943  0  0  0.096884  0  3.937244  0  0  0.10343  0  3.956257  0  0.450623  0  0.049936  0.092715  0  3.924411  0
C  C86  1  0.54141846  0.88527254  0.37238520  1  0  -0.155021  0  3.67629  0  0  -0.194997  0  3.935674  0  0  -0.195442  0  3.951874  0  0.005926  0  -0.088452  -0.193956  0  3.924506  0
C  C87  1  0.45857741  0.11472598  0.62761503  1  0  -0.15513  0  3.676354  0  0  -0.195119  0  3.935739  0  0  -0.195566  0  3.951941  0  0.006057  0  -0.088525  -0.194079  0  3.924573  0
C  C88  1  0.02877301  0.76155148  0.36068864  1  0  0.084964  0  3.758944  0  0  0.097401  0  3.987547  0  0  0.099871  0  4.010348  0  -0.111839  0  0.008513  0.095706  0  3.971987  0
C  C89  1  0.97122985  0.23844809  0.63931170  1  0  0.084965  0  3.759004  0  0  0.097363  0  3.987653  0  0  0.099834  0  4.010451  0  -0.111818  0  0.008506  0.095669  0  3.972092  0
C  C90  1  0.22078301  0.68197234  0.46308500  1  0  -0.15907  0  3.70263  0  0  -0.178554  0  3.955632  0  0  -0.186448  0  3.976732  0  -0.029876  0  -0.0831  -0.173095  0  3.940936  0
C  C91  1  0.77921513  0.31802514  0.53691641  1  0  -0.15898  0  3.702557  0  0  -0.178474  0  3.955539  0  0  -0.186368  0  3.976637  0  -0.029878  0  -0.083077  -0.173016  0  3.940844  0
C  C92  1  0.02411640  0.00291134  0.37520835  1  0  0.111796  0  3.757351  0  0  0.086344  0  4.020658  0  0  0.091416  0  4.03785  0  0.517529  0  0.036035  0.082814  0  4.008244  0
C  C93  1  0.97588270  0.99708509  0.62479131  1  0  0.111729  0  3.75729  0  0  0.08625  0  4.020596  0  0  0.091317  0  4.037792  0  0.517491  0  0.036001  0.082719  0  4.008185  0
C  C94  1  0.93974592  0.73670390  0.28036261  1  0  -0.145291  0  3.68126  0  0  -0.162182  0  3.924619  0  0  -0.169222  0  3.946887  0  0.048255  0  -0.078975  -0.157207  0  3.909143  0
C  C95  1  0.06025619  0.26329357  0.71963742  1  0  -0.145266  0  3.681365  0  0  -0.162157  0  3.924735  0  0  -0.169196  0  3.947003  0  0.048205  0  -0.078954  -0.15718  0  3.909256  0
C  C96  1  0.26657410  0.57466257  0.49248825  1  0  0.134993  0  3.699547  0  0  0.100262  0  3.957331  0  0  0.107279  0  3.973567  0  0.477398  0  0.046268  0.095614  0  3.946596  0
C  C97  1  0.73342802  0.42533491  0.50751234  1  0  0.134844  0  3.699592  0  0  0.100131  0  3.957362  0  0  0.107147  0  3.973594  0  0.477379  0  0.046216  0.09549  0  3.946623  0
C  C98  1  0.08034064  0.64962362  0.39363570  1  0  0.101947  0  3.741855  0  0  0.113446  0  3.971583  0  0  0.117346  0  3.993369  0  0.01049  0  0.015246  0.110854  0  3.956758  0
C  C99  1  0.91965825  0.35037596  0.60636433  1  0  0.101928  0  3.741936  0  0  0.113458  0  3.971639  0  0  0.117359  0  3.993422  0  0.010476  0  0.015259  0.110863  0  3.956817  0
C  C100  1  0.99319845  0.50702548  0.35701003  1  0  -0.148455  0  3.682765  0  0  -0.166067  0  3.927105  0  0  -0.173369  0  3.949139  0  -0.038518  0  -0.079067  -0.162051  0  3.913158  0
C  C101  1  0.00680176  0.49297409  0.64298954  1  0  -0.148437  0  3.682825  0  0  -0.166049  0  3.927142  0  0  -0.173355  0  3.949181  0  -0.038996  0  -0.079035  -0.16203  0  3.913193  0
C  C102  1  0.06947231  0.89924216  0.40869784  1  0  -0.148262  0  3.704804  0  0  -0.168919  0  3.95379  0  0  -0.175072  0  3.975179  0  -0.02804  0  -0.084133  -0.165441  0  3.940083  0
C  C103  1  0.93052526  0.10075741  0.59130151  1  0  -0.148212  0  3.704715  0  0  -0.168858  0  3.95374  0  0  -0.175007  0  3.975124  0  -0.027684  0  -0.084133  -0.165384  0  3.940038  0
C  C104  1  0.04951084  0.40596509  0.38981485  1  0  0.123907  0  3.715215  0  0  0.093962  0  3.967269  0  0  0.100302  0  3.98542  0  0.443243  0  0.047348  0.089753  0  3.953989  0
C  C105  1  0.95049069  0.59403448  0.61018483  1  0  0.1238  0  3.715262  0  0  0.093866  0  3.967322  0  0  0.100205  0  3.985476  0  0.443666  0  0.047263  0.089657  0  3.954041  0
C  C106  1  0.89990110  0.84771863  0.25236213  1  0  0.129972  0  3.742036  0  0  0.106515  0  4.000641  0  0  0.111778  0  4.018446  0  0.488048  0  0.042405  0.1031  0  3.988522  0
C  C107  1  0.10010367  0.15227885  0.74763754  1  0  0.129926  0  3.742081  0  0  0.106457  0  4.00069  0  0  0.111721  0  4.018495  0  0.488084  0  0.042405  0.103042  0  3.988566  0
N  N108  1  0.23919607  0.24688752  0.99402711  1  0  -0.308706  0  3.276614  0  0  -0.223873  0  3.543764  0  0  -0.243551  0  3.558572  0  -1.243682  0  -0.326808  -0.210863  0  3.533776  0
N  N109  1  0.76080960  0.75311624  0.00597340  1  0  -0.308614  0  3.276418  0  0  -0.223803  0  3.543628  0  0  -0.243482  0  3.558438  0  -1.243596  0  -0.326723  -0.210793  0  3.533641  0
N  N110  1  0.18345240  0.43841655  0.45671756  1  0  -0.301371  0  3.213559  0  0  -0.235669  0  3.45964  0  0  -0.250811  0  3.476969  0  -1.25301  0  -0.307704  -0.225313  0  3.44764  0
N  N111  1  0.81654935  0.56157987  0.54328231  1  0  -0.301296  0  3.213601  0  0  -0.235628  0  3.459669  0  0  -0.250771  0  3.476997  0  -1.253086  0  -0.30769  -0.225271  0  3.447666  0
N  N112  1  0.94158587  0.97985816  0.29791297  1  0  -0.327689  0  3.086817  0  0  -0.286913  0  3.355219  0  0  -0.298019  0  3.370263  0  -1.22636  0  -0.324066  -0.279225  0  3.344755  0
N  N113  1  0.05841662  0.02014037  0.70208552  1  0  -0.327675  0  3.086776  0  0  -0.28691  0  3.355221  0  0  -0.298018  0  3.370268  0  -1.226412  0  -0.324095  -0.279221  0  3.344757  0
O  O114  1  0.49185971  0.09818889  0.35524086  1  0  -0.282208  0  2.314064  0  0  -0.213738  0  2.546812  0  0  -0.231295  0  2.549422  0  -1.075774  0  -0.182338  -0.201313  0  2.54456  0
O  O115  1  0.50814183  0.90181069  0.64475768  1  0  -0.282175  0  2.314141  0  0  -0.213723  0  2.546881  0  0  -0.231283  0  2.549493  0  -1.076071  0  -0.182346  -0.201296  0  2.544626  0
O  O116  1  0.11715917  0.72073922  0.10043510  1  0  -0.635128  0  2.062288  0  0  -0.574492  0  2.325689  0  0  -0.602278  0  2.312485  0  -1.181886  0  -0.318843  -0.555051  0  2.333966  0
O  O117  1  0.88283839  0.27926036  0.89956426  1  0  -0.635147  0  2.062365  0  0  -0.574461  0  2.325723  0  0  -0.602245  0  2.312516  0  -1.181838  0  -0.318824  -0.555021  0  2.334003  0
O  O118  1  0.69943063  0.73173355  0.46697625  1  0  -0.551929  0  2.11959  0  0  -0.502251  0  2.354415  0  0  -0.525207  0  2.342319  0  -1.179379  0  -0.336022  -0.486217  0  2.362264  0
O  O119  1  0.30055713  0.26826078  0.53302056  1  0  -0.552051  0  2.119393  0  0  -0.502379  0  2.354185  0  0  -0.525338  0  2.342092  0  -1.179441  0  -0.336126  -0.486343  0  2.362029  0
O  O120  1  0.78703387  0.49411577  0.07340837  1  0  -0.641333  0  2.068113  0  0  -0.572994  0  2.334631  0  0  -0.602326  0  2.321076  0  -1.173209  0  -0.316393  -0.552935  0  2.343126  0
O  O121  1  0.21296427  0.50588171  0.92658908  1  0  -0.641322  0  2.068203  0  0  -0.572983  0  2.334724  0  0  -0.602316  0  2.321173  0  -1.173226  0  -0.316384  -0.552922  0  2.343216  0
O  O122  1  0.55678381  0.52870802  0.37150910  1  0  -0.561316  0  1.956533  0  0  -0.521151  0  2.180135  0  0  -0.541797  0  2.175254  0  -1.160062  0  -0.293186  -0.506745  0  2.183179  0
O  O123  1  0.44316675  0.47127478  0.62849466  1  0  -0.560772  0  1.958011  0  0  -0.52071  0  2.181615  0  0  -0.541354  0  2.17675  0  -1.160199  0  -0.292955  -0.506312  0  2.184664  0
O  O124  1  0.25708387  0.54633543  0.10281599  1  0  -0.625484  0  2.061563  0  0  -0.558122  0  2.320666  0  0  -0.587095  0  2.308139  0  -1.175396  0  -0.310386  -0.537992  0  2.328464  0
O  O125  1  0.74291502  0.45366415  0.89718291  1  0  -0.625493  0  2.061624  0  0  -0.558142  0  2.320758  0  0  -0.587115  0  2.308229  0  -1.175309  0  -0.310376  -0.538011  0  2.328554  0
O  O126  1  0.93448650  0.32317267  0.06942871  1  0  -0.631213  0  2.091207  0  0  -0.564614  0  2.355333  0  0  -0.593868  0  2.342948  0  -1.17298  0  -0.313947  -0.544271  0  2.362875  0
O  O127  1  0.06551710  0.67682900  0.93057138  1  0  -0.631088  0  2.091311  0  0  -0.564494  0  2.355435  0  0  -0.593749  0  2.343054  0  -1.172969  0  -0.313884  -0.544149  0  2.362972  0
