# generated using pymatgen
data_Mn3H20C22S3O17
_symmetry_space_group_name_H-M   'P 1'
_cell_length_a   12.66782842
_cell_length_b   17.27020277
_cell_length_c   17.46913973
_cell_angle_alpha   89.99988417
_cell_angle_beta   94.39587416
_cell_angle_gamma   89.99981271
_symmetry_Int_Tables_number   1
_chemical_formula_structural   Mn3H20C22S3O17
_chemical_formula_sum   'Mn12 H80 C88 S12 O68'
_cell_volume   3810.58514043
_cell_formula_units_Z   4
loop_
 _symmetry_equiv_pos_site_id
 _symmetry_equiv_pos_as_xyz
  1  'x, y, z'
loop_
 _atom_site_type_symbol
 _atom_site_label
 _atom_site_symmetry_multiplicity
 _atom_site_fract_x
 _atom_site_fract_y
 _atom_site_fract_z
 _atom_site_occupancy
 _atom_site_pbe_bader_charge
 _atom_site_pbe_bader_spin_density
 _atom_site_pbe_cm5_charge
 _atom_site_pbe_ddec_charge
 _atom_site_pbe_ddec_spin_density
 _atom_site_pbe_ddec_sum_bond_order
 _atom_site_pbe_magmom
Mn  Mn0  1  0.49271773  0.32264452  0.76640863  1  1.588943  4.536367  0.624038  1.121775  4.649885  2.310621  4.481
Mn  Mn1  1  0.00727186  0.82263869  0.73358784  1  1.588992  4.536334  0.624054  1.121845  4.649917  2.310554  4.481
Mn  Mn2  1  0.50727520  0.67735657  0.23358839  1  1.588895  4.536357  0.624025  1.121838  4.64991  2.310607  4.481
Mn  Mn3  1  0.99272339  0.17735951  0.26641219  1  1.588997  4.53634  0.624061  1.121825  4.649909  2.310605  4.481
Mn  Mn4  1  0.62416842  0.31655257  0.56503009  1  1.539038  4.593317  0.601827  1.072593  4.710055  2.187252  4.511
Mn  Mn5  1  0.87582851  0.81655123  0.93496830  1  1.538955  4.593332  0.601805  1.072429  4.71005  2.187437  4.511
Mn  Mn6  1  0.37583473  0.68344910  0.43497103  1  1.539019  4.593313  0.601812  1.072539  4.710053  2.187305  4.511
Mn  Mn7  1  0.12416990  0.18345044  0.06503194  1  1.538954  4.593327  0.601817  1.072516  4.710026  2.187319  4.511
Mn  Mn8  1  0.34448301  0.34766335  0.92521279  1  1.498349  4.558647  0.604458  0.999186  4.677823  2.264014  4.476
Mn  Mn9  1  0.15551346  0.84766965  0.57479038  1  1.498425  4.558634  0.604404  0.999121  4.677802  2.264035  4.476
Mn  Mn10  1  0.65550745  0.65233137  0.07478864  1  1.498425  4.558637  0.604411  0.999147  4.677715  2.264051  4.476
Mn  Mn11  1  0.84448488  0.15233145  0.42521329  1  1.498428  4.558644  0.604436  0.999155  4.677812  2.263965  4.476
H  H12  1  0.65268795  0.25118114  0.41147244  1  0.669765  0.002191  0.297531  0.394222  0.001522  0.947505  0.003
H  H13  1  0.84731501  0.75118289  0.08853000  1  0.669793  0.00219  0.297594  0.394266  0.001521  0.947459  0.003
H  H14  1  0.34731759  0.74881938  0.58852827  1  0.669827  0.002191  0.297582  0.394246  0.001522  0.947471  0.003
H  H15  1  0.15268423  0.24881647  0.91146857  1  0.669777  0.002191  0.297602  0.394272  0.001521  0.947448  0.003
H  H16  1  0.53699428  0.23384850  0.44272712  1  0.623401  0.002628  0.332031  0.411767  0.00119  0.866915  0.002
H  H17  1  0.96300641  0.73384656  0.05727349  1  0.623379  0.002628  0.331982  0.411703  0.00119  0.866959  0.002
H  H18  1  0.46300893  0.76615433  0.55727058  1  0.623352  0.002628  0.331985  0.411659  0.00119  0.866959  0.002
H  H19  1  0.03699516  0.26615453  0.94272753  1  0.623393  0.002628  0.332001  0.411725  0.00119  0.866943  0.002
H  H20  1  0.84891053  0.31051016  0.50794447  1  0.642099  0.002043  0.297684  0.395411  0.000798  0.932913  0.002
H  H21  1  0.65108956  0.81051272  0.99205643  1  0.642121  0.002043  0.297681  0.395374  0.000799  0.932968  0.002
H  H22  1  0.15109109  0.68948804  0.49205427  1  0.642166  0.002043  0.297665  0.395412  0.000798  0.93292  0.002
H  H23  1  0.34891283  0.18948779  0.00794293  1  0.642092  0.002043  0.297666  0.39536  0.000799  0.932985  0.002
H  H24  1  0.82180925  0.36108104  0.57970688  1  0.60887  0.000821  0.31377  0.385273  0.000147  0.919356  0.001
H  H25  1  0.67819457  0.86108136  0.92029359  1  0.60889  0.000821  0.313752  0.385195  0.000148  0.919467  0.001
H  H26  1  0.17819711  0.63892006  0.42029217  1  0.608241  0.00082  0.313748  0.385248  0.000147  0.919397  0.001
H  H27  1  0.32180861  0.13891857  0.07970639  1  0.608873  0.000821  0.313771  0.385264  0.000147  0.919383  0.001
H  H28  1  0.20233390  0.41586821  0.99918387  1  0.624025  0.002455  0.333269  0.418052  0.001106  0.85882  0.002
H  H29  1  0.29766870  0.91586562  0.50081385  1  0.623998  0.002454  0.333282  0.418058  0.001105  0.858785  0.002
H  H30  1  0.79766847  0.58413057  0.00081664  1  0.623992  0.002455  0.333268  0.418038  0.001106  0.85878  0.002
H  H31  1  0.70232739  0.08413373  0.49918395  1  0.623994  0.002456  0.333251  0.418038  0.001106  0.858743  0.002
H  H32  1  0.22687811  0.34630365  0.06042371  1  0.658608  0.00226  0.29326  0.395238  0.001055  0.949212  0.003
H  H33  1  0.27311316  0.84630313  0.43957463  1  0.658749  0.00226  0.293251  0.395256  0.001054  0.949219  0.003
H  H34  1  0.77311874  0.65369224  0.93957528  1  0.658772  0.00226  0.293265  0.395311  0.001054  0.94912  0.003
H  H35  1  0.72688523  0.15369449  0.56042675  1  0.658761  0.00226  0.293267  0.39523  0.001055  0.949235  0.003
H  H36  1  0.83655922  0.49847137  0.62565485  1  0.078711  0.000341  0.109008  0.119474  -2.7e-05  1.001011  0.0
H  H37  1  0.66343678  0.99846951  0.87434770  1  0.078583  0.000341  0.108987  0.119463  -2.7e-05  1.000932  0.0
H  H38  1  0.16344082  0.50152625  0.37434321  1  0.078823  0.000341  0.10899  0.119417  -2.7e-05  1.001077  0.0
H  H39  1  0.33655994  0.00152869  0.12565816  1  0.078686  0.00034  0.108985  0.119394  -2.7e-05  1.001083  0.0
H  H40  1  0.92279354  0.63026063  0.67893880  1  0.114809  8.7e-05  0.115494  0.135665  -0.00042  0.988688  0.0
H  H41  1  0.57720810  0.13026098  0.82106656  1  0.114467  8.7e-05  0.115487  0.135661  -0.00042  0.98873  0.0
H  H42  1  0.07720342  0.36974046  0.32105447  1  0.114979  8.7e-05  0.115515  0.13566  -0.00042  0.988801  0.0
H  H43  1  0.42279252  0.86973837  0.17894241  1  0.114867  8.7e-05  0.11552  0.135634  -0.00042  0.988795  0.0
H  H44  1  0.20527994  0.33908484  0.67548391  1  0.111056  0.00015  0.115304  0.136548  -0.000322  0.977339  0.0
H  H45  1  0.29472540  0.83908276  0.82451356  1  0.111019  0.00015  0.115296  0.136545  -0.000322  0.977287  0.0
H  H46  1  0.79472885  0.66091452  0.32451243  1  0.110994  0.00015  0.115338  0.136608  -0.000322  0.977174  0.0
H  H47  1  0.70527540  0.16091891  0.17548627  1  0.111043  0.00015  0.1153  0.136546  -0.000322  0.977309  0.0
H  H48  1  0.02280975  0.30129519  0.59796009  1  0.084717  0.000646  0.107595  0.117129  0.000101  1.00042  0.0
H  H49  1  0.47719254  0.80129310  0.90204069  1  0.084649  0.000646  0.107632  0.117234  0.000101  1.000331  0.0
H  H50  1  0.97719266  0.69870822  0.40203870  1  0.084628  0.000646  0.107659  0.117279  0.000101  1.00037  0.0
H  H51  1  0.52280668  0.19870742  0.09795903  1  0.084691  0.000646  0.107587  0.117096  0.000101  1.000427  0.0
H  H52  1  0.42583442  0.49503698  0.69435365  1  0.118241  0.000256  0.110643  0.126422  -0.000406  1.028625  0.0
H  H53  1  0.07416541  0.99504010  0.80564487  1  0.117829  0.000256  0.110628  0.126368  -0.000406  1.028662  0.0
H  H54  1  0.57416711  0.50496180  0.30564909  1  0.118287  0.000256  0.110631  0.126426  -0.000406  1.028558  0.0
H  H55  1  0.92582992  0.00495925  0.19435116  1  0.118339  0.000256  0.110582  0.126362  -0.000406  1.028665  0.0
H  H56  1  0.37778757  0.62976859  0.62499990  1  0.140042  0.00019  0.108559  0.122005  -0.000514  1.052805  0.0
H  H57  1  0.12220687  0.12976930  0.87499726  1  0.140064  0.00019  0.108549  0.121974  -0.000514  1.052836  0.0
H  H58  1  0.62221085  0.37023019  0.37499977  1  0.140031  0.00019  0.108538  0.12199  -0.000514  1.05279  0.0
H  H59  1  0.87778842  0.87022832  0.12500048  1  0.140033  0.00019  0.108539  0.122003  -0.000514  1.052773  0.0
H  H60  1  0.42769943  0.38043869  0.44800000  1  0.090055  0.000491  0.10832  0.086518  -8.6e-05  1.008262  0.0
H  H61  1  0.07229797  0.88043480  0.05200097  1  0.089958  0.000491  0.108331  0.086533  -8.6e-05  1.008247  0.0
H  H62  1  0.57229660  0.61956299  0.55200066  1  0.089957  0.000491  0.108343  0.086555  -8.6e-05  1.00828  0.0
H  H63  1  0.92770358  0.11956050  0.94800120  1  0.090102  0.000491  0.108346  0.086568  -8.6e-05  1.008273  0.0
H  H64  1  0.47314452  0.46167456  0.39552233  1  0.047342  0.000854  0.102091  0.073277  0.000267  0.997738  0.0
H  H65  1  0.02685489  0.96167010  0.10447804  1  0.047441  0.000854  0.102123  0.073359  0.000267  0.997697  0.0
H  H66  1  0.52685151  0.53832769  0.60447833  1  0.047315  0.000854  0.102089  0.073339  0.000267  0.997678  0.0
H  H67  1  0.97314670  0.03832636  0.89552184  1  0.047313  0.000854  0.102087  0.073306  0.000267  0.997701  0.0
H  H68  1  0.62727728  0.53040889  0.44968548  1  0.06707  0.001064  0.103233  0.080758  0.000288  0.996803  0.0
H  H69  1  0.87272119  0.03040618  0.05031596  1  0.066995  0.001064  0.103229  0.080708  0.000288  0.996802  0.0
H  H70  1  0.37271635  0.46959221  0.55031616  1  0.066924  0.001064  0.103195  0.080689  0.000288  0.996841  0.0
H  H71  1  0.12728040  0.96958912  0.94968392  1  0.066951  0.001064  0.103198  0.080657  0.000288  0.996825  0.0
H  H72  1  0.68581024  0.49828229  0.54102694  1  0.080963  0.000474  0.110617  0.089803  2.1e-05  1.005362  0.0
H  H73  1  0.81418818  0.99828048  0.95897348  1  0.080955  0.000474  0.110615  0.089799  2.1e-05  1.005398  0.0
H  H74  1  0.31418501  0.50171938  0.45897310  1  0.080847  0.000474  0.11063  0.089803  2.1e-05  1.005332  0.0
H  H75  1  0.18581421  0.00171367  0.04102588  1  0.08094  0.000474  0.11059  0.08973  2.1e-05  1.005363  0.0
H  H76  1  0.56633503  0.44244626  0.08718611  1  0.065096  0.001034  0.100419  0.073122  0.000212  1.001099  0.0
H  H77  1  0.93366471  0.94244541  0.41281345  1  0.065019  0.001035  0.1004  0.073075  0.000212  1.001124  0.0
H  H78  1  0.43366193  0.55755715  0.91280774  1  0.064905  0.001035  0.100375  0.07304  0.000213  1.001199  0.0
H  H79  1  0.06633839  0.05755568  0.58719053  1  0.064908  0.001035  0.100379  0.073059  0.000212  1.001184  0.0
H  H80  1  0.43345468  0.40668946  0.08680439  1  0.083289  0.000795  0.10724  0.087851  0.000327  1.005469  0.0
H  H81  1  0.06654345  0.90668718  0.41319372  1  0.083183  0.000794  0.107267  0.087895  0.000327  1.005504  0.0
H  H82  1  0.56654229  0.59331337  0.91318889  1  0.083319  0.000794  0.107253  0.087868  0.000327  1.00555  0.0
H  H83  1  0.93345889  0.09331276  0.58680850  1  0.083211  0.000794  0.107247  0.087853  0.000327  1.005564  0.0
H  H84  1  0.55659528  0.44966195  0.88091290  1  0.114493  0.000538  0.112541  0.10028  -0.000239  1.03112  0.0
H  H85  1  0.94340419  0.94966051  0.61908597  1  0.114537  0.000538  0.112537  0.100267  -0.000238  1.031092  0.0
H  H86  1  0.44340165  0.55034088  0.11908209  1  0.114344  0.000538  0.112538  0.100242  -0.000238  1.031233  0.0
H  H87  1  0.05659814  0.05033885  0.38091625  1  0.11459  0.000538  0.112522  0.100231  -0.000238  1.031208  0.0
H  H88  1  0.63663870  0.46875245  0.96794845  1  0.082085  0.001257  0.102616  0.07576  0.000397  0.977952  0.001
H  H89  1  0.86336229  0.96875196  0.53204933  1  0.082068  0.001257  0.102631  0.07575  0.000397  0.977889  0.001
H  H90  1  0.36335745  0.53125154  0.03204592  1  0.081931  0.001257  0.102608  0.075711  0.000397  0.977969  0.001
H  H91  1  0.13664246  0.03124798  0.46795133  1  0.081977  0.001257  0.102598  0.075721  0.000397  0.977943  0.001
C  C92  1  0.67291686  0.42954351  0.71000608  1  1.601706  0.018588  0.223054  0.614098  0.017235  4.22346  0.016
C  C93  1  0.82708261  0.92954143  0.78999740  1  1.601656  0.018587  0.22293  0.613914  0.017235  4.223824  0.016
C  C94  1  0.32708627  0.57045353  0.28999619  1  1.601668  0.018592  0.222942  0.613966  0.017238  4.223452  0.016
C  C95  1  0.17291811  0.07045735  0.21000643  1  1.601584  0.018591  0.223026  0.614119  0.017236  4.223482  0.016
C  C96  1  0.73766792  0.50072556  0.72215074  1  -0.198131  0.006377  -0.025747  -0.132143  0.004396  3.98598  0.003
C  C97  1  0.76233274  0.00072614  0.77785481  1  -0.197749  0.006371  -0.025884  -0.132403  0.004393  3.986346  0.003
C  C98  1  0.26233606  0.49927264  0.27784872  1  -0.198316  0.006375  -0.025746  -0.132098  0.004395  3.985878  0.003
C  C99  1  0.23766631  0.99927438  0.22215291  1  -0.198197  0.006375  -0.025749  -0.132136  0.004395  3.985955  0.003
C  C100  1  0.81494718  0.52843914  0.67696447  1  -0.030853  0.004321  -0.099136  -0.116289  0.003217  4.017348  0.002
C  C101  1  0.68505418  0.02843865  0.82303936  1  -0.030844  0.004321  -0.099091  -0.116233  0.003218  4.017413  0.002
C  C102  1  0.18505447  0.47155905  0.32303255  1  -0.030707  0.004321  -0.099125  -0.116219  0.003218  4.017381  0.002
C  C103  1  0.31494568  0.97156012  0.17696785  1  -0.030473  0.004321  -0.099121  -0.116229  0.003218  4.017317  0.002
C  C104  1  0.86093543  0.59805550  0.70489581  1  0.0219  0.00347  -0.090544  -0.094509  0.002432  3.986826  0.002
C  C105  1  0.63906323  0.09805575  0.79510770  1  0.022197  0.003466  -0.090529  -0.094486  0.002428  3.986817  0.002
C  C106  1  0.13906463  0.40194617  0.29510111  1  0.021115  0.003469  -0.090578  -0.094557  0.002431  3.986876  0.002
C  C107  1  0.36093190  0.90194418  0.20489862  1  0.02168  0.003469  -0.090594  -0.094562  0.002431  3.986824  0.002
C  C108  1  0.81888020  0.62322658  0.77166564  1  -0.216312  0.006836  -0.026534  -0.14081  0.004684  3.981762  0.004
C  C109  1  0.68112227  0.12322629  0.72833979  1  -0.216216  0.006839  -0.026489  -0.140765  0.004686  3.981637  0.004
C  C110  1  0.18111833  0.37677567  0.22832888  1  -0.215752  0.006838  -0.026433  -0.14066  0.004685  3.981605  0.004
C  C111  1  0.31887439  0.87677306  0.27166892  1  -0.216398  0.006837  -0.026427  -0.140593  0.004684  3.981481  0.004
C  C112  1  0.85241375  0.69428820  0.81401165  1  1.610312  0.017745  0.229246  0.622388  0.017297  4.192306  0.016
C  C113  1  0.64758928  0.19429329  0.68598795  1  1.610412  0.017732  0.229278  0.622434  0.017284  4.192609  0.016
C  C114  1  0.14758392  0.30571116  0.18598568  1  1.610341  0.017741  0.229152  0.622105  0.017294  4.192433  0.016
C  C115  1  0.35241068  0.80570954  0.31401411  1  1.610292  0.017743  0.229189  0.622265  0.017293  4.192094  0.016
C  C116  1  0.39587508  0.31553777  0.59912006  1  1.599321  0.031366  0.216783  0.600908  0.031134  4.234616  0.026
C  C117  1  0.10412797  0.81553889  0.90087903  1  1.600024  0.031357  0.216714  0.600692  0.03113  4.234921  0.026
C  C118  1  0.60413045  0.68445985  0.40088123  1  1.599861  0.031363  0.216766  0.600814  0.031132  4.234813  0.026
C  C119  1  0.89587364  0.18446220  0.09912028  1  1.599975  0.031366  0.216759  0.600816  0.031134  4.234786  0.026
C  C120  1  0.28342206  0.30163595  0.57548882  1  -0.227764  0.003543  -0.023209  -0.126173  0.001814  3.991482  0.001
C  C121  1  0.21658028  0.80163849  0.92450910  1  -0.228125  0.003546  -0.023151  -0.126014  0.001816  3.991474  0.001
C  C122  1  0.71658199  0.69836167  0.42450664  1  -0.22874  0.003546  -0.023158  -0.126064  0.001815  3.99151  0.001
C  C123  1  0.78342050  0.19836434  0.07549187  1  -0.228231  0.003545  -0.023161  -0.126082  0.001815  3.991598  0.001
C  C124  1  0.19672693  0.31607649  0.61734549  1  -1.7e-05  0.010022  -0.09344  -0.103012  0.007549  3.984522  0.006
C  C125  1  0.30327772  0.81607601  0.88265255  1  0.000982  0.01002  -0.09341  -0.103028  0.007549  3.984352  0.006
C  C126  1  0.80327866  0.68392287  0.38265236  1  0.001781  0.010022  -0.093478  -0.103088  0.00755  3.984317  0.006
C  C127  1  0.69672469  0.18392450  0.11734624  1  0.000484  0.010022  -0.093458  -0.103069  0.007549  3.984505  0.006
C  C128  1  0.10062018  0.29672540  0.57601493  1  0.010968  0.003349  -0.097694  -0.106438  0.002522  4.006539  0.001
C  C129  1  0.39938611  0.79672461  0.92398498  1  0.010314  0.003352  -0.097771  -0.106583  0.002524  4.006465  0.001
C  C130  1  0.89938541  0.70327627  0.42398292  1  0.009952  0.003352  -0.097831  -0.106642  0.002524  4.006654  0.001
C  C131  1  0.60061787  0.20327765  0.07601448  1  0.010883  0.00335  -0.0977  -0.106382  0.002523  4.006462  0.001
C  C132  1  0.11484608  0.26899446  0.50279508  1  -0.190301  0.011746  -0.027404  -0.130844  0.008337  3.997379  0.006
C  C133  1  0.38515634  0.76899355  0.99720635  1  -0.190304  0.011744  -0.027369  -0.130732  0.008336  3.997244  0.006
C  C134  1  0.88515713  0.73100895  0.49720262  1  -0.19027  0.011746  -0.027343  -0.130807  0.008338  3.997431  0.006
C  C135  1  0.61484602  0.23100812  0.00279473  1  -0.190315  0.011745  -0.027384  -0.130785  0.008337  3.997317  0.006
C  C136  1  0.03324796  0.24145817  0.44482583  1  1.551736  0.019562  0.216656  0.599273  0.019099  4.227066  0.016
C  C137  1  0.46675163  0.74146085  0.05517728  1  1.551915  0.019559  0.216616  0.599158  0.019102  4.227043  0.016
C  C138  1  0.96675365  0.75854350  0.55517291  1  1.551613  0.019566  0.216645  0.599273  0.019103  4.227035  0.016
C  C139  1  0.53324915  0.25854371  0.94482369  1  1.551971  0.01956  0.216595  0.599027  0.019101  4.227079  0.016
C  C140  1  0.31306736  0.45725862  0.82551432  1  1.511478  0.017018  0.206768  0.584526  0.017202  4.223208  0.014
C  C141  1  0.18693653  0.95725768  0.67448855  1  1.511813  0.017017  0.20692  0.584823  0.017202  4.222822  0.014
C  C142  1  0.68693023  0.54274016  0.17448759  1  1.511503  0.01702  0.206876  0.584645  0.017204  4.222942  0.014
C  C143  1  0.81306192  0.04274225  0.32550998  1  1.512067  0.017015  0.206925  0.584715  0.017202  4.222881  0.014
C  C144  1  0.30542077  0.52200720  0.77174352  1  -0.202783  0.003261  -0.025865  -0.130496  0.001498  4.012629  0.001
C  C145  1  0.19457733  0.02200803  0.72825524  1  -0.20286  0.003263  -0.025864  -0.130675  0.001498  4.012723  0.001
C  C146  1  0.69457609  0.47799274  0.22825547  1  -0.202424  0.003262  -0.025869  -0.13052  0.001498  4.012771  0.001
C  C147  1  0.80541874  0.97799306  0.27174313  1  -0.202881  0.003262  -0.025851  -0.130612  0.001498  4.012659  0.001
C  C148  1  0.36670015  0.53623111  0.71076894  1  -0.034579  0.004304  -0.09259  -0.099553  0.002969  3.970887  0.003
C  C149  1  0.13329628  0.03623312  0.78923026  1  -0.034151  0.004305  -0.092569  -0.099375  0.00297  3.970873  0.003
C  C150  1  0.63329746  0.46376651  0.28923182  1  -0.03463  0.004305  -0.092569  -0.099506  0.002971  3.970901  0.003
C  C151  1  0.86669980  0.96376739  0.21076754  1  -0.03491  0.004305  -0.092528  -0.099399  0.00297  3.970864  0.003
C  C152  1  0.34132281  0.60748222  0.67480154  1  -0.021  0.004048  -0.098751  -0.110325  0.002979  3.974015  0.002
C  C153  1  0.15867486  0.10748295  0.82519817  1  -0.020538  0.004049  -0.098741  -0.110326  0.00298  3.974114  0.002
C  C154  1  0.65867640  0.39251714  0.32519818  1  -0.02107  0.004048  -0.098733  -0.110306  0.002979  3.97421  0.002
C  C155  1  0.84132199  0.89251699  0.17480082  1  -0.020715  0.004048  -0.098741  -0.110346  0.002979  3.974045  0.002
C  C156  1  0.26149461  0.64640191  0.70927170  1  -0.197199  0.007198  -0.024251  -0.129107  0.005133  3.976502  0.004
C  C157  1  0.23850523  0.14640078  0.79072923  1  -0.19767  0.007198  -0.024276  -0.129168  0.005133  3.976539  0.004
C  C158  1  0.73850379  0.35359686  0.29072912  1  -0.197172  0.007199  -0.024266  -0.129227  0.005134  3.976622  0.004
C  C159  1  0.76149321  0.85359684  0.20926987  1  -0.197608  0.007199  -0.024228  -0.129121  0.005134  3.976394  0.004
C  C160  1  0.21139647  0.72175780  0.69023356  1  1.57938  0.016838  0.223995  0.610109  0.015962  4.199171  0.015
C  C161  1  0.28860071  0.22175766  0.80976361  1  1.579753  0.016841  0.224062  0.610286  0.015966  4.198874  0.015
C  C162  1  0.78860354  0.27824272  0.30976564  1  1.579339  0.01684  0.223953  0.610236  0.015963  4.199151  0.015
C  C163  1  0.71139927  0.77823880  0.19023731  1  1.579912  0.016836  0.224008  0.610292  0.015963  4.198856  0.015
C  C164  1  0.46094692  0.43894056  0.45318081  1  0.385654  0.003268  -0.073664  -0.016772  0.002049  3.889212  0.002
C  C165  1  0.03905180  0.93893619  0.04681956  1  0.385625  0.003268  -0.073761  -0.016969  0.002049  3.88925  0.002
C  C166  1  0.53904989  0.56106053  0.54682047  1  0.385785  0.003268  -0.073712  -0.016917  0.002049  3.889299  0.002
C  C167  1  0.96095136  0.06105854  0.95318099  1  0.385613  0.003267  -0.073669  -0.016892  0.002048  3.889246  0.002
C  C168  1  0.61105253  0.50722036  0.50639411  1  0.397609  0.003462  -0.073455  -0.018922  0.002381  3.882183  0.002
C  C169  1  0.88894741  0.00721671  0.99360623  1  0.39794  0.003461  -0.073448  -0.01885  0.00238  3.882226  0.002
C  C170  1  0.38894270  0.49278190  0.49360650  1  0.39792  0.003462  -0.07345  -0.018844  0.002381  3.882154  0.002
C  C171  1  0.11105497  0.99277685  0.00639370  1  0.397743  0.003461  -0.073325  -0.018602  0.00238  3.88188  0.002
C  C172  1  0.48572271  0.44640870  0.05880362  1  0.38319  0.003099  -0.075979  -0.020481  0.002421  3.891307  0.002
C  C173  1  0.01427680  0.94640649  0.44119450  1  0.383338  0.003099  -0.075957  -0.02043  0.002421  3.891232  0.002
C  C174  1  0.51427345  0.55359528  0.94119018  1  0.383221  0.0031  -0.076009  -0.020523  0.002422  3.891462  0.002
C  C175  1  0.98572790  0.05359403  0.55880845  1  0.383387  0.003099  -0.07597  -0.020499  0.002421  3.891423  0.002
C  C176  1  0.55583082  0.47148618  0.93959488  1  0.356074  0.00366  -0.077752  -0.025803  0.002246  3.880634  0.003
C  C177  1  0.94417015  0.97148486  0.56040290  1  0.355962  0.003659  -0.077771  -0.025823  0.002246  3.880498  0.003
C  C178  1  0.44416455  0.52851723  0.06039887  1  0.355968  0.00366  -0.077716  -0.025758  0.002247  3.880763  0.003
C  C179  1  0.05583376  0.02851566  0.43959999  1  0.356001  0.003659  -0.077742  -0.025814  0.002246  3.88068  0.003
S  S180  1  0.72266801  0.56065416  0.79921772  1  0.265321  0.006662  0.106641  0.165611  0.00421  2.919028  0.003
S  S181  1  0.77733474  0.06065601  0.70078785  1  0.265038  0.006659  0.106618  0.165661  0.004208  2.919131  0.003
S  S182  1  0.27733441  0.43934636  0.20077992  1  0.26536  0.006662  0.106569  0.165535  0.00421  2.919065  0.003
S  S183  1  0.22266354  0.93934625  0.29921925  1  0.265342  0.006662  0.106569  0.165531  0.004209  2.919109  0.003
S  S184  1  0.24664450  0.26470948  0.48590841  1  0.270905  0.008349  0.098712  0.161176  0.005125  2.866456  0.004
S  S185  1  0.25335662  0.76471450  0.01409189  1  0.270969  0.008349  0.0987  0.161084  0.005125  2.866514  0.004
S  S186  1  0.75335796  0.73529104  0.51408751  1  0.271078  0.00835  0.098718  0.161165  0.005126  2.866553  0.004
S  S187  1  0.74664492  0.23529123  0.98591028  1  0.270939  0.008349  0.098699  0.161125  0.005125  2.866531  0.004
S  S188  1  0.21663730  0.59524384  0.78476515  1  0.308547  0.006377  0.107763  0.177968  0.004349  2.864942  0.003
S  S189  1  0.28336279  0.09524391  0.71523532  1  0.30853  0.006379  0.107782  0.178037  0.00435  2.864981  0.003
S  S190  1  0.78335956  0.40475552  0.21523327  1  0.308237  0.006379  0.107805  0.178042  0.004351  2.864897  0.003
S  S191  1  0.71663485  0.90475661  0.28476373  1  0.308535  0.006378  0.10777  0.178011  0.00435  2.864876  0.003
O  O192  1  0.60771745  0.41329359  0.75929269  1  -1.190586  0.062461  -0.298862  -0.554729  0.045077  2.306435  0.029
O  O193  1  0.89227976  0.91329202  0.74070896  1  -1.190523  0.062464  -0.298841  -0.554692  0.045081  2.306577  0.029
O  O194  1  0.39228414  0.58670751  0.24070719  1  -1.190584  0.062468  -0.298882  -0.554762  0.045084  2.30653  0.029
O  O195  1  0.10771782  0.08670965  0.25929295  1  -1.1905  0.06246  -0.298903  -0.554797  0.045082  2.306471  0.029
O  O196  1  0.60256639  0.26246591  0.45230270  1  -1.286127  0.055758  -0.563222  -0.773753  0.040598  2.150319  0.025
O  O197  1  0.89743883  0.76247052  0.04770273  1  -1.286045  0.055734  -0.563227  -0.773677  0.04059  2.150346  0.025
O  O198  1  0.39743914  0.73753518  0.54769858  1  -1.286142  0.05576  -0.563187  -0.773612  0.040596  2.150323  0.025
O  O199  1  0.10256198  0.23752884  0.95229652  1  -1.286074  0.055737  -0.563254  -0.77372  0.040592  2.15035  0.025
O  O200  1  0.68945003  0.39069630  0.64975060  1  -1.213546  0.06522  -0.318203  -0.595673  0.045556  2.368807  0.026
O  O201  1  0.81054891  0.89069355  0.85024892  1  -1.213646  0.065226  -0.318084  -0.595426  0.045554  2.369061  0.026
O  O202  1  0.31055626  0.60930190  0.35025187  1  -1.213507  0.065214  -0.318079  -0.59553  0.045554  2.368765  0.026
O  O203  1  0.18945426  0.10930523  0.14975107  1  -1.213512  0.065222  -0.318131  -0.595601  0.045555  2.36883  0.026
O  O204  1  0.79356110  0.34289489  0.52945342  1  -1.245471  0.045278  -0.563418  -0.748986  0.03276  2.030001  0.02
O  O205  1  0.70644044  0.84289446  0.97054636  1  -1.245506  0.045282  -0.563408  -0.748877  0.032762  2.030144  0.02
O  O206  1  0.20644128  0.65710273  0.47054651  1  -1.244854  0.045274  -0.563385  -0.748979  0.032759  2.030036  0.02
O  O207  1  0.29356116  0.15710547  0.02945294  1  -1.245473  0.045278  -0.5634  -0.748939  0.032759  2.030076  0.02
O  O208  1  0.81398059  0.70983229  0.87890918  1  -1.199337  0.066654  -0.311064  -0.589718  0.047611  2.319503  0.035
O  O209  1  0.68602623  0.20983279  0.62109580  1  -1.19939  0.066641  -0.311117  -0.589821  0.047606  2.319699  0.035
O  O210  1  0.18602025  0.29016475  0.12108836  1  -1.199457  0.066655  -0.31103  -0.589655  0.04761  2.319466  0.035
O  O211  1  0.31397443  0.79016367  0.37891089  1  -1.199435  0.066644  -0.311022  -0.589713  0.047609  2.319481  0.035
O  O212  1  0.25624969  0.37943587  0.01886901  1  -1.269277  0.06661  -0.563649  -0.774331  0.04791  2.158153  0.026
O  O213  1  0.24374227  0.87944112  0.48112646  1  -1.269397  0.066599  -0.563657  -0.774365  0.047908  2.158116  0.026
O  O214  1  0.74374871  0.62056175  0.98113181  1  -1.269396  0.066595  -0.563663  -0.774432  0.04791  2.158086  0.026
O  O215  1  0.75625382  0.12056055  0.51887077  1  -1.269409  0.066611  -0.563634  -0.774302  0.04791  2.158085  0.026
O  O216  1  0.91852339  0.73718516  0.78480454  1  -1.199787  0.068824  -0.288649  -0.548244  0.051481  2.385868  0.031
O  O217  1  0.58148021  0.23718513  0.71519673  1  -1.199792  0.068809  -0.288621  -0.548176  0.051471  2.385923  0.031
O  O218  1  0.08147430  0.26281883  0.21519222  1  -1.199732  0.068812  -0.288616  -0.548053  0.051471  2.385859  0.031
O  O219  1  0.41852285  0.76281480  0.28480897  1  -1.199676  0.068807  -0.288662  -0.548197  0.051472  2.385658  0.031
O  O220  1  0.41848519  0.35613419  0.65875933  1  -1.205688  0.058944  -0.308809  -0.583388  0.041799  2.348828  0.023
O  O221  1  0.08151616  0.85613376  0.84123556  1  -1.205872  0.058955  -0.308737  -0.583287  0.04179  2.348831  0.023
O  O222  1  0.58151563  0.64385995  0.34123935  1  -1.205593  0.058932  -0.308751  -0.583324  0.041792  2.34868  0.023
O  O223  1  0.91848543  0.14386849  0.15876432  1  -1.205709  0.058952  -0.308763  -0.583363  0.041797  2.348814  0.023
O  O224  1  0.46352972  0.28732671  0.55579452  1  -1.19613  0.077787  -0.322654  -0.588009  0.054032  2.334373  0.038
O  O225  1  0.03647269  0.78732791  0.94420286  1  -1.196623  0.077781  -0.322681  -0.58792  0.054025  2.334388  0.038
O  O226  1  0.53647585  0.71266975  0.44420447  1  -1.196627  0.077793  -0.32276  -0.588068  0.054033  2.334611  0.038
O  O227  1  0.96352894  0.21267028  0.05579473  1  -1.19672  0.077789  -0.32268  -0.587954  0.05403  2.334447  0.038
O  O228  1  0.93611561  0.24584554  0.46337688  1  -1.196783  0.069772  -0.324429  -0.5895  0.046849  2.33168  0.027
O  O229  1  0.56388648  0.74585156  0.03663067  1  -1.196992  0.069782  -0.324402  -0.589453  0.046849  2.331686  0.027
O  O230  1  0.06388831  0.75415381  0.53662545  1  -1.19682  0.06977  -0.324411  -0.58949  0.046847  2.331668  0.027
O  O231  1  0.43611428  0.25415128  0.96337144  1  -1.197031  0.069785  -0.324403  -0.589395  0.04685  2.331624  0.027
O  O232  1  0.06105506  0.21355175  0.38252570  1  -1.190395  0.065962  -0.290375  -0.554824  0.049663  2.2854  0.034
O  O233  1  0.43894071  0.71355554  0.11747721  1  -1.190431  0.065967  -0.290362  -0.554748  0.049663  2.285249  0.034
O  O234  1  0.93894260  0.78645050  0.61747277  1  -1.190309  0.065966  -0.290382  -0.554822  0.049665  2.285353  0.034
O  O235  1  0.56105767  0.28645251  0.88252475  1  -1.190431  0.065957  -0.290322  -0.554642  0.049658  2.285313  0.034
O  O236  1  0.38812491  0.40673162  0.82164771  1  -1.203857  0.104492  -0.304979  -0.58801  0.079076  2.410494  0.049
O  O237  1  0.11186901  0.90673665  0.67835003  1  -1.203978  0.104488  -0.305046  -0.588157  0.079073  2.41031  0.049
O  O238  1  0.61186797  0.59326716  0.17835160  1  -1.203916  0.104498  -0.304986  -0.588072  0.079079  2.410415  0.049
O  O239  1  0.88812786  0.09326502  0.32164782  1  -1.203958  0.104488  -0.305019  -0.588078  0.079072  2.410298  0.049
O  O240  1  0.24959800  0.45251231  0.87824732  1  -1.167112  0.055647  -0.324456  -0.568549  0.038426  2.154158  0.032
O  O241  1  0.25041374  0.95250497  0.62176066  1  -1.167269  0.055658  -0.324517  -0.568619  0.038428  2.15401  0.032
O  O242  1  0.75040351  0.54748936  0.12175656  1  -1.167053  0.055651  -0.324488  -0.568545  0.038427  2.153953  0.032
O  O243  1  0.74958783  0.04749207  0.37824037  1  -1.167195  0.055655  -0.324551  -0.568593  0.038427  2.154012  0.032
O  O244  1  0.25317305  0.76607401  0.64106959  1  -1.197318  0.067214  -0.308317  -0.56485  0.046785  2.318975  0.032
O  O245  1  0.24682632  0.26607735  0.85892649  1  -1.197115  0.067206  -0.308277  -0.564884  0.046787  2.318979  0.032
O  O246  1  0.74683012  0.23392592  0.35893039  1  -1.197254  0.067213  -0.308248  -0.564853  0.046785  2.319003  0.032
O  O247  1  0.75317370  0.73392143  0.14107271  1  -1.197269  0.067215  -0.308286  -0.564892  0.046782  2.318876  0.032
O  O248  1  0.12978356  0.73842530  0.72400057  1  -1.184671  0.060162  -0.293974  -0.557284  0.044166  2.353184  0.029
O  O249  1  0.37021594  0.23842388  0.77599557  1  -1.185237  0.060172  -0.294046  -0.557414  0.044172  2.353015  0.029
O  O250  1  0.87021806  0.26157637  0.27599760  1  -1.184711  0.060165  -0.294001  -0.557381  0.044168  2.353185  0.029
O  O251  1  0.62978715  0.76157085  0.22400841  1  -1.185234  0.060162  -0.294015  -0.557474  0.044168  2.353048  0.029
O  O252  1  0.56247873  0.43184436  0.49633016  1  -1.057897  0.035563  -0.214458  -0.238886  0.027222  2.54385  0.016
O  O253  1  0.93752104  0.93184085  0.00367000  1  -1.057898  0.035559  -0.214477  -0.238927  0.027223  2.544  0.016
O  O254  1  0.43751885  0.56815732  0.50367174  1  -1.05784  0.035561  -0.214446  -0.238927  0.027222  2.543974  0.016
O  O255  1  0.06248055  0.06815388  0.99632988  1  -1.057926  0.035554  -0.214533  -0.238991  0.027221  2.54381  0.016
O  O256  1  0.48877641  0.42037507  0.98037862  1  -1.062295  0.040316  -0.215608  -0.233736  0.029598  2.548967  0.019
O  O257  1  0.01122298  0.92037256  0.51961944  1  -1.062222  0.040325  -0.215622  -0.233709  0.029601  2.54892  0.019
O  O258  1  0.51122051  0.57963008  0.01961637  1  -1.061823  0.040318  -0.215597  -0.233637  0.029603  2.548899  0.019
O  O259  1  0.98878015  0.07962796  0.48038226  1  -1.062167  0.040324  -0.215586  -0.233627  0.0296  2.548948  0.019
