# generated using pymatgen
data_CuH5(C3N2)2
_symmetry_space_group_name_H-M   'P 1'
_cell_length_a   5.25007410
_cell_length_b   10.84454564
_cell_length_c   12.24608431
_cell_angle_alpha   97.21952959
_cell_angle_beta   102.37910911
_cell_angle_gamma   103.89488320
_symmetry_Int_Tables_number   1
_chemical_formula_structural   CuH5(C3N2)2
_chemical_formula_sum   'Cu4 H20 C24 N16'
_cell_volume   649.44750906
_cell_formula_units_Z   4
loop_
 _symmetry_equiv_pos_site_id
 _symmetry_equiv_pos_as_xyz
  1  'x, y, z'
loop_
 _atom_site_type_symbol
 _atom_site_label
 _atom_site_symmetry_multiplicity
 _atom_site_fract_x
 _atom_site_fract_y
 _atom_site_fract_z
 _atom_site_occupancy
 _atom_site_pbe_bader_spin_density
 _atom_site_pbe_cm5_charge
 _atom_site_pbe_ddec_charge
 _atom_site_pbe_ddec_spin_density
 _atom_site_pbe_ddec_sum_bond_order
 _atom_site_pbe_magmom
Cu  Cu0  1  0.87763637  0.07055581  0.91113636  1  0  0.580267  0.416762  0  2.441889  0
Cu  Cu1  1  0.39608040  0.43078963  0.58929763  1  0  0.578166  0.414882  0  2.441553  0
Cu  Cu2  1  0.12237024  0.92944396  0.08885738  1  0  0.580285  0.416773  0  2.441958  0
Cu  Cu3  1  0.60393706  0.56921259  0.41071169  1  0  0.57815  0.414906  0  2.44155  0
H  H4  1  0.22884081  0.16435830  0.57275949  1  0  0.099848  0.103251  0  1.061439  0
H  H5  1  0.99247989  0.33654455  0.92781356  1  0  0.100339  0.103367  0  1.061007  0
H  H6  1  0.77116784  0.83564262  0.42723967  1  0  0.099873  0.103262  0  1.061244  0
H  H7  1  0.00751070  0.66344972  0.07218794  1  0  0.100355  0.103409  0  1.060991  0
H  H8  1  0.56218534  0.88285093  0.54914971  1  0  0.103059  0.10871  0  1.015112  0
H  H9  1  0.63037133  0.61644736  0.95038834  1  0  0.103739  0.10858  0  1.014232  0
H  H10  1  0.43780566  0.11714871  0.45084020  1  0  0.103066  0.108723  0  1.015104  0
H  H11  1  0.36962790  0.38354700  0.04961590  1  0  0.103722  0.10857  0  1.014138  0
H  H12  1  0.96820129  0.18945688  0.71288480  1  0  0.107668  0.075747  0  1.032842  0
H  H13  1  0.56685698  0.31163386  0.78747341  1  0  0.108236  0.075638  0  1.032911  0
H  H14  1  0.03181184  0.81055170  0.28711361  1  0  0.107598  0.075594  0  1.032803  0
H  H15  1  0.43312624  0.68835366  0.21252751  1  0  0.108175  0.075555  0  1.033041  0
H  H16  1  0.36279583  0.82303694  0.69725432  1  0  0.106414  0.116387  0  1.021701  0
H  H17  1  0.34319272  0.67611461  0.80180195  1  0  0.105782  0.115602  0  1.021221  0
H  H18  1  0.63720818  0.17696280  0.30273878  1  0  0.1064  0.116381  0  1.021705  0
H  H19  1  0.65679955  0.32388878  0.19821287  1  0  0.105823  0.11559  0  1.021107  0
H  H20  1  0.07921022  0.85915797  0.83191642  1  0  0.111226  0.083229  0  1.035803  0
H  H21  1  0.88891475  0.64068903  0.66734187  1  0  0.112068  0.083775  0  1.034271  0
H  H22  1  0.92078942  0.14084176  0.16807623  1  0  0.111242  0.083373  0  1.035814  0
H  H23  1  0.11107866  0.35932117  0.33267508  1  0  0.112075  0.083704  0  1.034119  0
C  C24  1  0.20696235  0.09398285  0.62861138  1  0  -0.083697  -0.166903  0  3.924712  0
C  C25  1  0.98494359  0.40666327  0.87163673  1  0  -0.084278  -0.167492  0  3.928113  0
C  C26  1  0.79304879  0.90601965  0.37137793  1  0  -0.083681  -0.166946  0  3.92497  0
C  C27  1  0.01505659  0.59333878  0.12836712  1  0  -0.084263  -0.167429  0  3.927891  0
C  C28  1  0.32172411  0.98938585  0.62145647  1  0  0.002923  0.143608  0  4.017536  0
C  C29  1  0.21129099  0.51063571  0.87834431  1  0  0.002349  0.142564  0  4.016112  0
C  C30  1  0.67827288  0.01060899  0.37853368  1  0  0.002929  0.143699  0  4.017709  0
C  C31  1  0.78870433  0.48935966  0.12166143  1  0  0.002387  0.142526  0  4.01599  0
C  C32  1  0.47793355  0.96517934  0.54098222  1  0  -0.082935  -0.112747  0  3.936064  0
C  C33  1  0.47202986  0.53461113  0.95882390  1  0  -0.082458  -0.111594  0  3.933159  0
C  C34  1  0.52206745  0.03482424  0.45901014  1  0  -0.082956  -0.112904  0  3.936188  0
C  C35  1  0.52796905  0.46538701  0.04117841  1  0  -0.082462  -0.111534  0  3.933084  0
C  C36  1  0.05771029  0.10879871  0.70737924  1  0  0.03086  0.078211  0  3.961584  0
C  C37  1  0.74233275  0.39202606  0.79286150  1  0  0.032323  0.079842  0  3.962211  0
C  C38  1  0.94228825  0.89120966  0.29261251  1  0  0.031006  0.078545  0  3.961506  0
C  C39  1  0.25767013  0.60796463  0.20714794  1  0  0.032351  0.079897  0  3.962307  0
C  C40  1  0.27527716  0.90458784  0.69779486  1  0  -0.08568  -0.18036  0  3.945664  0
C  C41  1  0.17364944  0.59509668  0.80163165  1  0  -0.084986  -0.178884  0  3.946292  0
C  C42  1  0.72473277  0.09541489  0.30220092  1  0  -0.085628  -0.180283  0  3.945571  0
C  C43  1  0.82635509  0.40490747  0.19837757  1  0  -0.08512  -0.178995  0  3.946398  0
C  C44  1  0.11968363  0.92438302  0.77301195  1  0  0.030604  0.082261  0  3.936003  0
C  C45  1  0.92303509  0.57563159  0.72647548  1  0  0.030715  0.082717  0  3.935254  0
C  C46  1  0.88031350  0.07561663  0.22697823  1  0  0.03053  0.081971  0  3.936077  0
C  C47  1  0.07693779  0.42436843  0.27352536  1  0  0.030824  0.083055  0  3.935193  0
N  N48  1  0.01063715  0.02559987  0.77949704  1  0  -0.376961  -0.233984  0  3.685817  0
N  N49  1  0.70658061  0.47488387  0.72035658  1  0  -0.376453  -0.233004  0  3.687823  0
N  N50  1  0.98937601  0.97440453  0.22049154  1  0  -0.37701  -0.234048  0  3.685537  0
N  N51  1  0.29340434  0.52510783  0.27965399  1  0  -0.376465  -0.233204  0  3.688084  0
N  N52  1  0.44927409  0.14153215  0.00168679  1  0  0.065802  0.419972  0  4.458724  0
N  N53  1  0.80630010  0.35857737  0.49842824  1  0  0.06823  0.421815  0  4.453516  0
N  N54  1  0.55073362  0.85846956  0.99830722  1  0  0.065867  0.419799  0  4.459218  0
N  N55  1  0.19369634  0.64141709  0.50157900  1  0  0.068094  0.421717  0  4.453656  0
N  N56  1  0.64121867  0.15792725  0.96404398  1  0  -0.301804  -0.438544  0  3.217322  0
N  N57  1  0.02021110  0.34266655  0.53590808  1  0  -0.304073  -0.441788  0  3.216364  0
N  N58  1  0.35878690  0.84207546  0.03595135  1  0  -0.301787  -0.438408  0  3.217617  0
N  N59  1  0.97979708  0.65733467  0.46410019  1  0  -0.303982  -0.441667  0  3.216578  0
N  N60  1  0.25345169  0.12987682  0.03879760  1  0  -0.307873  -0.49511  0  3.104414  0
N  N61  1  0.58460931  0.36977293  0.46127523  1  0  -0.30943  -0.496526  0  3.101786  0
N  N62  1  0.74655707  0.87012194  0.96119482  1  0  -0.307979  -0.495062  0  3.104564  0
N  N63  1  0.41539097  0.63022830  0.53873295  1  0  -0.309406  -0.496557  0  3.101658  0
