# generated using pymatgen
data_Zn4H30C21(N3O8)2
_symmetry_space_group_name_H-M   'P 1'
_cell_length_a   15.77947067
_cell_length_b   16.45575693
_cell_length_c   16.61827561
_cell_angle_alpha   65.47131289
_cell_angle_beta   63.10416871
_cell_angle_gamma   63.99472502
_symmetry_Int_Tables_number   1
_chemical_formula_structural   Zn4H30C21(N3O8)2
_chemical_formula_sum   'Zn8 H60 C42 N12 O32'
_cell_volume   3329.82024602
_cell_formula_units_Z   2
loop_
 _symmetry_equiv_pos_site_id
 _symmetry_equiv_pos_as_xyz
  1  'x, y, z'
loop_
 _atom_site_type_symbol
 _atom_site_label
 _atom_site_symmetry_multiplicity
 _atom_site_fract_x
 _atom_site_fract_y
 _atom_site_fract_z
 _atom_site_occupancy
 _atom_site_pbe_bader_charge
 _atom_site_pbe_bader_spin_density
 _atom_site_pbe_cm5_charge
 _atom_site_pbe_ddec_charge
 _atom_site_pbe_ddec_spin_density
 _atom_site_pbe_ddec_sum_bond_order
 _atom_site_pbe_magmom
Zn  Zn0  1  0.08719884  0.99300923  0.01813548  1  1.312461  0  0.668992  0.957338  0  2.411373  0
Zn  Zn1  1  0.05353246  0.80395646  0.04737883  1  1.311932  0  0.669932  0.958298  0  2.376324  0
Zn  Zn2  1  0.03036246  0.97895646  0.86130370  1  1.314181  0  0.668179  0.969122  0  2.332564  0
Zn  Zn3  1  0.86836460  0.98815515  0.06611199  1  1.308657  0  0.66341  0.950727  0  2.399876  0
Zn  Zn4  1  0.45331419  0.38286367  0.44575193  1  1.301577  0  0.668185  0.949073  0  2.369523  0
Zn  Zn5  1  0.45914773  0.57354853  0.44625732  1  1.31324  0  0.679404  0.969459  0  2.346017  0
Zn  Zn6  1  0.64349683  0.38563446  0.46941738  1  1.321952  0  0.68361  0.983303  0  2.324911  0
Zn  Zn7  1  0.43125569  0.40191542  0.63559126  1  1.322003  0  0.6802  0.98107  0  2.374017  0
H  H8  1  0.99475053  0.48018887  0.62635672  1  0.369072  0  0.272634  0.24619  0  1.03166  0
H  H9  1  0.05189231  0.53542794  0.63668330  1  0.430422  0  0.279424  0.280932  0  0.9809  0
H  H10  1  0.94883082  0.59719800  0.50345800  1  0.062216  0  0.110193  0.102608  0  0.991128  0
H  H11  1  0.93203894  0.65935836  0.57650575  1  0.07503  0  0.102493  0.086938  0  1.004675  0
H  H12  1  0.16748841  0.53609347  0.46051123  1  0.500755  0  0.299424  0.260214  0  1.006094  0
H  H13  1  0.23046603  0.70010725  0.37624014  1  0.101434  0  0.123995  0.090811  0  0.95037  0
H  H14  1  0.21349280  0.63119601  0.24419991  1  0.068244  0  0.099992  0.106223  0  0.97732  0
H  H15  1  0.32838472  0.65077547  0.21083760  1  0.022578  0  0.096392  0.096473  0  0.971116  0
H  H16  1  0.24577849  0.81446357  0.21507006  1  0.049935  0  0.105853  0.12513  0  0.96169  0
H  H17  1  0.12834151  0.79484997  0.27828151  1  0.135245  0  0.109952  0.137861  0  1.004034  0
H  H18  1  0.55809669  0.95890567  0.48109554  1  0.398436  0  0.290874  0.272741  0  0.96216  0
H  H19  1  0.49745225  0.06999979  0.47179413  1  0.399558  0  0.294319  0.278073  0  0.948863  0
H  H20  1  0.56785008  0.93597823  0.63059143  1  0.06464  0  0.113992  0.10215  0  0.96501  0
H  H21  1  0.62437412  0.02240113  0.54410844  1  0.044702  0  0.105921  0.090119  0  0.966369  0
H  H22  1  0.36494840  0.08157367  0.61550332  1  0.469402  0  0.310006  0.264581  0  0.97584  0
H  H23  1  0.31282231  0.17142733  0.75742258  1  0.096402  0  0.123527  0.097007  0  0.939501  0
H  H24  1  0.21351478  0.18012471  0.63759421  1  0.03839  0  0.10216  0.102733  0  0.972327  0
H  H25  1  0.19716013  0.29404444  0.63447601  1  0.055542  0  0.099805  0.101699  0  0.980816  0
H  H26  1  0.05807881  0.25178176  0.75991703  1  0.025123  0  0.106718  0.123241  0  0.960943  0
H  H27  1  0.13688588  0.24447501  0.81427861  1  0.066019  0  0.109023  0.128997  0  0.961778  0
H  H28  1  0.57554487  0.42714649  0.97766436  1  0.451321  0  0.283003  0.284102  0  0.986725  0
H  H29  1  0.48872518  0.48933295  0.05167033  1  0.392914  0  0.285516  0.26627  0  0.975623  0
H  H30  1  0.68537881  0.49697186  0.93804830  1  0.098943  0  0.111046  0.102219  0  0.979021  0
H  H31  1  0.59216094  0.57470041  0.00554599  1  0.041626  0  0.106464  0.088878  0  0.96639  0
H  H32  1  0.61632206  0.36378100  0.14674147  1  0.496736  0  0.300747  0.25763  0  0.992605  0
H  H33  1  0.77565757  0.36992706  0.19305367  1  0.10962  0  0.127529  0.103052  0  0.954899  0
H  H34  1  0.72405604  0.19871453  0.21996518  1  0.033018  0  0.097098  0.099437  0  0.977049  0
H  H35  1  0.80556246  0.19209867  0.27088767  1  0.029136  0  0.09819  0.099169  0  0.973226  0
H  H36  1  0.92363842  0.24252541  0.11608463  1  0.062348  0  0.10666  0.12525  0  0.957772  0
H  H37  1  0.83447511  0.27612117  0.06124525  1  0.101154  0  0.110238  0.129319  0  0.964933  0
H  H38  1  0.99103476  0.93878535  0.51422755  1  0.385981  0  0.289007  0.273748  0  0.964898  0
H  H39  1  0.04617543  0.85486886  0.46060291  1  0.435792  0  0.282014  0.279786  0  0.988847  0
H  H40  1  0.92456566  0.84536594  0.65585718  1  0.036122  0  0.1166  0.106848  0  0.946691  0
H  H41  1  0.92529406  0.79256108  0.58171425  1  0.060517  0  0.102724  0.083623  0  1.01268  0
H  H42  1  0.14744289  0.77975936  0.57937548  1  0.48174  0  0.305087  0.263955  0  0.979363  0
H  H43  1  0.15781687  0.59468612  0.72472593  1  0.122563  0  0.129956  0.103369  0  0.956289  0
H  H44  1  0.22583907  0.75482049  0.69803106  1  0.060958  0  0.095345  0.093555  0  0.977971  0
H  H45  1  0.26217998  0.64018217  0.77284111  1  0.008652  0  0.100092  0.103567  0  0.974729  0
H  H46  1  0.08965295  0.64942794  0.87144795  1  0.069102  0  0.111343  0.132643  0  0.951221  0
H  H47  1  0.04334073  0.75051235  0.78754517  1  0.051893  0  0.108893  0.126146  0  0.977911  0
H  H48  1  0.46919792  0.86425617  0.58233519  1  0.443378  0  0.276031  0.259969  0  1.029772  0
H  H49  1  0.45240360  0.75972830  0.63124267  1  0.404503  0  0.291803  0.277468  0  0.958056  0
H  H50  1  0.62824630  0.80978761  0.58126880  1  0.06409  0  0.114117  0.097466  0  0.983475  0
H  H51  1  0.59608024  0.71138433  0.66809257  1  0.056284  0  0.112667  0.098822  0  0.958856  0
H  H52  1  0.57886767  0.73459475  0.46658120  1  0.493223  0  0.304998  0.262353  0  0.98837  0
H  H53  1  0.77747275  0.58848205  0.42176983  1  0.102756  0  0.12434  0.091053  0  0.965368  0
H  H54  1  0.68989389  0.74625886  0.27211653  1  0.026986  0  0.101018  0.103616  0  0.963413  0
H  H55  1  0.80169399  0.65097982  0.25182130  1  0.073382  0  0.107857  0.11493  0  0.956648  0
H  H56  1  0.87004650  0.70258963  0.32794510  1  0.05748  0  0.108433  0.127246  0  0.958665  0
H  H57  1  0.76021863  0.80110975  0.34128309  1  0.075724  0  0.099262  0.11249  0  0.984106  0
H  H58  1  0.94632295  0.41682285  0.57276471  1  0.393922  0  0.289479  0.274047  0  0.968748  0
H  H59  1  0.85125020  0.50873343  0.54733670  1  0.449578  0  0.279231  0.275794  0  1.018974  0
H  H60  1  0.87636987  0.41943905  0.72681626  1  0.03575  0  0.108878  0.088409  0  0.977495  0
H  H61  1  0.78710294  0.52523635  0.69081758  1  0.111744  0  0.111705  0.104532  0  0.982477  0
H  H62  1  0.79044642  0.35646561  0.63489933  1  0.494156  0  0.299708  0.258436  0  1.003431  0
H  H63  1  0.61339852  0.31942957  0.80086891  1  0.087775  0  0.12422  0.093417  0  0.957182  0
H  H64  1  0.80042486  0.17230685  0.71693712  1  0.061729  0  0.09868  0.103451  0  0.978659  0
H  H65  1  0.68369594  0.14961291  0.77728696  1  0.040844  0  0.102416  0.106098  0  0.961525  0
H  H66  1  0.66666094  0.16891068  0.92167159  1  0.046901  0  0.106877  0.125145  0  0.959422  0
H  H67  1  0.75817628  0.22639426  0.86331727  1  0.097539  0  0.110201  0.129964  0  0.976696  0
C  C68  1  0.98865523  0.61025435  0.53445361  1  0.292944  0  -0.074664  -0.116054  0  3.977659  0
C  C69  1  0.06050023  0.66184776  0.45430348  1  1.389114  0  0.236342  0.503774  0  4.093088  0
C  C70  1  0.23853276  0.63897489  0.35849244  1  0.332721  0  0.020652  0.027975  0  3.853609  0
C  C71  1  0.24886786  0.66966659  0.25347280  1  0.002608  0  -0.153751  -0.151137  0  3.8717  0
C  C72  1  0.20020067  0.77547349  0.22237657  1  -0.030594  0  -0.164833  -0.305387  0  3.930609  0
C  C73  1  0.17239329  0.81335861  0.13532041  1  1.531763  0  0.22881  0.671108  0  4.104797  0
C  C74  1  0.33376796  0.56520716  0.37484638  1  1.567652  0  0.230181  0.598143  0  4.119227  0
C  C75  1  0.55316681  0.00600124  0.58079619  1  0.288088  0  -0.068587  -0.111045  0  3.980837  0
C  C76  1  0.48416942  0.07699533  0.63792959  1  1.400308  0  0.229448  0.498188  0  4.114267  0
C  C77  1  0.31903902  0.18691512  0.68428976  1  0.357382  0  0.018702  0.030567  0  3.835265  0
C  C78  1  0.21406598  0.22030740  0.67616271  1  -0.001485  0  -0.147376  -0.154001  0  3.871552  0
C  C79  1  0.13074461  0.21293474  0.77128172  1  0.001969  0  -0.158072  -0.289655  0  3.914743  0
C  C80  1  0.12814040  0.11329585  0.82667921  1  1.566491  0  0.225336  0.662687  0  4.108351  0
C  C81  1  0.36445847  0.26784262  0.62797220  1  1.575815  0  0.230849  0.604562  0  4.136796  0
C  C82  1  0.63005210  0.49973657  0.00813420  1  0.27839  0  -0.069792  -0.101483  0  3.974073  0
C  C83  1  0.68967850  0.46019941  0.07490063  1  1.394849  0  0.223566  0.487898  0  4.137019  0
C  C84  1  0.72132690  0.33411598  0.21331008  1  0.386358  0  0.017537  0.021045  0  3.879161  0
C  C85  1  0.77690515  0.23071590  0.21163244  1  0.025467  0  -0.15296  -0.163463  0  3.913792  0
C  C86  1  0.86274776  0.22489874  0.11891350  1  -0.052786  0  -0.158966  -0.285824  0  3.914814  0
C  C87  1  0.90314643  0.12977511  0.10135109  1  1.555059  0  0.225817  0.663625  0  4.116907  0
C  C88  1  0.65330037  0.33867076  0.31293974  1  1.562772  0  0.23709  0.617884  0  4.087829  0
C  C89  1  0.97339414  0.80993099  0.59960120  1  0.323157  0  -0.070617  -0.112494  0  4.004725  0
C  C90  1  0.03982699  0.71749539  0.64430887  1  1.4111  0  0.231561  0.489591  0  4.118929  0
C  C91  1  0.19551843  0.64866253  0.67913781  1  0.348272  0  0.017938  0.021845  0  3.876551  0
C  C92  1  0.20387065  0.69084215  0.74177078  1  0.00503  0  -0.152016  -0.162665  0  3.90154  0
C  C93  1  0.10305920  0.71424285  0.81891077  1  -0.003523  0  -0.158712  -0.288861  0  3.906078  0
C  C94  1  0.09480460  0.77903354  0.86698748  1  1.548304  0  0.232098  0.674355  0  4.094845  0
C  C95  1  0.29873617  0.59725051  0.62233549  1  1.586254  0  0.231023  0.607382  0  4.119088  0
C  C96  1  0.59809835  0.75423599  0.59606930  1  0.30887  0  -0.065287  -0.10399  0  3.987968  0
C  C97  1  0.67818758  0.69217271  0.53148766  1  1.403153  0  0.234538  0.486496  0  4.134787  0
C  C98  1  0.71354799  0.63815708  0.39838228  1  0.360261  0  0.01986  0.026926  0  3.854039  0
C  C99  1  0.75278915  0.69779811  0.29790002  1  -0.00171  0  -0.14843  -0.161866  0  3.885848  0
C  C100  1  0.81071721  0.75232042  0.29779052  1  -0.0355  0  -0.160047  -0.283724  0  3.910308  0
C  C101  1  0.85982485  0.80802037  0.20136227  1  1.555157  0  0.229622  0.668253  0  4.100702  0
C  C102  1  0.65428382  0.58090243  0.40620853  1  1.576477  0  0.237973  0.612365  0  4.106465  0
C  C103  1  0.82273355  0.45150330  0.68856881  1  0.251908  0  -0.069271  -0.108244  0  3.974967  0
C  C104  1  0.74189345  0.40245038  0.74699676  1  1.414736  0  0.227212  0.488125  0  4.143181  0
C  C105  1  0.67342810  0.29668350  0.73959560  1  0.387572  0  0.019224  0.025709  0  3.862389  0
C  C106  1  0.72714664  0.19054796  0.77061423  1  -0.003921  0  -0.152975  -0.160856  0  3.895349  0
C  C107  1  0.73820902  0.16913256  0.86483342  1  -0.046972  0  -0.158439  -0.288986  0  3.911881  0
C  C108  1  0.81796458  0.08116338  0.89399297  1  1.571092  0  0.226997  0.665647  0  4.107025  0
C  C109  1  0.62437211  0.32180775  0.66790188  1  1.589206  0  0.239742  0.617617  0  4.099366  0
N  N110  1  0.04083071  0.52096685  0.58840998  1  -1.116512  0  -0.643705  -0.614478  0  3.235782  0
N  N111  1  0.15386752  0.60513721  0.42259015  1  -1.266322  0  -0.425349  -0.376963  0  3.559252  0
N  N112  1  0.50905659  0.00583206  0.51965364  1  -1.119219  0  -0.62863  -0.606573  0  3.240315  0
N  N113  1  0.38520206  0.10458172  0.65028168  1  -1.221602  0  -0.427944  -0.388574  0  3.539779  0
N  N114  1  0.56139160  0.44877571  0.03308262  1  -1.16117  0  -0.634217  -0.611984  0  3.249412  0
N  N115  1  0.66932978  0.38410493  0.14615567  1  -1.27278  0  -0.429628  -0.375758  0  3.586059  0
N  N116  1  0.03086523  0.86953472  0.52075539  1  -1.141356  0  -0.636395  -0.613465  0  3.248351  0
N  N117  1  0.13277352  0.71868632  0.62458705  1  -1.236515  0  -0.426848  -0.373504  0  3.574428  0
N  N118  1  0.50124105  0.79534903  0.58178390  1  -1.174944  0  -0.63292  -0.606419  0  3.273741  0
N  N119  1  0.65068494  0.69458017  0.46449813  1  -1.262911  0  -0.421105  -0.368146  0  3.583474  0
N  N120  1  0.87063939  0.44396379  0.59207853  1  -1.147628  0  -0.637262  -0.609596  0  3.265135  0
N  N121  1  0.74078086  0.35103808  0.70204394  1  -1.259305  0  -0.425296  -0.372094  0  3.585326  0
O  O122  1  0.01150690  0.94110681  0.99574325  1  -1.228575  0  -0.570135  -1.030841  0  2.527327  0
O  O123  1  0.03335830  0.74887423  0.42142991  1  -1.162062  0  -0.317784  -0.523361  0  2.111292  0
O  O124  1  0.14412324  0.76246158  0.11780392  1  -1.181687  0  -0.321022  -0.55961  0  2.304635  0
O  O125  1  0.17436037  0.89709984  0.08799054  1  -1.180837  0  -0.328582  -0.564495  0  2.318344  0
O  O126  1  0.40792074  0.59407804  0.34765739  1  -1.179396  0  -0.330922  -0.56728  0  2.285284  0
O  O127  1  0.33364269  0.48018932  0.41426943  1  -1.167049  0  -0.305922  -0.522027  0  2.293867  0
O  O128  1  0.51742765  0.10890504  0.66904492  1  -1.131146  0  -0.320869  -0.505915  0  2.039462  0
O  O129  1  0.10692975  0.07077140  0.79251648  1  -1.186129  0  -0.329142  -0.573947  0  2.287741  0
O  O130  1  0.14554642  0.08082445  0.90374141  1  -1.171031  0  -0.320194  -0.553353  0  2.306541  0
O  O131  1  0.35015335  0.32166560  0.67302144  1  -1.177584  0  -0.316476  -0.547005  0  2.323702  0
O  O132  1  0.40679091  0.27728568  0.54006852  1  -1.172626  0  -0.320861  -0.551091  0  2.348514  0
O  O133  1  0.75133439  0.49515820  0.06257870  1  -1.156953  0  -0.349356  -0.538554  0  2.040221  0
O  O134  1  0.84166939  0.10312758  0.09555411  1  -1.181132  0  -0.325912  -0.563255  0  2.301315  0
O  O135  1  0.99461067  0.08404851  0.09292661  1  -1.184855  0  -0.325348  -0.563211  0  2.302849  0
O  O136  1  0.69605800  0.32755386  0.36787647  1  -1.178757  0  -0.323821  -0.565  0  2.315949  0
O  O137  1  0.56132079  0.35036727  0.33369052  1  -1.175112  0  -0.314308  -0.536319  0  2.328469  0
O  O138  1  0.00880017  0.64928309  0.69704891  1  -1.175196  0  -0.324177  -0.526339  0  2.095646  0
O  O139  1  0.08601517  0.86479984  0.81951031  1  -1.186182  0  -0.327609  -0.573334  0  2.296067  0
O  O140  1  0.09705547  0.74283749  0.95057805  1  -1.169723  0  -0.319666  -0.551768  0  2.301822  0
O  O141  1  0.34325328  0.52011865  0.67026233  1  -1.1858  0  -0.325107  -0.56567  0  2.329782  0
O  O142  1  0.33249629  0.63421663  0.53468543  1  -1.186771  0  -0.313445  -0.540198  0  2.307517  0
O  O143  1  0.76135816  0.64580680  0.54158443  1  -1.18094  0  -0.311195  -0.527546  0  2.178758  0
O  O144  1  0.81848887  0.89707056  0.18113269  1  -1.162533  0  -0.323314  -0.556266  0  2.291427  0
O  O145  1  0.93863927  0.76245347  0.14857255  1  -1.184337  0  -0.321945  -0.560745  0  2.290656  0
O  O146  1  0.69774273  0.49405458  0.41349833  1  -1.166589  0  -0.307766  -0.538955  0  2.309204  0
O  O147  1  0.56427764  0.62705466  0.40684188  1  -1.169309  0  -0.316711  -0.544632  0  2.319203  0
O  O148  1  0.68641748  0.40950005  0.82740886  1  -1.189058  0  -0.331414  -0.543504  0  2.102639  0
O  O149  1  0.90489781  0.06253945  0.83297245  1  -1.177843  0  -0.322858  -0.559789  0  2.28076  0
O  O150  1  0.79348057  0.03465736  0.97998459  1  -1.192952  0  -0.332959  -0.571833  0  2.306806  0
O  O151  1  0.52994335  0.34088790  0.69972519  1  -1.179362  0  -0.309409  -0.537228  0  2.331969  0
O  O152  1  0.68143916  0.32267507  0.58342983  1  -1.174719  0  -0.313752  -0.543938  0  2.299912  0
O  O153  1  0.49814942  0.43702626  0.49974645  1  -1.224331  0  -0.574125  -1.03785  0  2.532725  0
