# generated using pymatgen
data_HoCu2H8C8N6ClO12
_symmetry_space_group_name_H-M   'P 1'
_cell_length_a   6.30326679
_cell_length_b   11.31559388
_cell_length_c   12.24552647
_cell_angle_alpha   102.34999298
_cell_angle_beta   89.99566910
_cell_angle_gamma   90.05109937
_symmetry_Int_Tables_number   1
_chemical_formula_structural   HoCu2H8C8N6ClO12
_chemical_formula_sum   'Ho2 Cu4 H16 C16 N12 Cl2 O24'
_cell_volume   853.20295974
_cell_formula_units_Z   2
loop_
 _symmetry_equiv_pos_site_id
 _symmetry_equiv_pos_as_xyz
  1  'x, y, z'
loop_
 _atom_site_type_symbol
 _atom_site_label
 _atom_site_symmetry_multiplicity
 _atom_site_fract_x
 _atom_site_fract_y
 _atom_site_fract_z
 _atom_site_occupancy
 _atom_site_hle17_ddec_charge
 _atom_site_hle17_ddec_spin_density
 _atom_site_hle17_ddec_sum_bond_order
 _atom_site_hle17_magmom
 _atom_site_hse06_10hf_ddec_charge
 _atom_site_hse06_10hf_ddec_spin_density
 _atom_site_hse06_10hf_ddec_sum_bond_order
 _atom_site_hse06_10hf_magmom
 _atom_site_hse06_ddec_charge
 _atom_site_hse06_ddec_spin_density
 _atom_site_hse06_ddec_sum_bond_order
 _atom_site_hse06_magmom
 _atom_site_pbe_cm5_charge
 _atom_site_pbe_ddec_charge
 _atom_site_pbe_ddec_spin_density
 _atom_site_pbe_ddec_sum_bond_order
 _atom_site_pbe_magmom
Ho  Ho0  1  0.48502870  0.74999344  0.99987587  1  2.340285  -3e-05  1.607052  0.0  2.27845  -3.4e-05  1.928885  0.0  2.321437  -0.0  1.888006  0.0  1.54207  2.24704  -8.9e-05  1.957922  0.0
Ho  Ho1  1  0.51461837  0.24980290  0.99995324  1  2.340458  -0.000885  1.60749  -0.001  2.27865  -0.001001  1.929273  -0.002  2.321653  -0.000569  1.888384  -0.001  1.542488  2.247275  -0.001456  1.958232  -0.002
Cu  Cu2  1  0.13526537  0.88660132  0.57972922  1  0.721415  -0.676893  2.078133  -0.501  0.693806  -0.781224  2.503847  -0.628  0.784828  -0.857557  2.430804  -0.721  0.741106  0.638075  -0.713028  2.554212  -0.557
Cu  Cu3  1  0.12916132  0.61338765  0.41851078  1  0.722909  -0.660318  2.079549  -0.488  0.694703  -0.776441  2.502563  -0.625  0.78548  -0.854814  2.430221  -0.719  0.747147  0.639976  -0.709147  2.552792  -0.554
Cu  Cu4  1  0.86972354  0.11313381  0.41966793  1  0.721693  0.681262  2.08699  0.472  0.692631  0.806414  2.510455  0.616  0.781795  0.910408  2.439476  0.716  0.748122  0.638856  0.690756  2.559292  0.52
Cu  Cu5  1  0.86719245  0.38638541  0.58050413  1  0.722649  -0.67356  2.078279  -0.499  0.695454  -0.780003  2.501502  -0.627  0.785737  -0.856705  2.429482  -0.721  0.744028  0.639675  -0.711396  2.55202  -0.556
H  H6  1  0.28648314  0.53239147  0.04010561  1  0.43908  0.000105  0.857474  0.0  0.408974  3.7e-05  0.920521  0.0  0.420646  2.6e-05  0.903202  0.0  0.304615  0.400698  2.9e-05  0.932797  0.0
H  H7  1  0.28659294  0.96760181  0.95974167  1  0.439524  0.000115  0.856885  0.0  0.409323  4.6e-05  0.919972  0.0  0.420893  3.2e-05  0.90281  0.0  0.30467  0.401152  4.7e-05  0.932101  0.0
H  H8  1  0.71304839  0.46751302  0.95970612  1  0.439168  9.3e-05  0.857373  0.0  0.409036  2.8e-05  0.920347  0.0  0.420615  2.1e-05  0.903155  0.0  0.304629  0.400805  2.2e-05  0.932578  0.0
H  H9  1  0.71327032  0.03251199  0.04021849  1  0.439135  -0.000114  0.857442  0.0  0.409005  -5e-05  0.920502  0.0  0.420654  -3e-05  0.903229  0.0  0.304422  0.400716  -6.1e-05  0.932781  0.0
H  H10  1  0.21543233  0.54433456  0.91931096  1  0.432533  -1.4e-05  0.87049  0.0  0.402756  -1.2e-05  0.932846  0.0  0.414465  -6e-06  0.915744  0.0  0.298425  0.39444  -2.5e-05  0.94495  0.0
H  H11  1  0.21580768  0.95556096  0.08055152  1  0.432507  -4e-06  0.870242  0.0  0.402852  -1e-05  0.932322  0.0  0.414565  3e-06  0.915219  0.0  0.2986  0.394554  -3.2e-05  0.944416  0.0
H  H12  1  0.78411830  0.45565411  0.08051516  1  0.432456  9e-06  0.870351  0.0  0.4029  1.3e-05  0.932274  0.0  0.414612  2e-06  0.915168  0.0  0.298535  0.394608  3e-05  0.944346  0.0
H  H13  1  0.78457260  0.04433990  0.91939745  1  0.432559  -2.8e-05  0.870423  0.0  0.402791  -2.2e-05  0.932769  0.0  0.414476  -1.1e-05  0.915677  0.0  0.298301  0.394498  -4.3e-05  0.944853  0.0
H  H14  1  0.30129733  0.78272460  0.77826817  1  0.450349  1.2e-05  0.837557  0.0  0.41884  -5.1e-05  0.901561  0.0  0.429005  2.2e-05  0.886882  0.0  0.306368  0.411791  -0.00015  0.911784  0.0
H  H15  1  0.30055910  0.71729796  0.22145396  1  0.450411  2.8e-05  0.837812  0.0  0.418898  -3.8e-05  0.901876  0.0  0.429134  2.8e-05  0.887099  0.0  0.306556  0.411768  -0.000129  0.91225  0.0
H  H16  1  0.69959396  0.21737637  0.22159617  1  0.450762  4e-05  0.83722  0.0  0.419371  8.1e-05  0.901072  0.0  0.429639  5e-06  0.886251  0.0  0.306664  0.412174  0.000167  0.91151  0.0
H  H17  1  0.69889327  0.28283375  0.77857611  1  0.450804  -1.5e-05  0.837314  0.0  0.419082  -7.3e-05  0.901687  0.0  0.429334  5e-06  0.886869  0.0  0.306385  0.411872  -0.000174  0.912184  0.0
H  H18  1  0.27522953  0.63944503  0.77148156  1  0.456309  4.2e-05  0.805028  0.0  0.43169  2.7e-05  0.863816  0.0  0.43916  2e-05  0.853044  0.0  0.323768  0.426444  2.6e-05  0.871411  0.0
H  H19  1  0.27584222  0.86070140  0.22823987  1  0.455525  3.2e-05  0.805799  0.0  0.430898  1.6e-05  0.865071  0.0  0.438411  1.5e-05  0.854223  0.0  0.323476  0.42557  8e-06  0.872803  0.0
H  H20  1  0.72446087  0.36074054  0.22834746  1  0.45563  6e-06  0.805977  0.0  0.430975  1.2e-05  0.864961  0.0  0.438458  7e-06  0.854153  0.0  0.323475  0.42574  2.3e-05  0.872545  0.0
H  H21  1  0.72437168  0.13943575  0.77155939  1  0.4554  1.2e-05  0.804763  0.0  0.430812  7e-06  0.864705  0.0  0.43832  0.0  0.853863  0.0  0.323517  0.425459  4e-06  0.872468  0.0
C  C22  1  0.78611103  0.85357322  0.80698399  1  0.712491  0.00013  3.874627  0.0  0.664906  -0.000321  4.169341  -0.001  0.699921  -0.000295  4.156435  -0.001  0.238422  0.641003  -0.00027  4.177611  0.0
C  C23  1  0.78559654  0.64647063  0.19318739  1  0.713112  -0.000467  3.875713  -0.001  0.665531  -0.000319  4.170342  0.0  0.700649  -0.000217  4.157267  0.0  0.23886  0.641487  -0.000421  4.178552  -0.001
C  C24  1  0.21460225  0.14618003  0.19349999  1  0.710785  0.000148  3.877068  0.0  0.663056  -0.000189  4.171756  0.0  0.698299  -0.000186  4.158532  0.0  0.237587  0.638954  -0.000163  4.1804  0.0
C  C25  1  0.21400976  0.35371495  0.80682295  1  0.712211  0.000656  3.877334  0.001  0.665047  0.000231  4.17123  0.0  0.700222  0.000111  4.158274  0.0  0.238481  0.640828  0.000361  4.179566  0.0
C  C26  1  0.84175942  0.74421038  0.71984044  1  0.034168  -0.000761  3.643261  -0.002  0.032414  -0.002035  3.891999  -0.003  0.036047  -0.001492  3.901243  -0.002  0.114666  0.029417  -0.002782  3.886682  -0.004
C  C27  1  0.84250732  0.75587095  0.28001542  1  0.034705  -0.00084  3.644285  -0.002  0.033133  -0.001647  3.892334  -0.003  0.037144  -0.000269  3.901644  -0.002  0.115706  0.030028  -0.002756  3.886701  -0.004
C  C28  1  0.15816388  0.25561470  0.28037604  1  0.035221  -0.002  3.64049  -0.003  0.033322  -0.000943  3.889185  -0.001  0.036784  -0.001038  3.898454  -0.001  0.11535  0.030635  -0.000909  3.883909  -0.001
C  C29  1  0.15733698  0.24435043  0.71991095  1  0.035367  0.001974  3.641776  0.003  0.033978  0.000476  3.889793  0.001  0.037364  -1.8e-05  3.899399  0.001  0.115923  0.031379  0.000647  3.883831  0.001
C  C30  1  0.79884778  0.62044835  0.71019658  1  -0.004099  -0.000335  3.676009  -0.003  -0.00588  -0.001543  3.92554  -0.004  -0.00398  -6e-06  3.936601  -0.001  0.101186  -0.007398  -0.002758  3.918859  -0.005
C  C31  1  0.79959512  0.87955408  0.28986998  1  -0.006366  -0.003401  3.673952  -0.004  -0.008599  -0.002507  3.924212  -0.003  -0.006882  -0.002344  3.935043  -0.003  0.101223  -0.00962  -0.002874  3.917417  -0.003
C  C32  1  0.20088511  0.37933687  0.28995111  1  -0.005344  0.002345  3.674714  0.0  -0.007076  0.000464  3.924351  -0.001  -0.004955  0.001985  3.935347  0.001  0.101247  -0.008595  -0.000698  3.917543  -0.003
C  C33  1  0.20001748  0.12058921  0.71036016  1  -0.004948  0.000113  3.671412  0.0  -0.007619  0.000298  3.921618  0.0  -0.006201  0.000333  3.933082  0.001  0.102223  -0.008205  0.000125  3.914164  0.0
C  C34  1  0.71348786  0.53779952  0.77844102  1  0.687743  0.005905  3.831774  0.009  0.639447  0.00052  4.130523  0.003  0.678066  0.000437  4.120777  0.002  0.239826  0.612893  0.000482  4.137535  0.003
C  C35  1  0.71413584  0.96245191  0.22191990  1  0.68783  -0.005462  3.83118  -0.009  0.63977  -0.000965  4.130787  -0.004  0.678414  -0.000795  4.121286  -0.003  0.240426  0.613179  -0.001106  4.137249  -0.004
C  C36  1  0.28601976  0.46197981  0.22160989  1  0.686434  0.006077  3.830769  0.009  0.638057  0.000827  4.130416  0.003  0.676757  0.000682  4.120919  0.002  0.239135  0.611434  0.000797  4.137207  0.003
C  C37  1  0.28650971  0.03788336  0.77829332  1  0.687961  0.006326  3.832804  0.009  0.63997  0.001032  4.130883  0.003  0.678546  0.000841  4.121367  0.002  0.239377  0.613394  0.000953  4.13768  0.004
N  N38  1  0.95316514  0.75313074  0.62742600  1  -0.211593  -0.027066  3.233443  -0.036  -0.188642  -0.02337  3.541417  -0.033  -0.204184  -0.017652  3.55929  -0.026  -0.234848  -0.177602  -0.028695  3.530461  -0.038
N  N39  1  0.95576473  0.74720434  0.37190986  1  -0.207443  -0.017259  3.24354  -0.022  -0.184386  -0.021626  3.552986  -0.029  -0.202194  -0.01852  3.572106  -0.027  -0.237634  -0.172613  -0.022123  3.541582  -0.029
N  N40  1  0.04573836  0.24706852  0.37262806  1  -0.207027  0.013635  3.249608  0.016  -0.184418  0.016802  3.558782  0.022  -0.201119  0.017402  3.577326  0.024  -0.23583  -0.173748  0.013617  3.548356  0.017
N  N41  1  0.04528212  0.25296525  0.62761443  1  -0.210244  -0.02839  3.241792  -0.038  -0.187607  -0.021804  3.550933  -0.031  -0.203824  -0.018345  3.569045  -0.028  -0.235862  -0.175753  -0.025992  3.539472  -0.035
N  N42  1  0.97638825  0.64306292  0.56387262  1  -0.0441  -0.06778  3.297394  -0.086  -0.023063  -0.05654  3.629957  -0.076  -0.041601  -0.046472  3.655232  -0.065  -0.141423  -0.013826  -0.060962  3.616338  -0.079
N  N43  1  0.98001244  0.85750638  0.43530717  1  -0.04179  -0.068634  3.302347  -0.087  -0.02143  -0.05569  3.636289  -0.076  -0.039621  -0.046722  3.66137  -0.067  -0.140168  -0.012192  -0.058192  3.623054  -0.076
N  N44  1  0.02170123  0.35690924  0.43581858  1  -0.040738  -0.068732  3.30161  -0.087  -0.01976  -0.05769  3.634404  -0.078  -0.037987  -0.04848  3.659644  -0.069  -0.140111  -0.010456  -0.060588  3.621046  -0.079
N  N45  1  0.02169763  0.14278407  0.56452257  1  -0.039578  0.074175  3.313612  0.089  -0.018978  0.058791  3.646736  0.076  -0.03773  0.052228  3.671859  0.07  -0.140403  -0.008744  0.058286  3.632817  0.074
N  N46  1  0.88350069  0.56264709  0.61143551  1  -0.205054  -0.058424  3.342978  -0.077  -0.189123  -0.044795  3.678563  -0.063  -0.206978  -0.036135  3.694142  -0.054  -0.255942  -0.178501  -0.049016  3.670242  -0.066
N  N47  1  0.88602645  0.93722531  0.38827263  1  -0.198449  0.055496  3.355086  0.068  -0.182598  0.040856  3.690705  0.054  -0.200681  0.036722  3.706313  0.051  -0.254196  -0.171942  0.039493  3.682786  0.051
N  N48  1  0.11534231  0.43727569  0.38847726  1  -0.203415  -0.057424  3.340366  -0.075  -0.187597  -0.044109  3.675368  -0.061  -0.206193  -0.036322  3.691334  -0.054  -0.255539  -0.177045  -0.047495  3.667164  -0.063
N  N49  1  0.11440944  0.06280293  0.61183699  1  -0.202271  -0.053546  3.350929  -0.07  -0.185308  -0.040028  3.686477  -0.056  -0.20333  -0.033949  3.701853  -0.051  -0.254111  -0.174747  -0.042571  3.678386  -0.057
Cl  Cl50  1  0.41098684  0.74981818  0.50039317  1  -0.477331  -0.120262  0.952813  -0.147  -0.515395  -0.052188  1.238103  -0.069  -0.550974  -0.033209  1.211516  -0.047  -0.329927  -0.491768  -0.06348  1.257007  -0.08
Cl  Cl51  1  0.58884366  0.24905595  0.50024784  1  -0.485438  -0.004145  0.949882  -0.009  -0.518288  -0.000431  1.232179  -0.002  -0.552941  0.00061  1.205979  -0.001  -0.331777  -0.494367  -0.000745  1.250717  -0.002
O  O52  1  0.70180225  0.83415698  0.89595523  1  -0.765275  -0.002706  2.094097  -0.004  -0.724688  -0.001117  2.350054  -0.002  -0.748899  -0.000411  2.335469  -0.001  -0.431638  -0.706994  -0.002272  2.359416  -0.003
O  O53  1  0.70134197  0.66595881  0.10431405  1  -0.762794  -0.000425  2.093394  0.0  -0.722477  -6.7e-05  2.3492  0.0  -0.746824  8.4e-05  2.334653  0.0  -0.429504  -0.704336  -5.6e-05  2.358382  0.0
O  O54  1  0.29862550  0.16564108  0.10449977  1  -0.763498  -0.003596  2.092678  -0.005  -0.722906  -0.001493  2.348668  -0.002  -0.747248  -0.000631  2.33412  -0.001  -0.43054  -0.705264  -0.00279  2.358086  -0.004
O  O55  1  0.29844832  0.33416444  0.89568076  1  -0.76301  -0.000307  2.092734  -0.001  -0.723251  -0.00015  2.348456  0.0  -0.7477  -3.7e-05  2.333987  0.0  -0.429629  -0.704886  -0.000519  2.357545  -0.001
O  O56  1  0.82586097  0.95676295  0.78865531  1  -0.603202  -0.003223  1.919809  -0.005  -0.560769  -0.000741  2.138285  -0.002  -0.586371  6.7e-05  2.12874  0.0  -0.302116  -0.542745  -0.001768  2.144533  -0.003
O  O57  1  0.82456773  0.54334257  0.21179111  1  -0.605141  0.004347  1.92012  0.005  -0.562599  0.001899  2.138789  0.002  -0.588082  0.001151  2.128903  0.001  -0.302153  -0.54438  0.002621  2.145097  0.003
O  O58  1  0.17558210  0.04301467  0.21209348  1  -0.604168  -0.003806  1.922512  -0.005  -0.561211  -0.001614  2.141144  -0.002  -0.586601  -0.000938  2.131162  -0.001  -0.301824  -0.543467  -0.002417  2.147789  -0.003
O  O59  1  0.17481490  0.45688966  0.78843482  1  -0.603554  -0.002994  1.921604  -0.004  -0.561481  -0.000782  2.140253  -0.002  -0.587254  1.3e-05  2.130626  0.0  -0.301801  -0.543088  -0.001723  2.146483  -0.003
O  O60  1  0.65100571  0.57323346  0.87744105  1  -0.667865  -0.014829  2.100043  -0.019  -0.628042  -0.008678  2.343282  -0.012  -0.654027  -0.004211  2.331446  -0.006  -0.327305  -0.609619  -0.013099  2.351065  -0.018
O  O61  1  0.65075642  0.92723815  0.12306837  1  -0.665349  0.014341  2.097535  0.018  -0.62684  0.008145  2.341293  0.011  -0.652986  0.004312  2.329529  0.006  -0.325623  -0.608032  0.011596  2.348641  0.015
O  O62  1  0.34895413  0.42664505  0.12272212  1  -0.663723  -0.015359  2.098565  -0.02  -0.62533  -0.008827  2.342297  -0.012  -0.651775  -0.004268  2.330728  -0.006  -0.325363  -0.606772  -0.01329  2.349841  -0.018
O  O63  1  0.34819175  0.07332507  0.87746874  1  -0.668207  -0.013296  2.099764  -0.018  -0.628499  -0.007854  2.342775  -0.011  -0.654345  -0.004037  2.330851  -0.006  -0.327938  -0.61052  -0.01153  2.35068  -0.016
O  O64  1  0.71564377  0.42464595  0.72865075  1  -0.553222  -0.106053  2.056538  -0.145  -0.519873  -0.069485  2.322018  -0.103  -0.567656  -0.051867  2.31851  -0.081  -0.297024  -0.490242  -0.078339  2.326195  -0.111
O  O65  1  0.71765550  0.07551660  0.27190936  1  -0.549262  0.109447  2.057443  0.14  -0.518747  0.071075  2.324402  0.1  -0.567401  0.054866  2.321764  0.08  -0.295868  -0.487723  0.076699  2.327279  0.105
O  O66  1  0.28279937  0.57518065  0.27125411  1  -0.549584  -0.105524  2.055371  -0.144  -0.517628  -0.069133  2.321483  -0.102  -0.566481  -0.051702  2.318608  -0.081  -0.29567  -0.487351  -0.078421  2.324991  -0.111
O  O67  1  0.28604574  0.92496565  0.72805367  1  -0.552752  -0.106916  2.058019  -0.145  -0.519065  -0.070045  2.323321  -0.104  -0.567044  -0.05216  2.31985  -0.082  -0.296059  -0.489063  -0.079122  2.326994  -0.112
O  O68  1  0.24971722  0.59323545  0.99558860  1  -0.908486  4.5e-05  1.857374  0.0  -0.870779  6e-05  2.040236  0.0  -0.889427  5.2e-05  2.005315  0.0  -0.663995  -0.857389  2.7e-05  2.064794  0.0
O  O69  1  0.25001907  0.90671780  0.00433108  1  -0.908379  -0.000201  1.857399  0.0  -0.870469  -8.2e-05  2.040436  0.0  -0.889183  -2.7e-05  2.005698  0.0  -0.663896  -0.857114  -0.00027  2.064802  0.0
O  O70  1  0.74975246  0.40671282  0.00432951  1  -0.908413  -0.00012  1.857926  0.0  -0.870711  -2.7e-05  2.040952  0.0  -0.88936  1.9e-05  2.006172  0.0  -0.664091  -0.857403  -0.000145  2.065382  0.0
O  O71  1  0.74994249  0.09331224  0.99558864  1  -0.909265  -0.000128  1.857824  0.0  -0.871584  -4.3e-05  2.040765  0.0  -0.890267  -8e-06  2.005957  0.0  -0.664198  -0.858187  -0.000117  2.065298  0.0
O  O72  1  0.31020891  0.71713797  0.81977638  1  -0.912054  -0.000343  1.868458  -0.001  -0.871705  -0.000176  2.060501  0.0  -0.890036  -3.8e-05  2.032973  0.0  -0.627737  -0.858812  -0.00031  2.079577  0.0
O  O73  1  0.31025377  0.78291830  0.18001694  1  -0.912379  -0.000275  1.869348  0.0  -0.872096  -0.00011  2.061852  0.0  -0.890514  3e-06  2.034292  0.0  -0.628544  -0.859175  -0.00023  2.081025  0.0
O  O74  1  0.68962104  0.28297636  0.18014795  1  -0.91254  0.00048  1.868434  0.0  -0.872291  0.00026  2.060309  0.0  -0.890625  0.000128  2.032629  0.0  -0.628332  -0.859352  0.000358  2.079516  0.0
O  O75  1  0.68937617  0.21705670  0.81987573  1  -0.912238  -0.000503  1.867795  -0.001  -0.871721  -0.000295  2.061236  0.0  -0.890048  -0.000148  2.033554  0.0  -0.628387  -0.858783  -0.000426  2.080522  -0.001
