# generated using pymatgen
data_ZnH6C7(BrN2)2
_symmetry_space_group_name_H-M   'P 1'
_cell_length_a   5.57463064
_cell_length_b   11.87988112
_cell_length_c   15.16087248
_cell_angle_alpha   90.00005721
_cell_angle_beta   89.99989036
_cell_angle_gamma   90.00009728
_symmetry_Int_Tables_number   1
_chemical_formula_structural   ZnH6C7(BrN2)2
_chemical_formula_sum   'Zn4 H24 C28 Br8 N16'
_cell_volume   1004.04317175
_cell_formula_units_Z   4
loop_
 _symmetry_equiv_pos_site_id
 _symmetry_equiv_pos_as_xyz
  1  'x, y, z'
loop_
 _atom_site_type_symbol
 _atom_site_label
 _atom_site_symmetry_multiplicity
 _atom_site_fract_x
 _atom_site_fract_y
 _atom_site_fract_z
 _atom_site_occupancy
 _atom_site_hle17_bader_spin_density
 _atom_site_hle17_ddec_charge
 _atom_site_hle17_ddec_spin_density
 _atom_site_hle17_ddec_sum_bond_order
 _atom_site_hle17_magmom
 _atom_site_hse06_10hf_bader_spin_density
 _atom_site_hse06_10hf_ddec_charge
 _atom_site_hse06_10hf_ddec_spin_density
 _atom_site_hse06_10hf_ddec_sum_bond_order
 _atom_site_hse06_10hf_magmom
 _atom_site_hse06_bader_spin_density
 _atom_site_hse06_ddec_charge
 _atom_site_hse06_ddec_spin_density
 _atom_site_hse06_ddec_sum_bond_order
 _atom_site_hse06_magmom
 _atom_site_pbe_bader_spin_density
 _atom_site_pbe_cm5_charge
 _atom_site_pbe_ddec_charge
 _atom_site_pbe_ddec_spin_density
 _atom_site_pbe_ddec_sum_bond_order
 _atom_site_pbe_magmom
Zn  Zn0  1  0.13023163  0.53664020  0.14962414  1  0  0.776863  0  2.14722  0  0  0.600184  0  2.637702  0  0  0.64227  0  2.592082  0  0  0.518716  0.57143  0  2.668569  0
Zn  Zn1  1  0.36976714  0.46335873  0.64962295  1  0  0.776847  0  2.147224  0  0  0.600163  0  2.637754  0  0  0.642226  0  2.592123  0  0  0.518711  0.571409  0  2.668616  0
Zn  Zn2  1  0.86976440  0.03664151  0.35037598  1  0  0.776834  0  2.147256  0  0  0.600168  0  2.63776  0  0  0.642236  0  2.592136  0  0  0.518705  0.571412  0  2.66861  0
Zn  Zn3  1  0.63023142  0.96335724  0.85037734  1  0  0.776881  0  2.14714  0  0  0.600214  0  2.63765  0  0  0.642277  0  2.592023  0  0  0.518727  0.571453  0  2.668516  0
H  H4  1  0.00752206  0.29649416  0.70802929  1  0  0.083801  0  0.936145  0  0  0.091507  0  1.000666  0  0  0.093897  0  0.998409  0  0  0.110974  0.089666  0  1.00244  0
H  H5  1  0.49247999  0.70350484  0.20803035  1  0  0.083879  0  0.93609  0  0  0.091542  0  1.00065  0  0  0.09393  0  0.998393  0  0  0.11098  0.089697  0  1.002422  0
H  H6  1  0.99247769  0.79649288  0.79196955  1  0  0.083823  0  0.936123  0  0  0.091537  0  1.00063  0  0  0.093926  0  0.998374  0  0  0.11099  0.089695  0  1.002407  0
H  H7  1  0.50752023  0.20350663  0.29196990  1  0  0.083833  0  0.936097  0  0  0.091554  0  1.000605  0  0  0.093942  0  0.99835  0  0  0.110987  0.089709  0  1.002382  0
H  H8  1  0.68240413  0.28387569  0.81869484  1  0  0.121666  0  0.983063  0  0  0.126748  0  1.052289  0  0  0.130757  0  1.050116  0  0  0.101583  0.123851  0  1.054035  0
H  H9  1  0.81759723  0.71612386  0.31869537  1  0  0.121658  0  0.982997  0  0  0.126737  0  1.052228  0  0  0.130745  0  1.050057  0  0  0.101577  0.123842  0  1.053971  0
H  H10  1  0.31759557  0.78387793  0.68130399  1  0  0.121647  0  0.98299  0  0  0.126733  0  1.052217  0  0  0.130742  0  1.050044  0  0  0.10156  0.123836  0  1.053967  0
H  H11  1  0.18240124  0.21612272  0.18130489  1  0  0.121659  0  0.983019  0  0  0.126747  0  1.05223  0  0  0.130756  0  1.050058  0  0  0.101587  0.123851  0  1.05398  0
H  H12  1  0.96151346  0.59237307  0.93497841  1  0  0.12002  0  0.971877  0  0  0.125391  0  1.042752  0  0  0.129007  0  1.041209  0  0  0.10036  0.122718  0  1.044129  0
H  H13  1  0.53848730  0.40762747  0.43497955  1  0  0.120002  0  0.971809  0  0  0.125387  0  1.042694  0  0  0.129003  0  1.041151  0  0  0.100361  0.122711  0  1.044074  0
H  H14  1  0.03848376  0.09237335  0.56502159  1  0  0.119994  0  0.971903  0  0  0.125369  0  1.042775  0  0  0.128985  0  1.041232  0  0  0.100363  0.122696  0  1.044149  0
H  H15  1  0.46151545  0.90762715  0.06502020  1  0  0.119991  0  0.971892  0  0  0.125369  0  1.042768  0  0  0.128985  0  1.041227  0  0  0.100351  0.122695  0  1.044144  0
H  H16  1  0.26944819  0.59327508  0.81581005  1  0  0.080145  0  0.96815  0  0  0.085628  0  1.039381  0  0  0.088286  0  1.036893  0  0  0.100653  0.083602  0  1.041282  0
H  H17  1  0.23055330  0.40672574  0.31581238  1  0  0.080148  0  0.96824  0  0  0.085633  0  1.039465  0  0  0.088292  0  1.036977  0  0  0.100652  0.083606  0  1.041374  0
H  H18  1  0.73055083  0.09327439  0.68418995  1  0  0.080167  0  0.9682  0  0  0.08565  0  1.039431  0  0  0.088307  0  1.036944  0  0  0.100671  0.083624  0  1.041334  0
H  H19  1  0.76944765  0.90672667  0.18418869  1  0  0.08013  0  0.968176  0  0  0.085614  0  1.039406  0  0  0.088272  0  1.036919  0  0  0.100634  0.083587  0  1.041309  0
H  H20  1  0.60248223  0.60005002  0.00916836  1  0  0.114051  0  0.966602  0  0  0.119968  0  1.035899  0  0  0.123111  0  1.031751  0  0  0.126332  0.117556  0  1.039024  0
H  H21  1  0.89751895  0.39994997  0.50916777  1  0  0.114077  0  0.966587  0  0  0.119997  0  1.035873  0  0  0.123136  0  1.031737  0  0  0.126336  0.117587  0  1.038996  0
H  H22  1  0.39751762  0.10004945  0.49083115  1  0  0.114071  0  0.966591  0  0  0.119992  0  1.035875  0  0  0.123137  0  1.031723  0  0  0.126333  0.117582  0  1.038994  0
H  H23  1  0.10247938  0.89994991  0.99083247  1  0  0.114061  0  0.966628  0  0  0.120003  0  1.035881  0  0  0.123146  0  1.031734  0  0  0.126339  0.117593  0  1.039002  0
H  H24  1  0.49422629  0.25749495  0.93715509  1  0  0.105524  0  1.006009  0  0  0.103124  0  1.087793  0  0  0.107468  0  1.082184  0  0  0.123236  0.099925  0  1.091871  0
H  H25  1  0.00577816  0.74250434  0.43715521  1  0  0.105438  0  1.006058  0  0  0.103053  0  1.087851  0  0  0.107396  0  1.082243  0  0  0.123208  0.099858  0  1.091925  0
H  H26  1  0.50577512  0.75749636  0.56284503  1  0  0.105492  0  1.006042  0  0  0.103097  0  1.087832  0  0  0.107441  0  1.082223  0  0  0.123223  0.099899  0  1.091911  0
H  H27  1  0.99422399  0.24250455  0.06284507  1  0  0.105489  0  1.006035  0  0  0.103096  0  1.087825  0  0  0.107439  0  1.082217  0  0  0.123236  0.099898  0  1.091905  0
C  C28  1  0.99113340  0.35998765  0.75956426  1  0  0.156858  0  3.694345  0  0  0.123961  0  3.94399  0  0  0.13269  0  3.96119  0  0  0.04988  0.118312  0  3.932432  0
C  C29  1  0.50886827  0.64001267  0.25956561  1  0  0.156813  0  3.694305  0  0  0.123934  0  3.943934  0  0  0.132665  0  3.961138  0  0  0.04987  0.118295  0  3.932362  0
C  C30  1  0.00886658  0.85998720  0.74043463  1  0  0.156911  0  3.694308  0  0  0.124012  0  3.943938  0  0  0.132744  0  3.961138  0  0  0.049926  0.118371  0  3.932377  0
C  C31  1  0.49112992  0.14001354  0.24043393  1  0  0.156851  0  3.694272  0  0  0.123925  0  3.943922  0  0  0.132655  0  3.961127  0  0  0.049875  0.118285  0  3.932361  0
C  C32  1  0.81059570  0.35305741  0.82221111  1  0  -0.184175  0  3.684071  0  0  -0.202145  0  3.934325  0  0  -0.211693  0  3.954168  0  0  -0.080366  -0.196126  0  3.921296  0
C  C33  1  0.68940565  0.64694130  0.32221168  1  0  -0.184234  0  3.68409  0  0  -0.202193  0  3.934372  0  0  -0.211741  0  3.954216  0  0  -0.080386  -0.196181  0  3.921343  0
C  C34  1  0.18940425  0.85305871  0.67778778  1  0  -0.184202  0  3.684039  0  0  -0.202159  0  3.934342  0  0  -0.211706  0  3.954185  0  0  -0.080386  -0.19615  0  3.921322  0
C  C35  1  0.31059437  0.14694110  0.17778853  1  0  -0.184202  0  3.684115  0  0  -0.202153  0  3.934442  0  0  -0.2117  0  3.954287  0  0  -0.080381  -0.196146  0  3.921424  0
C  C36  1  0.79715085  0.43720055  0.88645415  1  0  0.249166  0  3.725036  0  0  0.237205  0  3.969103  0  0  0.248749  0  3.98815  0  0  0.122226  0.229675  0  3.956185  0
C  C37  1  0.70285196  0.56280077  0.38645464  1  0  0.249266  0  3.724944  0  0  0.237291  0  3.969039  0  0  0.248836  0  3.988086  0  0  0.122245  0.22976  0  3.956124  0
C  C38  1  0.20284941  0.93720009  0.61354546  1  0  0.249292  0  3.724961  0  0  0.237248  0  3.969135  0  0  0.248793  0  3.988184  0  0  0.12226  0.229727  0  3.956206  0
C  C39  1  0.29714955  0.06280048  0.11354484  1  0  0.249299  0  3.724924  0  0  0.237233  0  3.96912  0  0  0.248776  0  3.98817  0  0  0.122241  0.229706  0  3.956201  0
C  C40  1  0.96372707  0.52513163  0.88592447  1  0  -0.178924  0  3.67344  0  0  -0.199469  0  3.927181  0  0  -0.208704  0  3.947289  0  0  -0.083908  -0.193672  0  3.913952  0
C  C41  1  0.53627215  0.47486717  0.38592502  1  0  -0.178833  0  3.673234  0  0  -0.199406  0  3.927006  0  0  -0.208641  0  3.947113  0  0  -0.083889  -0.193603  0  3.913777  0
C  C42  1  0.03626991  0.02513281  0.61407547  1  0  -0.178879  0  3.673445  0  0  -0.199397  0  3.927189  0  0  -0.208631  0  3.947298  0  0  -0.083878  -0.193598  0  3.913956  0
C  C43  1  0.46372725  0.97486860  0.11407479  1  0  -0.178882  0  3.673357  0  0  -0.199395  0  3.927104  0  0  -0.20863  0  3.947214  0  0  -0.083862  -0.193591  0  3.91387  0
C  C44  1  0.13665182  0.52580634  0.81996880  1  0  0.149105  0  3.676847  0  0  0.116396  0  3.926325  0  0  0.124836  0  3.943526  0  0  0.04413  0.111019  0  3.914667  0
C  C45  1  0.36334607  0.47419365  0.31996977  1  0  0.149034  0  3.677007  0  0  0.11632  0  3.926495  0  0  0.12476  0  3.9437  0  0  0.044092  0.110936  0  3.914851  0
C  C46  1  0.86334696  0.02580659  0.68003049  1  0  0.149044  0  3.677025  0  0  0.116329  0  3.92651  0  0  0.124769  0  3.943713  0  0  0.044061  0.110943  0  3.914861  0
C  C47  1  0.63665334  0.97419446  0.18003003  1  0  0.149106  0  3.676893  0  0  0.116389  0  3.926359  0  0  0.12483  0  3.943562  0  0  0.044123  0.111005  0  3.914706  0
C  C48  1  0.53097780  0.51505167  0.00586313  1  0  0.187218  0  3.592826  0  0  0.119935  0  3.859655  0  0  0.134826  0  3.870169  0  0  0.165623  0.110268  0  3.852489  0
C  C49  1  0.96902520  0.48494832  0.50586256  1  0  0.18718  0  3.592959  0  0  0.119902  0  3.859774  0  0  0.134791  0  3.870286  0  0  0.165636  0.110241  0  3.852611  0
C  C50  1  0.46902354  0.01505284  0.49413763  1  0  0.187129  0  3.592963  0  0  0.119839  0  3.859796  0  0  0.134734  0  3.870312  0  0  0.165592  0.11017  0  3.852628  0
C  C51  1  0.03097524  0.98494821  0.99413841  1  0  0.187121  0  3.593009  0  0  0.119826  0  3.859829  0  0  0.134714  0  3.870343  0  0  0.165589  0.110161  0  3.852661  0
C  C52  1  0.47139435  0.33911784  0.96850030  1  0  0.171391  0  3.611993  0  0  0.114567  0  3.888411  0  0  0.126435  0  3.897987  0  0  0.15736  0.106851  0  3.881889  0
C  C53  1  0.02860815  0.66088234  0.46849901  1  0  0.171589  0  3.611856  0  0  0.114741  0  3.888282  0  0  0.12661  0  3.897857  0  0  0.157416  0.107027  0  3.881758  0
C  C54  1  0.52860735  0.83911753  0.53150056  1  0  0.171468  0  3.612026  0  0  0.114628  0  3.888438  0  0  0.126499  0  3.898016  0  0  0.157397  0.10691  0  3.88192  0
C  C55  1  0.97139371  0.16088333  0.03149989  1  0  0.171515  0  3.611975  0  0  0.114663  0  3.888416  0  0  0.126531  0  3.897995  0  0  0.157389  0.106949  0  3.881898  0
Br  Br56  1  0.85459138  0.39026362  0.18277231  1  0  -0.509057  0  1.060422  0  0  -0.452859  0  1.37784  0  0  -0.470714  0  1.357788  0  0  -0.266963  -0.440063  0  1.39152  0
Br  Br57  1  0.64540711  0.60973575  0.68277206  1  0  -0.509041  0  1.060414  0  0  -0.452849  0  1.377833  0  0  -0.470692  0  1.357771  0  0  -0.266949  -0.440042  0  1.39151  0
Br  Br58  1  0.14540593  0.89026675  0.31722478  1  0  -0.509048  0  1.060409  0  0  -0.452853  0  1.377823  0  0  -0.4707  0  1.357764  0  0  -0.266974  -0.440061  0  1.391492  0
Br  Br59  1  0.35459556  0.10973493  0.81722861  1  0  -0.509052  0  1.060411  0  0  -0.45285  0  1.377808  0  0  -0.470695  0  1.357749  0  0  -0.26697  -0.440051  0  1.391488  0
Br  Br60  1  0.98566096  0.71309850  0.09742704  1  0  -0.533879  0  1.002526  0  0  -0.475869  0  1.31296  0  0  -0.493101  0  1.288001  0  0  -0.276767  -0.46333  0  1.330029  0
Br  Br61  1  0.51434515  0.28690329  0.59742333  1  0  -0.533852  0  1.002504  0  0  -0.475852  0  1.312952  0  0  -0.493076  0  1.287989  0  0  -0.276751  -0.463307  0  1.330023  0
Br  Br62  1  0.01434468  0.21309751  0.40257322  1  0  -0.53386  0  1.002525  0  0  -0.475856  0  1.312962  0  0  -0.493083  0  1.288001  0  0  -0.276759  -0.463315  0  1.330029  0
Br  Br63  1  0.48565636  0.78690090  0.90257748  1  0  -0.533847  0  1.002452  0  0  -0.475856  0  1.312914  0  0  -0.493082  0  1.287952  0  0  -0.276749  -0.463311  0  1.329984  0
N  N64  1  0.15106893  0.44484590  0.75783513  1  0  -0.319041  0  3.327405  0  0  -0.231915  0  3.598037  0  0  -0.252227  0  3.614231  0  0  -0.33764  -0.218354  0  3.58681  0
N  N65  1  0.34893107  0.55515232  0.25783750  1  0  -0.31903  0  3.327299  0  0  -0.231883  0  3.597898  0  0  -0.252193  0  3.614079  0  0  -0.3376  -0.218306  0  3.586637  0
N  N66  1  0.84892956  0.94484613  0.74216382  1  0  -0.319138  0  3.327462  0  0  -0.232014  0  3.598101  0  0  -0.252327  0  3.61429  0  0  -0.337654  -0.218442  0  3.586861  0
N  N67  1  0.65106861  0.05515332  0.24216330  1  0  -0.31909  0  3.327269  0  0  -0.23195  0  3.597902  0  0  -0.252256  0  3.614076  0  0  -0.337633  -0.218374  0  3.58665  0
N  N68  1  0.61229000  0.43205652  0.95050660  1  0  -0.120428  0  3.520675  0  0  -0.029432  0  3.734013  0  0  -0.047082  0  3.755442  0  0  -0.208542  -0.017783  0  3.719272  0
N  N69  1  0.88771427  0.56794151  0.45050696  1  0  -0.120511  0  3.520682  0  0  -0.029513  0  3.734035  0  0  -0.047165  0  3.755465  0  0  -0.208536  -0.017869  0  3.719301  0
N  N70  1  0.38771025  0.93205865  0.54949367  1  0  -0.120459  0  3.520686  0  0  -0.029418  0  3.734021  0  0  -0.047073  0  3.755459  0  0  -0.208521  -0.017772  0  3.719281  0
N  N71  1  0.11228905  0.06794183  0.04949318  1  0  -0.120449  0  3.520679  0  0  -0.029411  0  3.734042  0  0  -0.047063  0  3.755476  0  0  -0.208531  -0.017766  0  3.719307  0
N  N72  1  0.35219804  0.47415138  0.05296601  1  0  -0.244992  0  3.264916  0  0  -0.169143  0  3.561442  0  0  -0.186177  0  3.576031  0  0  -0.243849  -0.157842  0  3.551552  0
N  N73  1  0.14780303  0.52584742  0.55296503  1  0  -0.24497  0  3.26499  0  0  -0.169092  0  3.561469  0  0  -0.186121  0  3.576051  0  0  -0.243819  -0.1578  0  3.551592  0
N  N74  1  0.64780495  0.97415339  0.44703445  1  0  -0.244951  0  3.264938  0  0  -0.169107  0  3.561465  0  0  -0.186143  0  3.576053  0  0  -0.243817  -0.157803  0  3.551571  0
N  N75  1  0.85219575  0.02584716  0.94703492  1  0  -0.244899  0  3.264982  0  0  -0.169051  0  3.561498  0  0  -0.18607  0  3.576071  0  0  -0.243792  -0.15775  0  3.551607  0
N  N76  1  0.31491113  0.36303240  0.02999830  1  0  -0.225328  0  2.971556  0  0  -0.203792  0  3.252824  0  0  -0.212645  0  3.269052  0  0  -0.223054  -0.197726  0  3.24183  0
N  N77  1  0.18509186  0.63696638  0.52999739  1  0  -0.225447  0  2.971518  0  0  -0.20391  0  3.252786  0  0  -0.212764  0  3.269011  0  0  -0.223137  -0.197843  0  3.241794  0
N  N78  1  0.68508967  0.86303194  0.47000273  1  0  -0.225376  0  2.971591  0  0  -0.203829  0  3.252862  0  0  -0.212681  0  3.26909  0  0  -0.223119  -0.197764  0  3.241864  0
N  N79  1  0.81491091  0.13696612  0.97000265  1  0  -0.225473  0  2.971685  0  0  -0.203925  0  3.252969  0  0  -0.212783  0  3.269195  0  0  -0.223137  -0.197859  0  3.241973  0
