# generated using pymatgen
data_KH6C12S(N2O)2
_symmetry_space_group_name_H-M   'P 1'
_cell_length_a   6.49560747
_cell_length_b   9.61690987
_cell_length_c   9.76963976
_cell_angle_alpha   108.26576598
_cell_angle_beta   90.00024839
_cell_angle_gamma   89.99959862
_symmetry_Int_Tables_number   1
_chemical_formula_structural   KH6C12S(N2O)2
_chemical_formula_sum   'K2 H12 C24 S2 N8 O4'
_cell_volume   579.53608405
_cell_formula_units_Z   2
loop_
 _symmetry_equiv_pos_site_id
 _symmetry_equiv_pos_as_xyz
  1  'x, y, z'
loop_
 _atom_site_type_symbol
 _atom_site_label
 _atom_site_symmetry_multiplicity
 _atom_site_fract_x
 _atom_site_fract_y
 _atom_site_fract_z
 _atom_site_occupancy
 _atom_site_pbe_bader_spin_density
 _atom_site_pbe_cm5_charge
 _atom_site_pbe_ddec_charge
 _atom_site_pbe_ddec_spin_density
 _atom_site_pbe_ddec_sum_bond_order
 _atom_site_pbe_magmom
K  K0  1  0.75000006  0.35170695  0.36859564  1  0  0.804245  0.826635  0  0.654193  0
K  K1  1  0.24999842  0.64830211  0.63140502  1  0  0.804289  0.826628  0  0.654246  0
H  H2  1  0.75000191  0.36423607  0.00815843  1  0  0.112006  0.078869  0  1.020615  0
H  H3  1  0.24999965  0.63575764  0.99184974  1  0  0.112004  0.078867  0  1.020582  0
H  H4  1  0.75000035  0.23176895  0.74610675  1  0  0.106891  0.113278  0  1.022207  0
H  H5  1  0.24999966  0.76823790  0.25390141  1  0  0.106898  0.1133  0  1.02215  0
H  H6  1  0.75000100  0.95374343  0.66443820  1  0  0.112189  0.104953  0  1.018743  0
H  H7  1  0.24999902  0.04625578  0.33555838  1  0  0.112194  0.104975  0  1.018854  0
H  H8  1  0.75000118  0.61491000  0.18158836  1  0  0.117274  0.118894  0  0.987419  0
H  H9  1  0.24999884  0.38508920  0.81841231  1  0  0.117248  0.118844  0  0.987369  0
H  H10  1  0.75000121  0.77263337  0.44004096  1  0  0.115441  0.117905  0  1.016512  0
H  H11  1  0.24999727  0.22737130  0.55996141  1  0  0.115431  0.117917  0  1.016473  0
H  H12  1  0.75000049  0.04676276  0.49338477  1  0  0.111032  0.06918  0  1.018403  0
H  H13  1  0.24999799  0.95324193  0.50661350  1  0  0.111026  0.069151  0  1.018422  0
C  C14  1  0.75000216  0.02921642  0.02987085  1  0  0.116084  0.129291  0  3.985561  0
C  C15  1  0.24999939  0.97077731  0.97012914  1  0  0.11617  0.129423  0  3.985581  0
C  C16  1  0.75000255  0.24455323  0.97107129  1  0  0.049259  0.111489  0  3.964845  0
C  C17  1  0.24999900  0.75544267  0.02893449  1  0  0.049417  0.11172  0  3.96481  0
C  C18  1  0.75000092  0.16996780  0.82228225  1  0  -0.086564  -0.13445  0  3.98104  0
C  C19  1  0.25000064  0.83003141  0.17771637  1  0  -0.086575  -0.134511  0  3.981345  0
C  C20  1  0.75000155  0.01878834  0.77776623  1  0  -0.058381  -0.0421  0  3.916127  0
C  C21  1  0.25000001  0.98120976  0.22223615  1  0  -0.058392  -0.04211  0  3.915927  0
C  C22  1  0.75000175  0.94465339  0.88124101  1  0  -0.00782  -0.033905  0  3.990859  0
C  C23  1  0.24999827  0.05534474  0.11875113  1  0  -0.00779  -0.03389  0  3.990661  0
C  C24  1  0.75000088  0.78865840  0.84094015  1  0  0.114019  0.145988  0  4.098761  0
C  C25  1  0.25000068  0.21133862  0.15905984  1  0  0.114061  0.146143  0  4.098592  0
C  C26  1  0.75000007  0.71494579  0.95015150  1  0  0.117261  0.144398  0  4.072489  0
C  C27  1  0.24999841  0.28505342  0.04984815  1  0  0.117282  0.144342  0  4.072508  0
C  C28  1  0.75000151  0.79946180  0.10021269  1  0  -0.005505  -0.037335  0  3.986019  0
C  C29  1  0.24999851  0.20053632  0.89978456  1  0  -0.005558  -0.037348  0  3.986169  0
C  C30  1  0.75000067  0.73367169  0.21022334  1  0  -0.051996  -0.025651  0  3.886485  0
C  C31  1  0.24999935  0.26632532  0.78977665  1  0  -0.051892  -0.025499  0  3.88642  0
C  C32  1  0.75000222  0.82105107  0.35292184  1  0  -0.079096  -0.128329  0  3.966709  0
C  C33  1  0.24999780  0.17894814  0.64707473  1  0  -0.079106  -0.128376  0  3.966552  0
C  C34  1  0.75000153  0.97357994  0.38223780  1  0  0.040512  0.078694  0  4.028613  0
C  C35  1  0.24999849  0.02641817  0.61776048  1  0  0.040592  0.078813  0  4.028352  0
C  C36  1  0.75000084  0.95563721  0.14069339  1  0  0.117432  0.133508  0  3.974892  0
C  C37  1  0.25000072  0.04435981  0.85930455  1  0  0.117296  0.133229  0  3.975178  0
S  S38  1  0.74999873  0.53171509  0.72064360  1  0  0.576584  1.196907  0  6.088638  0
S  S39  1  0.25000283  0.46829068  0.27935911  1  0  0.576606  1.197122  0  6.08855  0
N  N40  1  0.75000154  0.17723723  0.07212106  1  0  -0.388079  -0.343448  0  3.40218  0
N  N41  1  0.24999848  0.82275650  0.92787688  1  0  -0.388257  -0.343682  0  3.402232  0
N  N42  1  0.74999937  0.69780860  0.70478527  1  0  -0.39171  -0.559424  0  3.109412  0
N  N43  1  0.25000065  0.30219061  0.29521233  1  0  -0.391812  -0.559664  0  3.109405  0
N  N44  1  0.75000065  0.56833143  0.89692276  1  0  -0.343507  -0.479232  0  3.045337  0
N  N45  1  0.25000091  0.43166777  0.10307688  1  0  -0.343511  -0.479252  0  3.045405  0
N  N46  1  0.75000138  0.03961704  0.28064124  1  0  -0.391862  -0.336834  0  3.415303  0
N  N47  1  0.24999864  0.96038217  0.71935431  1  0  -0.39189  -0.336772  0  3.415331  0
O  O48  1  0.56316344  0.45294262  0.65530133  1  0  -0.402835  -0.624607  0  2.174871  0
O  O49  1  0.06316868  0.54706614  0.34470380  1  0  -0.402874  -0.624721  0  2.174944  0
O  O50  1  0.43683042  0.54706425  0.34470171  1  0  -0.402825  -0.624647  0  2.175002  0
O  O51  1  0.93683134  0.45294182  0.65530061  1  0  -0.402906  -0.624678  0  2.174945  0
