# generated using pymatgen
data_RbMnH3(CO2)3
_symmetry_space_group_name_H-M   'P 1'
_cell_length_a   6.99278698
_cell_length_b   7.31057479
_cell_length_c   7.31024978
_cell_angle_alpha   78.28112542
_cell_angle_beta   85.26154917
_cell_angle_gamma   85.25589020
_symmetry_Int_Tables_number   1
_chemical_formula_structural   RbMnH3(CO2)3
_chemical_formula_sum   'Rb2 Mn2 H6 C6 O12'
_cell_volume   363.83591447
_cell_formula_units_Z   2
loop_
 _symmetry_equiv_pos_site_id
 _symmetry_equiv_pos_as_xyz
  1  'x, y, z'
loop_
 _atom_site_type_symbol
 _atom_site_label
 _atom_site_symmetry_multiplicity
 _atom_site_fract_x
 _atom_site_fract_y
 _atom_site_fract_z
 _atom_site_occupancy
 _atom_site_pbe_cm5_charge
 _atom_site_pbe_ddec_charge
 _atom_site_pbe_ddec_spin_density
 _atom_site_pbe_ddec_sum_bond_order
 _atom_site_pbe_magmom
Rb  Rb0  1  0.24997942  0.09655518  0.90345656  1  0.849932  0.862357  -0.002321  0.796717  0.001
Rb  Rb1  1  0.75001005  0.90343989  0.09655061  1  0.84984  0.862349  -0.00232  0.796595  0.001
Mn  Mn2  1  0.00000811  0.99999905  0.50000769  1  0.591685  1.047987  4.68527  2.309566  4.506
Mn  Mn3  1  0.49998934  0.49999831  0.99999482  1  0.591786  1.048081  4.685483  2.308387  4.506
H  H4  1  0.99925293  0.56895375  0.70822726  1  0.111839  0.006522  0.001877  1.006127  0.001
H  H5  1  0.50074573  0.29179370  0.43101162  1  0.111894  0.006573  0.001879  1.006245  0.001
H  H6  1  0.00073707  0.43103285  0.29176248  1  0.111879  0.006563  0.001876  1.006148  0.001
H  H7  1  0.49926468  0.70820834  0.56897459  1  0.111861  0.006556  0.00188  1.006217  0.001
H  H8  1  0.25000795  0.60509978  0.39489073  1  0.111427  0.004166  0.000272  1.005825  0.0
H  H9  1  0.74999303  0.39491344  0.60508848  1  0.111425  0.004125  0.000272  1.005772  0.0
C  C10  1  0.12360031  0.62381823  0.76022765  1  0.15875  0.509328  0.012688  4.23827  0.012
C  C11  1  0.37640958  0.23979266  0.37617742  1  0.158586  0.509153  0.012693  4.23799  0.012
C  C12  1  0.87639974  0.37616989  0.23978829  1  0.158707  0.50923  0.012677  4.238411  0.012
C  C13  1  0.62360674  0.76020805  0.62382363  1  0.158658  0.509095  0.012693  4.237972  0.012
C  C14  1  0.25002197  0.72565905  0.27435045  1  0.15402  0.517081  0.024438  4.224377  0.022
C  C15  1  0.74998082  0.27435002  0.72564589  1  0.154128  0.517208  0.024454  4.223857  0.022
O  O16  1  0.13667128  0.79975591  0.72235942  1  -0.360265  -0.572088  0.042745  2.389828  0.028
O  O17  1  0.36331684  0.27766426  0.20027965  1  -0.360017  -0.571712  0.042724  2.390503  0.028
O  O18  1  0.86330968  0.20025880  0.27766082  1  -0.36021  -0.571923  0.042729  2.390103  0.028
O  O19  1  0.63667798  0.72233643  0.79972866  1  -0.360011  -0.571635  0.042722  2.390368  0.028
O  O20  1  0.23898420  0.50357693  0.85170512  1  -0.365452  -0.56598  0.043373  2.382839  0.028
O  O21  1  0.26096297  0.14828853  0.49642652  1  -0.365578  -0.566204  0.043386  2.381593  0.028
O  O22  1  0.76101453  0.49640831  0.14828964  1  -0.365489  -0.566069  0.043367  2.3825  0.028
O  O23  1  0.73905995  0.85170104  0.50358997  1  -0.365598  -0.566152  0.04338  2.381634  0.028
O  O24  1  0.12028231  0.85711517  0.27732739  1  -0.398402  -0.593609  0.045439  2.42253  0.028
O  O25  1  0.37976060  0.72270813  0.14291509  1  -0.39845  -0.59365  0.045442  2.422684  0.028
O  O26  1  0.87973599  0.14289816  0.72267362  1  -0.398477  -0.593709  0.045437  2.422417  0.028
O  O27  1  0.62021352  0.27729942  0.85706479  1  -0.398467  -0.593642  0.045441  2.422417  0.028
