# generated using pymatgen
data_ZnH12C17(NO2)2
_symmetry_space_group_name_H-M   'P 1'
_cell_length_a   13.88957028
_cell_length_b   14.15422417
_cell_length_c   15.24569490
_cell_angle_alpha   87.14115010
_cell_angle_beta   88.92588590
_cell_angle_gamma   85.74985013
_symmetry_Int_Tables_number   1
_chemical_formula_structural   ZnH12C17(NO2)2
_chemical_formula_sum   'Zn2 H24 C34 N4 O8'
_cell_volume   2984.94078282
_cell_formula_units_Z   2
loop_
 _symmetry_equiv_pos_site_id
 _symmetry_equiv_pos_as_xyz
  1  'x, y, z'
loop_
 _atom_site_type_symbol
 _atom_site_label
 _atom_site_symmetry_multiplicity
 _atom_site_fract_x
 _atom_site_fract_y
 _atom_site_fract_z
 _atom_site_occupancy
 _atom_site_pbe_bader_charge
 _atom_site_pbe_bader_spin_density
 _atom_site_pbe_cm5_charge
 _atom_site_pbe_ddec_charge
 _atom_site_pbe_ddec_spin_density
 _atom_site_pbe_ddec_sum_bond_order
 _atom_site_pbe_magmom
Zn  Zn0  1  0.51287630  0.60342544  0.49558327  1  1.309248  0  0.680993  0.857318  0  2.345192  0
Zn  Zn1  1  0.49175194  0.39514759  0.51105783  1  1.308765  0  0.680376  0.858892  0  2.336578  0
H  H2  1  0.97906082  0.61003773  0.51292743  1  0.124216  0  0.117751  0.118558  0  0.961256  0
H  H3  1  0.02645299  0.39763876  0.48102967  1  0.103643  0  0.117417  0.119765  0  0.961306  0
H  H4  1  0.43496325  0.64882423  0.93967149  1  0.054849  0  0.099548  0.09822  0  1.007678  0
H  H5  1  0.44720171  0.35466829  0.06789544  1  0.036081  0  0.098655  0.096163  0  1.009476  0
H  H6  1  0.44326885  0.65313956  0.77616741  1  0.085463  0  0.102813  0.104976  0  1.001999  0
H  H7  1  0.45408369  0.34788920  0.23143716  1  0.105002  0  0.104627  0.109928  0  0.997102  0
H  H8  1  0.54877174  0.36046085  0.78363076  1  0.090477  0  0.105342  0.110747  0  0.997455  0
H  H9  1  0.53192522  0.63550044  0.22489230  1  0.085596  0  0.101375  0.103823  0  1.018639  0
H  H10  1  0.54515638  0.35587213  0.94712487  1  0.072734  0  0.099889  0.098195  0  1.009361  0
H  H11  1  0.52937148  0.64256551  0.06123170  1  0.080401  0  0.098115  0.095775  0  1.01084  0
H  H12  1  0.35393376  0.05580981  0.56675392  1  0.045995  0  0.107757  0.117521  0  1.011066  0
H  H13  1  0.58383113  0.94855946  0.37100259  1  0.047422  0  0.107247  0.117288  0  1.012176  0
H  H14  1  0.61273404  0.24956971  0.45851096  1  0.139276  0  0.122189  0.104781  0  1.012588  0
H  H15  1  0.45292359  0.74180775  0.60349645  1  0.151755  0  0.122008  0.1016  0  1.011629  0
H  H16  1  0.62956727  0.07778428  0.43424472  1  0.044764  0  0.105049  0.11476  0  1.011223  0
H  H17  1  0.42366816  0.91548302  0.61478537  1  0.072274  0  0.10465  0.11381  0  1.011925  0
H  H18  1  0.28241382  0.18601344  0.61712918  1  0.424331  0  0.320302  0.25851  0  0.931844  0
H  H19  1  0.31456863  0.28439039  0.72935553  1  0.019043  0  0.098867  0.097796  0  0.986039  0
H  H20  1  0.28143086  0.36942847  0.64159365  1  0.087117  0  0.102004  0.12063  0  0.994724  0
H  H21  1  0.40464941  0.33772130  0.66356916  1  0.09341  0  0.107474  0.12635  0  1.054234  0
H  H22  1  0.64588412  0.81856449  0.31169458  1  0.426195  0  0.319038  0.256187  0  0.934555  0
H  H23  1  0.76903660  0.70594221  0.35405388  1  0.044111  0  0.098734  0.098967  0  0.983823  0
H  H24  1  0.67955531  0.63263760  0.31671836  1  0.078839  0  0.100396  0.114657  0  0.997868  0
H  H25  1  0.69007672  0.65002929  0.43022354  1  0.114687  0  0.107971  0.129843  0  1.052199  0
C  C26  1  0.49987010  0.50826857  0.67173743  1  1.536597  0  0.21711  0.595346  0  4.163551  0
C  C27  1  0.50013583  0.48647405  0.33595485  1  1.554737  0  0.216518  0.592699  0  4.168213  0
C  C28  1  0.52070924  0.42077602  0.90998481  1  -0.028062  0  -0.094205  -0.139624  0  3.998916  0
C  C29  1  0.51134067  0.57809524  0.09820071  1  -0.047912  0  -0.094533  -0.137998  0  3.996965  0
C  C30  1  0.48958113  0.50191191  0.95548325  1  0.014107  0  -0.00472  0.073541  0  4.002034  0
C  C31  1  0.48881712  0.49884432  0.05246693  1  -0.094335  0  -0.005569  0.072875  0  4.001482  0
C  C32  1  0.41284242  0.09635455  0.54087558  1  -0.007958  0  -0.098072  -0.291357  0  3.93409  0
C  C33  1  0.55259819  0.90520843  0.42378369  1  -0.046686  0  -0.0965  -0.289293  0  3.930261  0
C  C34  1  0.40964743  0.19459092  0.55616062  1  0.986417  0  0.234589  0.384176  0  4.07128  0
C  C35  1  0.57063558  0.80532248  0.42348852  1  0.995595  0  0.234703  0.384631  0  4.063492  0
C  C36  1  0.55650684  0.20395049  0.48111573  1  0.367951  0  0.043473  0.113742  0  3.961722  0
C  C37  1  0.48050247  0.79055040  0.55313171  1  0.368215  0  0.043813  0.114971  0  3.963042  0
C  C38  1  0.56489071  0.10831638  0.46655777  1  0.059141  0  -0.109222  -0.229002  0  4.008014  0
C  C39  1  0.46301649  0.88724068  0.55834659  1  0.095259  0  -0.107035  -0.225403  0  4.003685  0
C  C40  1  0.49090390  0.05163485  0.49788146  1  -0.011675  0  0.007541  0.127666  0  4.028312  0
C  C41  1  0.50036741  0.94749945  0.49154232  1  0.013358  0  0.008717  0.130557  0  4.021755  0
C  C42  1  0.31731389  0.54249578  0.49928687  1  1.643284  0  0.217727  0.660916  0  4.253371  0
C  C43  1  0.68860771  0.46381962  0.50588559  1  1.671684  0  0.218657  0.664083  0  4.245915  0
C  C44  1  0.79299022  0.45538192  0.50074926  1  0.160179  0  -0.042449  -0.18408  0  3.944074  0
C  C45  1  0.21275534  0.55153393  0.49843394  1  0.160459  0  -0.037918  -0.174836  0  3.936417  0
C  C46  1  0.98119059  0.46264329  0.49220186  1  0.120986  0  -0.065323  -0.052013  0  4.061109  0
C  C47  1  0.02443078  0.54497488  0.50213149  1  0.033402  0  -0.061746  -0.042943  0  4.056443  0
C  C48  1  0.12496675  0.54976240  0.49957863  1  -0.403082  0  -0.04209  -0.025534  0  4.172447  0
C  C49  1  0.88064536  0.45788863  0.49600962  1  -0.492053  0  -0.041373  -0.02067  0  4.174852  0
C  C50  1  0.46145016  0.58565725  0.90586213  1  -0.033541  0  -0.093383  -0.139394  0  3.993016  0
C  C51  1  0.46765636  0.41601171  0.10183654  1  -0.050001  0  -0.093426  -0.137814  0  3.993691  0
C  C52  1  0.46508880  0.58827524  0.81447483  1  -0.01909  0  -0.085746  -0.087296  0  3.993843  0
C  C53  1  0.47066617  0.41190570  0.19311315  1  -0.044227  0  -0.084376  -0.087027  0  3.98818  0
C  C54  1  0.49624773  0.50699936  0.76995021  1  -0.019445  0  -0.020258  -0.036683  0  3.969047  0
C  C55  1  0.49474130  0.49080273  0.23784157  1  0.017955  0  -0.019446  -0.033162  0  3.96743  0
C  C56  1  0.52363266  0.42305446  0.81875590  1  -0.054214  0  -0.085835  -0.08916  0  3.99463  0
C  C57  1  0.51410310  0.57426445  0.18945233  1  -0.062694  0  -0.086894  -0.090737  0  3.995561  0
C  C58  1  0.33299709  0.31049799  0.66238662  1  0.281815  0  -0.141083  -0.215831  0  3.93899  0
C  C59  1  0.69491489  0.68462928  0.36467884  1  0.252601  0  -0.140141  -0.217097  0  3.934431  0
N  N60  1  0.48121388  0.24824005  0.52479054  1  -1.221405  0  -0.329553  -0.317165  0  3.399313  0
N  N61  1  0.53270312  0.74843005  0.48767607  1  -1.249737  0  -0.329335  -0.315139  0  3.402569  0
N  N62  1  0.33337221  0.23244011  0.60351850  1  -1.192611  0  -0.428957  -0.294557  0  3.560846  0
N  N63  1  0.62730973  0.76853806  0.35749222  1  -1.213043  0  -0.42992  -0.297373  0  3.553835  0
O  O64  1  0.48510652  0.58782625  0.62965276  1  -1.169456  0  -0.31322  -0.549561  0  2.341855  0
O  O65  1  0.48052611  0.40953423  0.37697072  1  -1.157217  0  -0.316756  -0.543061  0  2.311441  0
O  O66  1  0.51714660  0.42823463  0.63733868  1  -1.181086  0  -0.317085  -0.56063  0  2.387514  0
O  O67  1  0.52503098  0.56096290  0.37081294  1  -1.176923  0  -0.317009  -0.558138  0  2.386352  0
O  O68  1  0.36235581  0.61616419  0.48181385  1  -1.144801  0  -0.313998  -0.537348  0  2.233035  0
O  O69  1  0.64352150  0.39137828  0.49158101  1  -1.15623  0  -0.307618  -0.542846  0  2.274222  0
O  O70  1  0.35326625  0.45864485  0.51856419  1  -1.152505  0  -0.30755  -0.547568  0  2.316838  0
O  O71  1  0.65178190  0.54598433  0.52392576  1  -1.149445  0  -0.31109  -0.549921  0  2.312116  0
