# generated using pymatgen
data_CoH8C10(SN)2
_symmetry_space_group_name_H-M   'P 1'
_cell_length_a   7.54532012
_cell_length_b   7.54408667
_cell_length_c   11.35994651
_cell_angle_alpha   73.34903260
_cell_angle_beta   73.35121879
_cell_angle_gamma   84.75236026
_symmetry_Int_Tables_number   1
_chemical_formula_structural   CoH8C10(SN)2
_chemical_formula_sum   'Co2 H16 C20 S4 N4'
_cell_volume   593.52046669
_cell_formula_units_Z   2
loop_
 _symmetry_equiv_pos_site_id
 _symmetry_equiv_pos_as_xyz
  1  'x, y, z'
loop_
 _atom_site_type_symbol
 _atom_site_label
 _atom_site_symmetry_multiplicity
 _atom_site_fract_x
 _atom_site_fract_y
 _atom_site_fract_z
 _atom_site_occupancy
 _atom_site_pbe_cm5_charge
 _atom_site_pbe_ddec_charge
 _atom_site_pbe_ddec_spin_density
 _atom_site_pbe_ddec_sum_bond_order
 _atom_site_pbe_magmom
Co  Co0  1  0.61396919  0.38585984  0.25000466  1  0.518902  0.445849  -2.646266  3.128591  -2.244
Co  Co1  1  0.38587819  0.61390031  0.75004114  1  0.519318  0.445552  2.645246  3.13396  2.242
H  H2  1  0.31987511  0.51703952  0.13483227  1  0.098687  0.06832  -0.000721  1.073734  -0.002
H  H3  1  0.48288887  0.68026935  0.36507766  1  0.098711  0.068416  -0.000717  1.07356  -0.002
H  H4  1  0.68019806  0.48279392  0.86521510  1  0.098679  0.068601  0.000719  1.074138  0.002
H  H5  1  0.51721687  0.31966220  0.63481159  1  0.098579  0.068565  0.000718  1.073995  0.002
H  H6  1  0.98479889  0.47543480  0.18241917  1  0.093922  0.099701  -0.001676  1.064118  0.0
H  H7  1  0.52466764  0.01533959  0.31744077  1  0.093898  0.099815  -0.001698  1.064445  0.0
H  H8  1  0.01519710  0.52467913  0.81751995  1  0.093837  0.099557  0.001692  1.064702  0.0
H  H9  1  0.47528500  0.98465147  0.68251872  1  0.093769  0.099428  0.001686  1.064414  0.0
H  H10  1  0.99107949  0.15178426  0.56411261  1  0.107037  0.125766  -0.000846  0.985196  0.0
H  H11  1  0.84835600  0.00895604  0.93587485  1  0.107002  0.125747  -0.000846  0.985284  0.0
H  H12  1  0.00893099  0.84827319  0.43593908  1  0.106896  0.125607  0.000848  0.985391  0.0
H  H13  1  0.15167217  0.99098127  0.06416773  1  0.107007  0.125767  0.000848  0.984956  0.0
H  H14  1  0.32833288  0.20333205  0.50029262  1  0.107735  0.081419  -0.000534  1.030937  -0.002
H  H15  1  0.79669277  0.67174855  0.99970539  1  0.107616  0.081428  -0.000531  1.031287  -0.002
H  H16  1  0.67168947  0.79663702  0.49975306  1  0.107619  0.081277  0.000533  1.031097  0.002
H  H17  1  0.20334155  0.32823671  0.00037026  1  0.107579  0.081304  0.000534  1.031211  0.002
C  C18  1  0.24281586  0.43533330  0.22889058  1  0.029348  0.082871  0.001333  3.959339  0.002
C  C19  1  0.56465907  0.75720705  0.27101949  1  0.029435  0.083064  0.001346  3.958445  0.003
C  C20  1  0.75705187  0.56465199  0.77113947  1  0.029004  0.081872  -0.001344  3.959159  -0.003
C  C21  1  0.43530003  0.24289633  0.72889149  1  0.029182  0.082263  -0.001344  3.95885  -0.003
C  C22  1  0.05465004  0.41203044  0.25616426  1  -0.097153  -0.186999  -0.012282  3.963781  -0.016
C  C23  1  0.58794900  0.94544315  0.24371691  1  -0.097441  -0.187991  -0.012329  3.964288  -0.016
C  C24  1  0.94529964  0.58796462  0.74381088  1  -0.097145  -0.18667  0.012346  3.963858  0.016
C  C25  1  0.41199487  0.05464078  0.75621372  1  -0.096922  -0.186648  0.012347  3.963263  0.016
C  C26  1  0.95564580  0.30621009  0.37801665  1  0.003704  0.169708  0.001259  4.036807  0.006
C  C27  1  0.69384049  0.04450239  0.12191429  1  0.003831  0.169767  0.001277  4.03816  0.006
C  C28  1  0.04442645  0.69376587  0.62200350  1  0.003694  0.169343  -0.001241  4.03818  -0.006
C  C29  1  0.30623319  0.95552096  0.87806244  1  0.003709  0.169334  -0.001253  4.037936  -0.006
C  C30  1  0.05844531  0.23325480  0.46771614  1  -0.092625  -0.177742  -0.011197  3.944452  -0.014
C  C31  1  0.76667999  0.94171205  0.03222274  1  -0.092673  -0.177474  -0.011205  3.944863  -0.014
C  C32  1  0.94162962  0.76670852  0.53232259  1  -0.092657  -0.177632  0.011253  3.944376  0.014
C  C33  1  0.23325820  0.05832302  0.96776206  1  -0.092697  -0.17765  0.011259  3.944193  0.014
C  C34  1  0.24722371  0.26174670  0.43251751  1  0.034025  0.082522  -8.5e-05  3.966684  0.0
C  C35  1  0.73818554  0.75288512  0.06742974  1  0.034273  0.082307  -8.7e-05  3.966429  0.0
C  C36  1  0.75278344  0.73822663  0.56752492  1  0.034224  0.08282  8.8e-05  3.96516  0.0
C  C37  1  0.26175520  0.24717757  0.93255385  1  0.034309  0.082666  8e-05  3.965444  0.0
S  S38  1  0.72112696  0.26381848  0.41844219  1  -0.183623  -0.343387  -0.105495  2.653232  -0.106
S  S39  1  0.73643223  0.27898813  0.08148966  1  -0.183465  -0.343037  -0.105481  2.654223  -0.106
S  S40  1  0.27891640  0.73629840  0.58171997  1  -0.18373  -0.34305  0.105834  2.655237  0.106
S  S41  1  0.26365544  0.72105063  0.91832314  1  -0.183648  -0.34302  0.105816  2.655935  0.106
N  N42  1  0.34140024  0.35945984  0.31418106  1  -0.360473  -0.225056  -0.047701  3.655371  -0.061
N  N43  1  0.64068452  0.65856534  0.18579211  1  -0.36048  -0.224969  -0.047753  3.654016  -0.062
N  N44  1  0.65847552  0.64055439  0.68585092  1  -0.360088  -0.22458  0.047774  3.654567  0.062
N  N45  1  0.35942329  0.34148110  0.81420302  1  -0.360713  -0.22475  0.047797  3.655167  0.062
