# generated using pymatgen
data_Cu3H2C2I2N3
_symmetry_space_group_name_H-M   'P 1'
_cell_length_a   4.02551258
_cell_length_b   9.49023503
_cell_length_c   20.76954779
_cell_angle_alpha   98.89229019
_cell_angle_beta   90.00089983
_cell_angle_gamma   89.99959571
_symmetry_Int_Tables_number   1
_chemical_formula_structural   Cu3H2C2I2N3
_chemical_formula_sum   'Cu12 H8 C8 I8 N12'
_cell_volume   783.92343389
_cell_formula_units_Z   4
loop_
 _symmetry_equiv_pos_site_id
 _symmetry_equiv_pos_as_xyz
  1  'x, y, z'
loop_
 _atom_site_type_symbol
 _atom_site_label
 _atom_site_symmetry_multiplicity
 _atom_site_fract_x
 _atom_site_fract_y
 _atom_site_fract_z
 _atom_site_occupancy
 _atom_site_hle17_bader_spin_density
 _atom_site_hle17_ddec_charge
 _atom_site_hle17_ddec_spin_density
 _atom_site_hle17_ddec_sum_bond_order
 _atom_site_hle17_magmom
 _atom_site_hse06_10hf_bader_spin_density
 _atom_site_hse06_10hf_ddec_charge
 _atom_site_hse06_10hf_ddec_spin_density
 _atom_site_hse06_10hf_ddec_sum_bond_order
 _atom_site_hse06_10hf_magmom
 _atom_site_hse06_bader_spin_density
 _atom_site_hse06_ddec_charge
 _atom_site_hse06_ddec_spin_density
 _atom_site_hse06_ddec_sum_bond_order
 _atom_site_hse06_magmom
 _atom_site_pbe_bader_spin_density
 _atom_site_pbe_cm5_charge
 _atom_site_pbe_ddec_charge
 _atom_site_pbe_ddec_spin_density
 _atom_site_pbe_ddec_sum_bond_order
 _atom_site_pbe_magmom
Cu  Cu0  1  0.99999454  0.49999921  0.49999988  1  0  0.445879  0  1.614657  0  0  0.314041  0  2.039145  0  0  0.332308  0  1.995862  0  0  0.469222  0.302352  0  2.06888  0
Cu  Cu1  1  0.00001601  0.99999977  0.00000163  1  0  0.445995  0  1.614787  0  0  0.314172  0  2.039268  0  0  0.332437  0  1.995994  0  0  0.469298  0.3025  0  2.069031  0
Cu  Cu2  1  0.50170279  0.74999756  0.74999863  1  0  0.402819  0  1.770639  0  0  0.27811  0  2.22634  0  0  0.293377  0  2.175678  0  0  0.438943  0.268954  0  2.261026  0
Cu  Cu3  1  0.49827948  0.24999747  0.24999979  1  0  0.402809  0  1.770461  0  0  0.278108  0  2.226151  0  0  0.293372  0  2.175492  0  0  0.438925  0.268954  0  2.260837  0
Cu  Cu4  1  0.35278336  0.03815414  0.67115200  1  0  0.242774  0  2.246719  0  0  0.171565  0  2.730289  0  0  0.183097  0  2.672227  0  0  0.248152  0.165341  0  2.769428  0
Cu  Cu5  1  0.35279569  0.46184573  0.82884976  1  0  0.242742  0  2.246663  0  0  0.171587  0  2.730214  0  0  0.183118  0  2.672135  0  0  0.248138  0.165346  0  2.76934  0
Cu  Cu6  1  0.64721878  0.96183982  0.32884876  1  0  0.24274  0  2.24668  0  0  0.171541  0  2.730256  0  0  0.183076  0  2.672179  0  0  0.248131  0.165314  0  2.769398  0
Cu  Cu7  1  0.64719899  0.53816211  0.17114380  1  0  0.242783  0  2.246596  0  0  0.171582  0  2.730166  0  0  0.18312  0  2.672083  0  0  0.248157  0.165351  0  2.769304  0
Cu  Cu8  1  0.84771971  0.20980305  0.66231635  1  0  0.184071  0  2.261796  0  0  0.127997  0  2.738669  0  0  0.143687  0  2.67872  0  0  0.132265  0.118146  0  2.77977  0
Cu  Cu9  1  0.84773576  0.29020235  0.83768640  1  0  0.184142  0  2.261642  0  0  0.128033  0  2.738541  0  0  0.143727  0  2.678585  0  0  0.132278  0.118202  0  2.779617  0
Cu  Cu10  1  0.15227746  0.79019305  0.33768263  1  0  0.184107  0  2.261725  0  0  0.128017  0  2.738607  0  0  0.14371  0  2.678653  0  0  0.132276  0.118167  0  2.779718  0
Cu  Cu11  1  0.15225644  0.70980016  0.16231015  1  0  0.18405  0  2.261767  0  0  0.127953  0  2.73867  0  0  0.143641  0  2.67872  0  0  0.132255  0.118103  0  2.779776  0
H  H12  1  0.07755893  0.84007424  0.53792864  1  0  0.086049  0  0.963346  0  0  0.098242  0  1.027399  0  0  0.099692  0  1.025909  0  0  0.112829  0.096935  0  1.028812  0
H  H13  1  0.07761430  0.65993337  0.96207491  1  0  0.086045  0  0.963381  0  0  0.098221  0  1.027454  0  0  0.099666  0  1.025975  0  0  0.11286  0.096913  0  1.028862  0
H  H14  1  0.92240098  0.15992719  0.46207456  1  0  0.086038  0  0.963356  0  0  0.098226  0  1.02741  0  0  0.099674  0  1.025925  0  0  0.11285  0.096918  0  1.028819  0
H  H15  1  0.92243504  0.34006699  0.03792822  1  0  0.086058  0  0.96339  0  0  0.098257  0  1.027435  0  0  0.099706  0  1.025949  0  0  0.112833  0.096948  0  1.028843  0
H  H16  1  0.38452026  0.49693566  0.63039202  1  0  0.075906  0  1.006777  0  0  0.089548  0  1.069611  0  0  0.090564  0  1.068502  0  0  0.10229  0.088531  0  1.07077  0
H  H17  1  0.38448922  0.00306097  0.86960624  1  0  0.075947  0  1.006809  0  0  0.089581  0  1.069659  0  0  0.090607  0  1.068542  0  0  0.102346  0.08857  0  1.07082  0
H  H18  1  0.61548685  0.50305725  0.36960529  1  0  0.07588  0  1.00687  0  0  0.089578  0  1.069648  0  0  0.090589  0  1.068547  0  0  0.102318  0.088561  0  1.070818  0
H  H19  1  0.61549801  0.99694366  0.13039287  1  0  0.075878  0  1.006975  0  0  0.089533  0  1.069762  0  0  0.090559  0  1.068643  0  0  0.102322  0.088521  0  1.070925  0
C  C20  1  0.18023596  0.77797558  0.57283349  1  0  0.205039  0  3.676319  0  0  0.155945  0  3.927267  0  0  0.16725  0  3.944468  0  0  0.128196  0.148489  0  3.915846  0
C  C21  1  0.18025522  0.72202864  0.92716678  1  0  0.205081  0  3.676241  0  0  0.156006  0  3.927207  0  0  0.167308  0  3.944399  0  0  0.128238  0.148552  0  3.915789  0
C  C22  1  0.81974630  0.22202158  0.42716604  1  0  0.20493  0  3.676357  0  0  0.155852  0  3.927352  0  0  0.167154  0  3.944551  0  0  0.128169  0.148398  0  3.915932  0
C  C23  1  0.81976928  0.27797172  0.07283539  1  0  0.205047  0  3.676311  0  0  0.155952  0  3.92727  0  0  0.167252  0  3.944462  0  0  0.128231  0.148507  0  3.915821  0
C  C24  1  0.33630393  0.60371996  0.62004600  1  0  0.185073  0  3.717726  0  0  0.13794  0  3.961574  0  0  0.149934  0  3.978244  0  0  0.119005  0.129946  0  3.950608  0
C  C25  1  0.33629905  0.89627972  0.87995444  1  0  0.185129  0  3.717928  0  0  0.138005  0  3.961745  0  0  0.149989  0  3.978415  0  0  0.119027  0.130005  0  3.950787  0
C  C26  1  0.66368827  0.39627401  0.37995283  1  0  0.184991  0  3.717617  0  0  0.137826  0  3.961452  0  0  0.149815  0  3.978123  0  0  0.118998  0.129825  0  3.950498  0
C  C27  1  0.66371302  0.10372277  0.12004788  1  0  0.185095  0  3.718005  0  0  0.137964  0  3.961842  0  0  0.149948  0  3.97851  0  0  0.11903  0.12996  0  3.950898  0
I  I28  1  0.84441344  0.04435357  0.75594406  1  0  -0.258371  0  2.233371  0  0  -0.206966  0  2.790684  0  0  -0.216204  0  2.727322  0  0  -0.118829  -0.201512  0  2.835117  0
I  I29  1  0.84441431  0.45564651  0.74405686  1  0  -0.258364  0  2.233402  0  0  -0.206989  0  2.79073  0  0  -0.216226  0  2.727361  0  0  -0.118835  -0.201514  0  2.835098  0
I  I30  1  0.15558125  0.95564680  0.24405667  1  0  -0.258358  0  2.233353  0  0  -0.206961  0  2.790663  0  0  -0.216201  0  2.727299  0  0  -0.118831  -0.201499  0  2.835076  0
I  I31  1  0.15559776  0.54435493  0.25594009  1  0  -0.258355  0  2.233295  0  0  -0.206957  0  2.790618  0  0  -0.216199  0  2.727248  0  0  -0.11882  -0.201453  0  2.83493  0
I  I32  1  0.34350506  0.19922312  0.58073014  1  0  -0.294658  0  1.86984  0  0  -0.250673  0  2.34935  0  0  -0.263495  0  2.301315  0  0  -0.154411  -0.242263  0  2.383166  0
I  I33  1  0.34352231  0.30077890  0.91927511  1  0  -0.294745  0  1.869857  0  0  -0.25076  0  2.349375  0  0  -0.263583  0  2.301339  0  0  -0.154434  -0.242363  0  2.383192  0
I  I34  1  0.65650453  0.80076658  0.41927080  1  0  -0.294688  0  1.86983  0  0  -0.250705  0  2.349358  0  0  -0.263528  0  2.301318  0  0  -0.154403  -0.242297  0  2.383191  0
I  I35  1  0.65647982  0.69924066  0.08072698  1  0  -0.294662  0  1.869918  0  0  -0.250675  0  2.349441  0  0  -0.263495  0  2.301404  0  0  -0.154433  -0.242262  0  2.383258  0
N  N36  1  0.18646223  0.63271189  0.56501594  1  0  -0.40189  0  3.456178  0  0  -0.31007  0  3.76663  0  0  -0.330067  0  3.772278  0  0  -0.419265  -0.29699  0  3.762704  0
N  N37  1  0.18647705  0.86729658  0.93498657  1  0  -0.402037  0  3.456161  0  0  -0.310233  0  3.766646  0  0  -0.330228  0  3.772296  0  0  -0.419366  -0.297157  0  3.762739  0
N  N38  1  0.81352500  0.36728740  0.43498423  1  0  -0.40174  0  3.456039  0  0  -0.30994  0  3.766518  0  0  -0.329934  0  3.772164  0  0  -0.419282  -0.296858  0  3.762583  0
N  N39  1  0.81353751  0.13270378  0.06501463  1  0  -0.401964  0  3.456189  0  0  -0.310152  0  3.766677  0  0  -0.330148  0  3.772326  0  0  -0.419351  -0.297075  0  3.762768  0
N  N40  1  0.41499999  0.72326600  0.65969585  1  0  -0.238629  0  3.346522  0  0  -0.163387  0  3.646121  0  0  -0.177535  0  3.657037  0  0  -0.314203  -0.154482  0  3.639125  0
N  N41  1  0.41502146  0.77673674  0.84030554  1  0  -0.238674  0  3.346406  0  0  -0.163439  0  3.646021  0  0  -0.177596  0  3.656939  0  0  -0.314216  -0.154525  0  3.639032  0
N  N42  1  0.58498227  0.27672797  0.34030346  1  0  -0.238519  0  3.34623  0  0  -0.163285  0  3.64585  0  0  -0.17742  0  3.656753  0  0  -0.314174  -0.154383  0  3.638873  0
N  N43  1  0.58498565  0.22326789  0.15969308  1  0  -0.238635  0  3.346347  0  0  -0.163395  0  3.645964  0  0  -0.177554  0  3.656884  0  0  -0.314187  -0.154493  0  3.638995  0
N  N44  1  0.31672709  0.83527627  0.62900706  1  0  -0.209734  0  3.271142  0  0  -0.146218  0  3.562197  0  0  -0.159768  0  3.575567  0  0  -0.290119  -0.137805  0  3.553641  0
N  N45  1  0.31673305  0.66472984  0.87099474  1  0  -0.209681  0  3.271038  0  0  -0.146187  0  3.562111  0  0  -0.159722  0  3.575463  0  0  -0.290166  -0.137783  0  3.553554  0
N  N46  1  0.68325766  0.16472302  0.37099455  1  0  -0.209715  0  3.271124  0  0  -0.146215  0  3.56219  0  0  -0.159763  0  3.575549  0  0  -0.290134  -0.137815  0  3.553638  0
N  N47  1  0.68326660  0.33527693  0.12900355  1  0  -0.209679  0  3.271091  0  0  -0.146177  0  3.562138  0  0  -0.159709  0  3.575491  0  0  -0.290122  -0.137779  0  3.553594  0
