# generated using pymatgen
data_ZnH17C21N2O5
_symmetry_space_group_name_H-M   'P 1'
_cell_length_a   9.60912704
_cell_length_b   9.75936678
_cell_length_c   11.21643434
_cell_angle_alpha   91.22827487
_cell_angle_beta   106.64408719
_cell_angle_gamma   109.04645972
_symmetry_Int_Tables_number   1
_chemical_formula_structural   ZnH17C21N2O5
_chemical_formula_sum   'Zn2 H34 C42 N4 O10'
_cell_volume   944.92416412
_cell_formula_units_Z   2
loop_
 _symmetry_equiv_pos_site_id
 _symmetry_equiv_pos_as_xyz
  1  'x, y, z'
loop_
 _atom_site_type_symbol
 _atom_site_label
 _atom_site_symmetry_multiplicity
 _atom_site_fract_x
 _atom_site_fract_y
 _atom_site_fract_z
 _atom_site_occupancy
 _atom_site_hle17_bader_spin_density
 _atom_site_hle17_ddec_charge
 _atom_site_hle17_ddec_spin_density
 _atom_site_hle17_ddec_sum_bond_order
 _atom_site_hle17_magmom
 _atom_site_hse06_10hf_bader_spin_density
 _atom_site_hse06_10hf_ddec_charge
 _atom_site_hse06_10hf_ddec_spin_density
 _atom_site_hse06_10hf_ddec_sum_bond_order
 _atom_site_hse06_10hf_magmom
 _atom_site_hse06_bader_spin_density
 _atom_site_hse06_ddec_charge
 _atom_site_hse06_ddec_spin_density
 _atom_site_hse06_ddec_sum_bond_order
 _atom_site_hse06_magmom
 _atom_site_pbe_bader_spin_density
 _atom_site_pbe_cm5_charge
 _atom_site_pbe_ddec_charge
 _atom_site_pbe_ddec_spin_density
 _atom_site_pbe_ddec_sum_bond_order
 _atom_site_pbe_magmom
Zn  Zn0  1  0.04248622  0.97716597  0.88187743  1  0  1.07487  0  1.833378  0  0  0.902645  0  2.307146  0  0  0.955022  0  2.241038  0  0  0.678533  0.865655  0  2.353371  0
Zn  Zn1  1  0.95751457  0.02283410  0.11812158  1  0  1.074869  0  1.833402  0  0  0.902643  0  2.307179  0  0  0.955019  0  2.241073  0  0  0.678532  0.865655  0  2.353405  0
H  H2  1  0.22833539  0.62885360  0.98413460  1  0  0.095346  0  0.989205  0  0  0.104012  0  1.05466  0  0  0.106608  0  1.054172  0  0  0.101796  0.102417  0  1.054686  0
H  H3  1  0.77166648  0.37114648  0.01586825  1  0  0.095457  0  0.98909  0  0  0.104105  0  1.054559  0  0  0.106702  0  1.054069  0  0  0.101835  0.102511  0  1.054585  0
H  H4  1  0.36366262  0.46844428  0.09415456  1  0  0.094554  0  0.945165  0  0  0.106963  0  0.99973  0  0  0.109483  0  0.999519  0  0  0.105595  0.105085  0  1.00015  0
H  H5  1  0.63633896  0.53155798  0.90585003  1  0  0.09456  0  0.945159  0  0  0.106971  0  0.999719  0  0  0.10949  0  0.999509  0  0  0.105591  0.105092  0  1.000139  0
H  H6  1  0.19531004  0.50881429  0.40532308  1  0  0.088185  0  0.979557  0  0  0.09649  0  1.046176  0  0  0.099359  0  1.044593  0  0  0.10215  0.094582  0  1.047241  0
H  H7  1  0.80468490  0.49118468  0.59467893  1  0  0.08822  0  0.979611  0  0  0.096517  0  1.046232  0  0  0.099386  0  1.04465  0  0  0.102157  0.094608  0  1.0473  0
H  H8  1  0.06625045  0.67665302  0.29529904  1  0  0.090415  0  0.971829  0  0  0.09793  0  1.038911  0  0  0.101684  0  1.036002  0  0  0.099436  0.094989  0  1.041475  0
H  H9  1  0.93374787  0.32334923  0.70470207  1  0  0.09039  0  0.971843  0  0  0.097921  0  1.038919  0  0  0.101676  0  1.036009  0  0  0.099422  0.094978  0  1.041487  0
H  H10  1  0.67777657  0.52204020  0.42064516  1  0  0.102911  0  0.993979  0  0  0.110082  0  1.059017  0  0  0.114268  0  1.055757  0  0  0.10041  0.107159  0  1.061256  0
H  H11  1  0.32222353  0.47796095  0.57935370  1  0  0.102882  0  0.993959  0  0  0.110055  0  1.058998  0  0  0.11424  0  1.055737  0  0  0.100389  0.10713  0  1.061236  0
H  H12  1  0.88678519  0.46554261  0.36007024  1  0  0.078977  0  0.961902  0  0  0.091396  0  1.022026  0  0  0.093604  0  1.021629  0  0  0.096886  0.08949  0  1.023112  0
H  H13  1  0.11321233  0.53445745  0.63992975  1  0  0.078945  0  0.961882  0  0  0.091369  0  1.022004  0  0  0.093577  0  1.021607  0  0  0.096877  0.089463  0  1.023088  0
H  H14  1  0.81612273  0.26730840  0.18683511  1  0  0.105983  0  0.972208  0  0  0.113499  0  1.036814  0  0  0.117041  0  1.034755  0  0  0.103795  0.11076  0  1.038665  0
H  H15  1  0.18387805  0.73269167  0.81316568  1  0  0.105957  0  0.972226  0  0  0.113475  0  1.036831  0  0  0.117019  0  1.034767  0  0  0.103794  0.11074  0  1.038676  0
H  H16  1  0.53804942  0.12831700  0.07396405  1  0  0.10457  0  0.936987  0  0  0.116311  0  0.994003  0  0  0.120056  0  0.991419  0  0  0.107267  0.113606  0  0.995555  0
H  H17  1  0.46195068  0.87168417  0.92603659  1  0  0.104569  0  0.936979  0  0  0.116307  0  0.993997  0  0  0.120057  0  0.991409  0  0  0.107261  0.113603  0  0.995549  0
H  H18  1  0.32943089  0.19181872  0.84631274  1  0  0.151031  0  0.956643  0  0  0.170076  0  1.013641  0  0  0.172817  0  1.012053  0  0  0.104531  0.168137  0  1.014748  0
H  H19  1  0.67056675  0.80818461  0.15368377  1  0  0.15097  0  0.956742  0  0  0.170055  0  1.01369  0  0  0.172795  0  1.012104  0  0  0.104536  0.168117  0  1.014797  0
H  H20  1  0.34940779  0.26075287  0.70335054  1  0  0.128125  0  0.941353  0  0  0.147151  0  1.003547  0  0  0.148649  0  1.003878  0  0  0.098334  0.146233  0  1.003233  0
H  H21  1  0.65059014  0.73924829  0.29664689  1  0  0.128193  0  0.941363  0  0  0.147201  0  1.003574  0  0  0.148697  0  1.003905  0  0  0.098364  0.146283  0  1.00326  0
H  H22  1  0.45704632  0.15173507  0.77530354  1  0  0.125748  0  0.941273  0  0  0.144757  0  1.002701  0  0  0.146469  0  1.002902  0  0  0.098698  0.144066  0  1.001729  0
H  H23  1  0.54295063  0.84826935  0.22469282  1  0  0.125823  0  0.941243  0  0  0.144825  0  1.00267  0  0  0.146537  0  1.002871  0  0  0.098733  0.144134  0  1.001699  0
H  H24  1  0.88984970  0.76800698  0.62924003  1  0  0.110462  0  0.992122  0  0  0.116797  0  1.057078  0  0  0.119075  0  1.056447  0  0  0.116752  0.11527  0  1.05759  0
H  H25  1  0.11015138  0.23199091  0.37075991  1  0  0.11051  0  0.992023  0  0  0.116785  0  1.057068  0  0  0.119064  0  1.056438  0  0  0.116753  0.115259  0  1.057578  0
H  H26  1  0.02529320  0.79344139  0.43806395  1  0  0.111847  0  0.957808  0  0  0.126699  0  1.012503  0  0  0.12922  0  1.011087  0  0  0.122772  0.124874  0  1.013574  0
H  H27  1  0.97470936  0.20655759  0.56193726  1  0  0.111811  0  0.95782  0  0  0.126669  0  1.012512  0  0  0.129182  0  1.011105  0  0  0.122747  0.124844  0  1.013583  0
H  H28  1  0.35033190  0.14615365  0.51046254  1  0  0.087308  0  0.952772  0  0  0.099929  0  1.016935  0  0  0.101313  0  1.015924  0  0  0.110809  0.098779  0  1.01815  0
H  H29  1  0.64966998  0.85384642  0.48953496  1  0  0.087314  0  0.952708  0  0  0.099926  0  1.016882  0  0  0.10131  0  1.015867  0  0  0.110796  0.098777  0  1.0181  0
H  H30  1  0.24238063  0.99116689  0.39818558  1  0  0.089382  0  0.909296  0  0  0.104716  0  0.969244  0  0  0.105836  0  0.968855  0  0  0.114077  0.103824  0  0.969766  0
H  H31  1  0.75762085  0.00883208  0.60181269  1  0  0.089326  0  0.90938  0  0  0.104685  0  0.969295  0  0  0.105801  0  0.968905  0  0  0.114083  0.103795  0  0.969817  0
H  H32  1  0.39907979  0.84927947  0.52131235  1  0  0.073836  0  0.931381  0  0  0.091581  0  0.991859  0  0  0.091609  0  0.993943  0  0  0.091785  0.091401  0  0.990706  0
H  H33  1  0.60092317  0.15072061  0.47868809  1  0  0.073837  0  0.931376  0  0  0.091579  0  0.991862  0  0  0.091608  0  0.993947  0  0  0.091788  0.091399  0  0.990708  0
H  H34  1  0.50356169  0.00111848  0.63793026  1  0  0.066437  0  0.936073  0  0  0.085935  0  0.994198  0  0  0.085973  0  0.995893  0  0  0.091391  0.085889  0  0.992954  0
H  H35  1  0.49644019  0.99888159  0.36206991  1  0  0.066406  0  0.936112  0  0  0.08593  0  0.994209  0  0  0.085968  0  0.995905  0  0  0.091392  0.085885  0  0.992964  0
C  C36  1  0.07323049  0.77422572  0.07426411  1  0  0.662879  0  3.886624  0  0  0.611506  0  4.178476  0  0  0.646582  0  4.171313  0  0  0.214665  0.587414  0  4.182948  0
C  C37  1  0.92676880  0.22577326  0.92573629  1  0  0.66293  0  3.886642  0  0  0.611572  0  4.178468  0  0  0.646649  0  4.171305  0  0  0.214691  0.587479  0  4.18294  0
C  C38  1  0.14105173  0.66421198  0.13419378  1  0  -0.04125  0  3.720782  0  0  -0.019267  0  3.951242  0  0  -0.02531  0  3.972924  0  0  -0.007902  -0.015219  0  3.936414  0
C  C39  1  0.85894836  0.33578918  0.86580686  1  0  -0.041195  0  3.720742  0  0  -0.019222  0  3.951215  0  0  -0.025267  0  3.972899  0  0  -0.007883  -0.015174  0  3.936385  0
C  C40  1  0.22209988  0.60264789  0.07659499  1  0  -0.066346  0  3.719792  0  0  -0.089064  0  3.965597  0  0  -0.090027  0  3.986401  0  0  -0.079725  -0.088615  0  3.951494  0
C  C41  1  0.77790090  0.39735218  0.92340758  1  0  -0.066499  0  3.719815  0  0  -0.089199  0  3.965626  0  0  -0.090163  0  3.98643  0  0  -0.07977  -0.088749  0  3.951523  0
C  C42  1  0.29724229  0.51227668  0.13851740  1  0  -0.063053  0  3.705333  0  0  -0.084043  0  3.952893  0  0  -0.085699  0  3.974553  0  0  -0.076084  -0.082867  0  3.938789  0
C  C43  1  0.70275661  0.48772120  0.86148379  1  0  -0.063105  0  3.705377  0  0  -0.084083  0  3.952933  0  0  -0.08574  0  3.974597  0  0  -0.076095  -0.082906  0  3.938829  0
C  C44  1  0.28906840  0.47841536  0.25793193  1  0  -0.028355  0  3.744317  0  0  -0.014442  0  3.983005  0  0  -0.019768  0  4.006587  0  0  -0.014808  -0.010476  0  3.96755  0
C  C45  1  0.71093416  0.52158363  0.74206928  1  0  -0.02829  0  3.744186  0  0  -0.014406  0  3.982922  0  0  -0.019733  0  4.006502  0  0  -0.014802  -0.010439  0  3.967468  0
C  C46  1  0.20224150  0.53564759  0.31309002  1  0  -0.066264  0  3.722158  0  0  -0.088401  0  3.971286  0  0  -0.089199  0  3.99189  0  0  -0.078812  -0.088539  0  3.957656  0
C  C47  1  0.79775780  0.46435138  0.68690949  1  0  -0.066335  0  3.72223  0  0  -0.088451  0  3.971352  0  0  -0.089252  0  3.991963  0  0  -0.078828  -0.088587  0  3.957724  0
C  C48  1  0.13046116  0.62839516  0.25237728  1  0  -0.076193  0  3.744303  0  0  -0.097488  0  3.991133  0  0  -0.099106  0  4.011946  0  0  -0.084623  -0.095641  0  3.9769  0
C  C49  1  0.86954042  0.37160710  0.74762374  1  0  -0.07617  0  3.744275  0  0  -0.097481  0  3.991102  0  0  -0.099098  0  4.011914  0  0  -0.084626  -0.095634  0  3.976868  0
C  C50  1  0.37565524  0.39010095  0.33075269  1  0  0.421168  0  3.690189  0  0  0.393518  0  3.964041  0  0  0.416822  0  3.963212  0  0  0.173334  0.376797  0  3.965429  0
C  C51  1  0.62434297  0.60989803  0.66925101  1  0  0.421212  0  3.69012  0  0  0.39355  0  3.964045  0  0  0.416856  0  3.963214  0  0  0.173377  0.376825  0  3.965436  0
C  C52  1  0.49341392  0.35403839  0.28465088  1  0  -0.023707  0  3.737201  0  0  -0.0147  0  3.972997  0  0  -0.01664  0  3.993884  0  0  -0.007095  -0.013489  0  3.959754  0
C  C53  1  0.50658537  0.64596059  0.71535042  1  0  -0.023646  0  3.737274  0  0  -0.014661  0  3.973105  0  0  -0.016603  0  3.993994  0  0  -0.007071  -0.013448  0  3.959862  0
C  C54  1  0.64961068  0.43506924  0.34573188  1  0  -0.114159  0  3.751847  0  0  -0.135412  0  4.003135  0  0  -0.138269  0  4.022886  0  0  -0.094162  -0.133851  0  3.990361  0
C  C55  1  0.35038982  0.56493302  0.65426799  1  0  -0.114161  0  3.751841  0  0  -0.135406  0  4.003137  0  0  -0.138262  0  4.022891  0  0  -0.094138  -0.133843  0  3.99036  0
C  C56  1  0.76519807  0.40352710  0.31113875  1  0  -0.057166  0  3.776379  0  0  -0.071592  0  4.026889  0  0  -0.072402  0  4.048014  0  0  -0.089012  -0.071457  0  4.013553  0
C  C57  1  0.23480054  0.59647297  0.68886062  1  0  -0.057136  0  3.776285  0  0  -0.071566  0  4.026796  0  0  -0.072376  0  4.04792  0  0  -0.089023  -0.071431  0  4.01346  0
C  C58  1  0.72623819  0.29246002  0.21408682  1  0  -0.071523  0  3.760922  0  0  -0.087184  0  4.015897  0  0  -0.088928  0  4.035889  0  0  -0.091009  -0.086051  0  4.002492  0
C  C59  1  0.27375962  0.70753786  0.78591320  1  0  -0.071468  0  3.760898  0  0  -0.087135  0  4.015886  0  0  -0.088878  0  4.035873  0  0  -0.091  -0.086004  0  4.002481  0
C  C60  1  0.57083679  0.21425459  0.15090397  1  0  -0.065576  0  3.720726  0  0  -0.090006  0  3.972218  0  0  -0.08995  0  3.990734  0  0  -0.082101  -0.089627  0  3.958863  0
C  C61  1  0.42916290  0.78574548  0.84909744  1  0  -0.065605  0  3.720721  0  0  -0.090034  0  3.972207  0  0  -0.089982  0  3.99072  0  0  -0.082107  -0.089656  0  3.958854  0
C  C62  1  0.45359880  0.24371548  0.18579069  1  0  -0.094983  0  3.755243  0  0  -0.079851  0  3.99238  0  0  -0.086553  0  4.013523  0  0  -0.016919  -0.075818  0  3.978205  0
C  C63  1  0.54640090  0.75628459  0.81420983  1  0  -0.094996  0  3.755246  0  0  -0.079852  0  3.99238  0  0  -0.086552  0  4.013526  0  0  -0.01691  -0.075819  0  3.978207  0
C  C64  1  0.28714730  0.15583481  0.11992569  1  0  0.659754  0  3.905603  0  0  0.604666  0  4.201604  0  0  0.639849  0  4.194275  0  0  0.214444  0.581013  0  4.205913  0
C  C65  1  0.71285348  0.84416526  0.88007421  1  0  0.659773  0  3.905586  0  0  0.604688  0  4.201589  0  0  0.63987  0  4.194261  0  0  0.214453  0.581036  0  4.2059  0
C  C66  1  0.34453003  0.16667085  0.75630054  1  0  -0.394929  0  3.71119  0  0  -0.474113  0  3.946489  0  0  -0.478426  0  3.95251  0  0  -0.232651  -0.471084  0  3.941601  0
C  C67  1  0.65546721  0.83333139  0.24369674  1  0  -0.395034  0  3.71133  0  0  -0.474253  0  3.946638  0  0  -0.478561  0  3.952663  0  0  -0.23272  -0.471219  0  3.941752  0
C  C68  1  0.21486941  0.03373625  0.68531079  1  0  0.371511  0  3.681214  0  0  0.35055  0  3.94592  0  0  0.366104  0  3.961708  0  0  0.223015  0.340573  0  3.934216  0
C  C69  1  0.78512960  0.96626490  0.31468601  1  0  0.371491  0  3.681151  0  0  0.350573  0  3.945824  0  0  0.366118  0  3.961627  0  0  0.223028  0.340589  0  3.934129  0
C  C70  1  0.99816419  0.84469978  0.62443725  1  0  0.001801  0  3.754783  0  0  -0.03602  0  4.034116  0  0  -0.03352  0  4.054112  0  0  -0.008309  -0.037024  0  4.019485  0
C  C71  1  0.00183700  0.15530138  0.37556277  1  0  0.001846  0  3.754764  0  0  -0.035939  0  4.034121  0  0  -0.033439  0  4.054117  0  0  -0.008256  -0.036941  0  4.019487  0
C  C72  1  0.06370754  0.85520877  0.52994942  1  0  -0.063973  0  3.702698  0  0  -0.1096  0  3.971941  0  0  -0.108695  0  3.991948  0  0  -0.002229  -0.109585  0  3.957447  0
C  C73  1  0.93629285  0.14479021  0.47005036  1  0  -0.064039  0  3.702675  0  0  -0.109643  0  3.971896  0  0  -0.108734  0  3.991907  0  0  -0.002224  -0.109632  0  3.957401  0
C  C74  1  0.30823572  0.02616701  0.49803516  1  0  -0.004155  0  3.620778  0  0  -0.062205  0  3.87655  0  0  -0.058185  0  3.887194  0  0  -0.054663  -0.064944  0  3.86976  0
C  C75  1  0.69176616  0.97383306  0.50196323  1  0  -0.004187  0  3.620745  0  0  -0.062227  0  3.876517  0  0  -0.058195  0  3.887144  0  0  -0.054665  -0.064971  0  3.869736  0
C  C76  1  0.44316233  0.96958615  0.53662640  1  0  -0.118618  0  3.680606  0  0  -0.15909  0  3.940846  0  0  -0.160789  0  3.955833  0  0  -0.161068  -0.157985  0  3.931106  0
C  C77  1  0.55683914  0.03041283  0.46337365  1  0  -0.118603  0  3.680641  0  0  -0.159094  0  3.940877  0  0  -0.160796  0  3.955864  0  0  -0.161068  -0.157992  0  3.931145  0
N  N78  1  0.09286186  0.95597447  0.72061252  1  0  -0.437211  0  3.228388  0  0  -0.364091  0  3.520961  0  0  -0.386056  0  3.532394  0  0  -0.357399  -0.348798  0  3.512294  0
N  N79  1  0.90713824  0.04402669  0.27938634  1  0  -0.437278  0  3.228506  0  0  -0.364169  0  3.521059  0  0  -0.38613  0  3.532496  0  0  -0.357429  -0.348875  0  3.512396  0
N  N80  1  0.19955434  0.97419494  0.56925080  1  0  -0.115427  0  3.554633  0  0  -0.026569  0  3.772162  0  0  -0.042435  0  3.79965  0  0  -0.241113  -0.016013  0  3.752959  0
N  N81  1  0.80044537  0.02580512  0.43074705  1  0  -0.115229  0  3.554264  0  0  -0.026425  0  3.771818  0  0  -0.042289  0  3.799302  0  0  -0.241133  -0.015864  0  3.752618  0
O  O82  1  0.07905374  0.79749193  0.96446446  1  0  -0.621989  0  2.066778  0  0  -0.557062  0  2.326671  0  0  -0.586152  0  2.315409  0  0  -0.3089  -0.53736  0  2.334286  0
O  O83  1  0.92094664  0.20250705  0.03553621  1  0  -0.622041  0  2.066853  0  0  -0.557131  0  2.32676  0  0  -0.586214  0  2.315481  0  0  -0.308918  -0.537428  0  2.334377  0
O  O84  1  0.01915271  0.83782746  0.14085416  1  0  -0.649411  0  2.057793  0  0  -0.586664  0  2.321836  0  0  -0.614862  0  2.307478  0  0  -0.322109  -0.566272  0  2.331333  0
O  O85  1  0.98084699  0.16217260  0.85914547  1  0  -0.649418  0  2.057754  0  0  -0.586674  0  2.321791  0  0  -0.614872  0  2.307429  0  0  -0.322109  -0.566282  0  2.331286  0
O  O86  1  0.36522824  0.35913230  0.43507897  1  0  -0.463088  0  1.980515  0  0  -0.419351  0  2.197666  0  0  -0.436693  0  2.192801  0  0  -0.251177  -0.407957  0  2.201284  0
O  O87  1  0.63476986  0.64086341  0.56492376  1  0  -0.463122  0  1.980524  0  0  -0.419379  0  2.197667  0  0  -0.436721  0  2.192805  0  0  -0.251211  -0.407981  0  2.201283  0
O  O88  1  0.19244548  0.14718722  0.18138176  1  0  -0.623393  0  2.086441  0  0  -0.554411  0  2.349948  0  0  -0.584268  0  2.339294  0  0  -0.29908  -0.532914  0  2.357042  0
O  O89  1  0.80755422  0.85281285  0.81861787  1  0  -0.623408  0  2.086449  0  0  -0.554416  0  2.349929  0  0  -0.584271  0  2.339274  0  0  -0.299077  -0.532919  0  2.357024  0
O  O90  1  0.25473883  0.09682603  0.00870520  1  0  -0.63633  0  2.103406  0  0  -0.566569  0  2.364151  0  0  -0.595504  0  2.350841  0  0  -0.30953  -0.546419  0  2.372516  0
O  O91  1  0.74526127  0.90317513  0.99129455  1  0  -0.636325  0  2.103399  0  0  -0.566566  0  2.364139  0  0  -0.595503  0  2.350837  0  0  -0.309532  -0.546414  0  2.372503  0
