# generated using pymatgen
data_KH4C6SNO5
_symmetry_space_group_name_H-M   'P 1'
_cell_length_a   7.21084148
_cell_length_b   7.97575059
_cell_length_c   15.12419364
_cell_angle_alpha   89.99979680
_cell_angle_beta   99.98018163
_cell_angle_gamma   90.00012741
_symmetry_Int_Tables_number   1
_chemical_formula_structural   KH4C6SNO5
_chemical_formula_sum   'K4 H16 C24 S4 N4 O20'
_cell_volume   856.65836966
_cell_formula_units_Z   4
loop_
 _symmetry_equiv_pos_site_id
 _symmetry_equiv_pos_as_xyz
  1  'x, y, z'
loop_
 _atom_site_type_symbol
 _atom_site_label
 _atom_site_symmetry_multiplicity
 _atom_site_fract_x
 _atom_site_fract_y
 _atom_site_fract_z
 _atom_site_occupancy
 _atom_site_hle17_bader_spin_density
 _atom_site_hle17_ddec_charge
 _atom_site_hle17_ddec_spin_density
 _atom_site_hle17_ddec_sum_bond_order
 _atom_site_hle17_magmom
 _atom_site_hse06_10hf_bader_spin_density
 _atom_site_hse06_10hf_ddec_charge
 _atom_site_hse06_10hf_ddec_spin_density
 _atom_site_hse06_10hf_ddec_sum_bond_order
 _atom_site_hse06_10hf_magmom
 _atom_site_hse06_bader_spin_density
 _atom_site_hse06_ddec_charge
 _atom_site_hse06_ddec_spin_density
 _atom_site_hse06_ddec_sum_bond_order
 _atom_site_hse06_magmom
 _atom_site_pbe_bader_spin_density
 _atom_site_pbe_cm5_charge
 _atom_site_pbe_ddec_charge
 _atom_site_pbe_ddec_spin_density
 _atom_site_pbe_ddec_sum_bond_order
 _atom_site_pbe_magmom
K  K0  1  0.14991875  0.34347565  0.56252303  1  0  0.959321  0  0.501044  0  0  0.924082  0  0.690546  0  0  0.936793  0  0.668157  0  0  0.883824  0.914266  0  0.706718  0
K  K1  1  0.35008625  0.84347310  0.43747662  1  0  0.959327  0  0.501022  0  0  0.924082  0  0.690527  0  0  0.936798  0  0.668132  0  0  0.883803  0.914259  0  0.70672  0
K  K2  1  0.85008672  0.65652569  0.43747514  1  0  0.959321  0  0.501035  0  0  0.924077  0  0.69055  0  0  0.936787  0  0.668159  0  0  0.883805  0.914263  0  0.70672  0
K  K3  1  0.64990935  0.15652698  0.56252338  1  0  0.959323  0  0.501039  0  0  0.924074  0  0.690548  0  0  0.936795  0  0.66815  0  0  0.883804  0.914258  0  0.706723  0
H  H4  1  0.33262569  0.02769732  0.95715175  1  0  0.109511  0  0.952631  0  0  0.118399  0  1.015041  0  0  0.121097  0  1.01418  0  0  0.112299  0.116476  0  1.015696  0
H  H5  1  0.16737311  0.52769331  0.04284798  1  0  0.109512  0  0.952638  0  0  0.118392  0  1.015054  0  0  0.12109  0  1.014193  0  0  0.112299  0.11647  0  1.015711  0
H  H6  1  0.66737555  0.97230401  0.04284806  1  0  0.109532  0  0.952632  0  0  0.118427  0  1.015029  0  0  0.121125  0  1.014168  0  0  0.112309  0.116504  0  1.015684  0
H  H7  1  0.83262531  0.47230176  0.95715292  1  0  0.10954  0  0.952663  0  0  0.118422  0  1.015073  0  0  0.121121  0  1.014209  0  0  0.112318  0.116498  0  1.015728  0
H  H8  1  0.40675191  0.72611181  0.98819362  1  0  0.102357  0  0.961208  0  0  0.111398  0  1.021166  0  0  0.114915  0  1.018761  0  0  0.103705  0.108881  0  1.022976  0
H  H9  1  0.09325007  0.22610918  0.01180600  1  0  0.102354  0  0.961219  0  0  0.111392  0  1.021179  0  0  0.114908  0  1.018777  0  0  0.103693  0.108876  0  1.022987  0
H  H10  1  0.59325215  0.27388827  0.01180576  1  0  0.102382  0  0.96117  0  0  0.111382  0  1.021184  0  0  0.114898  0  1.018779  0  0  0.103687  0.108864  0  1.022996  0
H  H11  1  0.90675117  0.77388714  0.98819513  1  0  0.102334  0  0.961215  0  0  0.11138  0  1.021175  0  0  0.114897  0  1.01877  0  0  0.103693  0.108866  0  1.022983  0
H  H12  1  0.36973678  0.52311063  0.85932262  1  0  0.096479  0  0.951532  0  0  0.100051  0  1.021078  0  0  0.103841  0  1.018236  0  0  0.102657  0.097346  0  1.023122  0
H  H13  1  0.13026482  0.02311096  0.14067668  1  0  0.096441  0  0.951625  0  0  0.100028  0  1.021158  0  0  0.103817  0  1.018316  0  0  0.102649  0.097319  0  1.023207  0
H  H14  1  0.63026446  0.47688820  0.14067586  1  0  0.096477  0  0.951534  0  0  0.10005  0  1.021071  0  0  0.103839  0  1.018228  0  0  0.102644  0.097335  0  1.023125  0
H  H15  1  0.86973923  0.97688410  0.85932336  1  0  0.096464  0  0.951536  0  0  0.100059  0  1.021051  0  0  0.103849  0  1.018208  0  0  0.102673  0.097347  0  1.023103  0
H  H16  1  0.27300402  0.62584370  0.70398413  1  0  0.117749  0  0.960867  0  0  0.123803  0  1.025577  0  0  0.128283  0  1.02224  0  0  0.117743  0.120458  0  1.028167  0
H  H17  1  0.22699636  0.12583817  0.29601488  1  0  0.117755  0  0.960933  0  0  0.123799  0  1.025651  0  0  0.128284  0  1.022306  0  0  0.117747  0.120455  0  1.028242  0
H  H18  1  0.72699581  0.37416139  0.29601424  1  0  0.11779  0  0.960926  0  0  0.123833  0  1.025642  0  0  0.128317  0  1.022297  0  0  0.117762  0.120488  0  1.028231  0
H  H19  1  0.77300628  0.87415814  0.70398570  1  0  0.117774  0  0.960931  0  0  0.123818  0  1.025648  0  0  0.128303  0  1.022304  0  0  0.117755  0.120474  0  1.028237  0
C  C20  1  0.26729022  0.99353035  0.81449117  1  0  0.077094  0  3.684807  0  0  0.054022  0  3.933112  0  0  0.053113  0  3.954588  0  0  0.086339  0.054494  0  3.918804  0
C  C21  1  0.23271083  0.49352808  0.18550854  1  0  0.077094  0  3.684636  0  0  0.054075  0  3.932984  0  0  0.053168  0  3.954459  0  0  0.086367  0.054546  0  3.91868  0
C  C22  1  0.73271102  0.00647098  0.18550996  1  0  0.077047  0  3.684738  0  0  0.054034  0  3.933083  0  0  0.053126  0  3.954558  0  0  0.086371  0.054507  0  3.918775  0
C  C23  1  0.76728759  0.50646949  0.81449103  1  0  0.077159  0  3.684648  0  0  0.05409  0  3.932987  0  0  0.053182  0  3.954463  0  0  0.086332  0.054561  0  3.91868  0
C  C24  1  0.32246596  0.93739746  0.90261530  1  0  -0.098614  0  3.732002  0  0  -0.124381  0  3.989666  0  0  -0.125416  0  4.009684  0  0  -0.079818  -0.123499  0  3.976012  0
C  C25  1  0.17752935  0.43739442  0.09738470  1  0  -0.0986  0  3.731927  0  0  -0.12435  0  3.989569  0  0  -0.125382  0  4.009585  0  0  -0.079795  -0.123468  0  3.975916  0
C  C26  1  0.67753106  0.06260387  0.09738482  1  0  -0.098618  0  3.732015  0  0  -0.124386  0  3.989652  0  0  -0.125418  0  4.009668  0  0  -0.079806  -0.123504  0  3.975998  0
C  C27  1  0.82246765  0.56260315  0.90261740  1  0  -0.098702  0  3.73198  0  0  -0.124445  0  3.989634  0  0  -0.125478  0  4.009652  0  0  -0.079828  -0.12356  0  3.975979  0
C  C28  1  0.36327160  0.76878510  0.91931752  1  0  -0.061674  0  3.748417  0  0  -0.074445  0  3.998959  0  0  -0.077077  0  4.020283  0  0  -0.084593  -0.072663  0  3.984463  0
C  C29  1  0.13672763  0.26878209  0.08068245  1  0  -0.061702  0  3.748447  0  0  -0.07447  0  3.999  0  0  -0.077103  0  4.020323  0  0  -0.084598  -0.072685  0  3.9845  0
C  C30  1  0.63673104  0.23121623  0.08068240  1  0  -0.061672  0  3.748433  0  0  -0.074408  0  3.998972  0  0  -0.077041  0  4.020297  0  0  -0.084576  -0.072623  0  3.98447  0
C  C31  1  0.86327220  0.73121172  0.91931790  1  0  -0.061619  0  3.748462  0  0  -0.074408  0  3.999022  0  0  -0.077041  0  4.020347  0  0  -0.084597  -0.072625  0  3.984523  0
C  C32  1  0.34397285  0.65647489  0.84758369  1  0  -0.025335  0  3.702033  0  0  -0.044362  0  3.960947  0  0  -0.045332  0  3.981569  0  0  -0.072796  -0.043528  0  3.946876  0
C  C33  1  0.15602900  0.15647018  0.15241539  1  0  -0.025248  0  3.701875  0  0  -0.044296  0  3.960807  0  0  -0.045265  0  3.981426  0  0  -0.072752  -0.043458  0  3.94674  0
C  C34  1  0.65602840  0.34352770  0.15241414  1  0  -0.025298  0  3.701787  0  0  -0.044319  0  3.960689  0  0  -0.045288  0  3.98131  0  0  -0.072737  -0.043478  0  3.946622  0
C  C35  1  0.84397505  0.84352488  0.84758597  1  0  -0.025299  0  3.701803  0  0  -0.044336  0  3.960728  0  0  -0.045305  0  3.981349  0  0  -0.072755  -0.043498  0  3.94666  0
C  C36  1  0.28871441  0.71345785  0.75980112  1  0  -0.046281  0  3.697451  0  0  -0.072868  0  3.9483  0  0  -0.074428  0  3.968865  0  0  -0.070017  -0.071778  0  3.934738  0
C  C37  1  0.21129035  0.21345267  0.24020206  1  0  -0.046339  0  3.697351  0  0  -0.072927  0  3.948206  0  0  -0.07449  0  3.968771  0  0  -0.070084  -0.071841  0  3.93465  0
C  C38  1  0.71129104  0.28654724  0.24020301  1  0  -0.046382  0  3.697342  0  0  -0.072972  0  3.948188  0  0  -0.074535  0  3.968753  0  0  -0.07011  -0.071882  0  3.934629  0
C  C39  1  0.78871089  0.78654490  0.75979907  1  0  -0.046315  0  3.697278  0  0  -0.072898  0  3.948132  0  0  -0.074463  0  3.968699  0  0  -0.070073  -0.071809  0  3.934569  0
C  C40  1  0.25130637  0.88288394  0.74104386  1  0  -0.122755  0  3.615494  0  0  -0.100792  0  3.856522  0  0  -0.105065  0  3.876664  0  0  0.004226  -0.098153  0  3.843349  0
C  C41  1  0.24869730  0.38287870  0.25895561  1  0  -0.122831  0  3.615485  0  0  -0.10082  0  3.856454  0  0  -0.105098  0  3.8766  0  0  0.004221  -0.098179  0  3.843287  0
C  C42  1  0.74869628  0.11712115  0.25895540  1  0  -0.122802  0  3.615496  0  0  -0.100788  0  3.856452  0  0  -0.105062  0  3.876593  0  0  0.004224  -0.098148  0  3.843282  0
C  C43  1  0.75130535  0.61711761  0.74104498  1  0  -0.122805  0  3.615439  0  0  -0.10082  0  3.856446  0  0  -0.105096  0  3.876592  0  0  0.004226  -0.098178  0  3.843273  0
S  S44  1  0.16614885  0.93559026  0.62471574  1  0  1.326604  0  5.70989  0  0  1.236278  0  6.231822  0  0  1.284473  0  6.206621  0  0  0.479786  1.203002  0  6.248143  0
S  S45  1  0.33385209  0.43558817  0.37528473  1  0  1.326729  0  5.709813  0  0  1.236391  0  6.231744  0  0  1.284585  0  6.206545  0  0  0.479867  1.203114  0  6.248075  0
S  S46  1  0.83385239  0.06441233  0.37528539  1  0  1.326631  0  5.709863  0  0  1.236289  0  6.231807  0  0  1.284482  0  6.206607  0  0  0.479797  1.203013  0  6.248133  0
S  S47  1  0.66614774  0.56441191  0.62471496  1  0  1.326585  0  5.710026  0  0  1.236252  0  6.231963  0  0  1.284445  0  6.206768  0  0  0.479766  1.202973  0  6.248289  0
N  N48  1  0.22600147  0.17336051  0.80513979  1  0  0.490444  0  3.93935  0  0  0.547675  0  4.192692  0  0  0.56966  0  4.198255  0  0  0.061804  0.532857  0  4.18901  0
N  N49  1  0.27399478  0.67335819  0.19485946  1  0  0.490718  0  3.938861  0  0  0.547644  0  4.192626  0  0  0.569629  0  4.19819  0  0  0.061798  0.532826  0  4.188944  0
N  N50  1  0.77399555  0.82664208  0.19486033  1  0  0.490802  0  3.938897  0  0  0.547732  0  4.192647  0  0  0.569716  0  4.198211  0  0  0.061834  0.532913  0  4.188966  0
N  N51  1  0.72599942  0.32664063  0.80514042  1  0  0.490547  0  3.939176  0  0  0.547672  0  4.19268  0  0  0.569657  0  4.198244  0  0  0.06178  0.532853  0  4.189  0
O  O52  1  0.15363003  0.24090372  0.86526249  1  0  -0.373296  0  1.76801  0  0  -0.365215  0  1.965352  0  0  -0.379722  0  1.962268  0  0  -0.133441  -0.355375  0  1.96749  0
O  O53  1  0.34636774  0.74090195  0.13473675  1  0  -0.373382  0  1.767774  0  0  -0.365217  0  1.965261  0  0  -0.379725  0  1.962179  0  0  -0.13348  -0.355376  0  1.967397  0
O  O54  1  0.84636839  0.75909761  0.13473840  1  0  -0.373457  0  1.767769  0  0  -0.365304  0  1.965267  0  0  -0.379816  0  1.962194  0  0  -0.133517  -0.355463  0  1.96741  0
O  O55  1  0.65362505  0.25909562  0.86526169  1  0  -0.373373  0  1.767968  0  0  -0.365262  0  1.965354  0  0  -0.379776  0  1.962286  0  0  -0.133467  -0.355421  0  1.967495  0
O  O56  1  0.26904210  0.25001939  0.74068134  1  0  -0.344246  0  1.828459  0  0  -0.343168  0  2.040336  0  0  -0.353288  0  2.034593  0  0  -0.150927  -0.336402  0  2.044422  0
O  O57  1  0.23095429  0.75001529  0.25931777  1  0  -0.344361  0  1.828337  0  0  -0.343141  0  2.040339  0  0  -0.353259  0  2.03459  0  0  -0.150886  -0.336373  0  2.044425  0
O  O58  1  0.73095210  0.74998445  0.25931854  1  0  -0.344351  0  1.828348  0  0  -0.343123  0  2.04034  0  0  -0.353243  0  2.034601  0  0  -0.150885  -0.336355  0  2.044422  0
O  O59  1  0.76904414  0.24998353  0.74068247  1  0  -0.344276  0  1.828436  0  0  -0.343138  0  2.040352  0  0  -0.353254  0  2.034599  0  0  -0.150874  -0.336372  0  2.044437  0
O  O60  1  0.99987644  0.04075244  0.62595150  1  0  -0.725861  0  1.994061  0  0  -0.687523  0  2.259011  0  0  -0.708827  0  2.245265  0  0  -0.444395  -0.672246  0  2.267921  0
O  O61  1  0.50012224  0.54075086  0.37404746  1  0  -0.725898  0  1.994058  0  0  -0.687574  0  2.259042  0  0  -0.708875  0  2.245295  0  0  -0.4444  -0.672299  0  2.267955  0
O  O62  1  0.00012057  0.95925015  0.37404796  1  0  -0.725851  0  1.994066  0  0  -0.687519  0  2.259041  0  0  -0.708821  0  2.245294  0  0  -0.444384  -0.672242  0  2.267955  0
O  O63  1  0.49987759  0.45924922  0.62595290  1  0  -0.725866  0  1.994106  0  0  -0.687525  0  2.259061  0  0  -0.708828  0  2.245316  0  0  -0.444409  -0.67225  0  2.267974  0
O  O64  1  0.31917887  0.02615135  0.59230442  1  0  -0.779367  0  2.030033  0  0  -0.739032  0  2.295444  0  0  -0.759766  0  2.280168  0  0  -0.509847  -0.724014  0  2.305261  0
O  O65  1  0.18081711  0.52614741  0.40769375  1  0  -0.779393  0  2.029954  0  0  -0.739062  0  2.295377  0  0  -0.759788  0  2.280085  0  0  -0.509891  -0.724045  0  2.305193  0
O  O66  1  0.68081815  0.97385249  0.40769503  1  0  -0.779367  0  2.029967  0  0  -0.739041  0  2.295391  0  0  -0.759778  0  2.280127  0  0  -0.509883  -0.724031  0  2.305226  0
O  O67  1  0.81918131  0.47385142  0.59230516  1  0  -0.779346  0  2.030004  0  0  -0.739028  0  2.29545  0  0  -0.759761  0  2.280175  0  0  -0.509846  -0.724007  0  2.305259  0
O  O68  1  0.12487631  0.77431526  0.57944777  1  0  -0.702128  0  1.968095  0  0  -0.663922  0  2.22785  0  0  -0.683249  0  2.21319  0  0  -0.406543  -0.650131  0  2.237367  0
O  O69  1  0.37512012  0.27431421  0.42055064  1  0  -0.702173  0  1.968168  0  0  -0.663957  0  2.227909  0  0  -0.683291  0  2.213262  0  0  -0.406574  -0.650139  0  2.237369  0
O  O70  1  0.87512352  0.22568857  0.42055126  1  0  -0.702183  0  1.968196  0  0  -0.663951  0  2.227905  0  0  -0.683293  0  2.213276  0  0  -0.406533  -0.650156  0  2.237414  0
O  O71  1  0.62487830  0.72568712  0.57944959  1  0  -0.702134  0  1.968266  0  0  -0.663909  0  2.227991  0  0  -0.683246  0  2.213355  0  0  -0.40649  -0.650116  0  2.237508  0
