# generated using pymatgen
data_CdH8C4(NCl)2
_symmetry_space_group_name_H-M   'P 1'
_cell_length_a   7.30322687
_cell_length_b   7.59766378
_cell_length_c   7.60289861
_cell_angle_alpha   107.95522531
_cell_angle_beta   88.96575851
_cell_angle_gamma   88.96812107
_symmetry_Int_Tables_number   1
_chemical_formula_structural   CdH8C4(NCl)2
_chemical_formula_sum   'Cd2 H16 C8 N4 Cl4'
_cell_volume   401.13109957
_cell_formula_units_Z   2
loop_
 _symmetry_equiv_pos_site_id
 _symmetry_equiv_pos_as_xyz
  1  'x, y, z'
loop_
 _atom_site_type_symbol
 _atom_site_label
 _atom_site_symmetry_multiplicity
 _atom_site_fract_x
 _atom_site_fract_y
 _atom_site_fract_z
 _atom_site_occupancy
 _atom_site_hle17_bader_spin_density
 _atom_site_hle17_ddec_charge
 _atom_site_hle17_ddec_spin_density
 _atom_site_hle17_ddec_sum_bond_order
 _atom_site_hle17_magmom
 _atom_site_hse06_10hf_bader_spin_density
 _atom_site_hse06_10hf_ddec_charge
 _atom_site_hse06_10hf_ddec_spin_density
 _atom_site_hse06_10hf_ddec_sum_bond_order
 _atom_site_hse06_10hf_magmom
 _atom_site_hse06_bader_spin_density
 _atom_site_hse06_ddec_charge
 _atom_site_hse06_ddec_spin_density
 _atom_site_hse06_ddec_sum_bond_order
 _atom_site_hse06_magmom
 _atom_site_pbe_bader_spin_density
 _atom_site_pbe_cm5_charge
 _atom_site_pbe_ddec_charge
 _atom_site_pbe_ddec_spin_density
 _atom_site_pbe_ddec_sum_bond_order
 _atom_site_pbe_magmom
Cd  Cd0  1  0.74953308  0.08942413  0.93755630  1  0  0.951381  0  1.879903  0  0  0.77721  0  2.332592  0  0  0.826749  0  2.293359  0  0  0.593048  0.742582  0  2.35882  0
Cd  Cd1  1  0.24961756  0.93752164  0.08938967  1  0  0.951485  0  1.879818  0  0  0.777338  0  2.332419  0  0  0.826811  0  2.293311  0  0  0.593012  0.742731  0  2.358609  0
H  H2  1  0.75809062  0.50245901  0.20562672  1  0  0.075938  0  0.925188  0  0  0.094357  0  0.98382  0  0  0.094184  0  0.984341  0  0  0.100771  0.09434  0  0.983572  0
H  H3  1  0.82513332  0.81712294  0.53662230  1  0  0.099443  0  0.96302  0  0  0.111009  0  1.027268  0  0  0.113071  0  1.024838  0  0  0.1  0.109463  0  1.02907  0
H  H4  1  0.32539855  0.53609122  0.81747475  1  0  0.098863  0  0.964156  0  0  0.110603  0  1.028159  0  0  0.112688  0  1.025681  0  0  0.099845  0.109021  0  1.030019  0
H  H5  1  0.25836953  0.20585529  0.50209239  1  0  0.076259  0  0.92475  0  0  0.094223  0  0.983695  0  0  0.094103  0  0.984175  0  0  0.100759  0.0942  0  0.983461  0
H  H6  1  0.79438214  0.66704269  0.08301179  1  0  0.070615  0  0.970873  0  0  0.084843  0  1.040073  0  0  0.0853  0  1.040031  0  0  0.091889  0.084387  0  1.040225  0
H  H7  1  0.71855167  0.89257067  0.34623059  1  0  0.094922  0  0.964332  0  0  0.105105  0  1.03226  0  0  0.107374  0  1.029997  0  0  0.103123  0.103347  0  1.034064  0
H  H8  1  0.21836457  0.34583960  0.89292498  1  0  0.095586  0  0.963369  0  0  0.105341  0  1.031813  0  0  0.107585  0  1.029542  0  0  0.103238  0.103651  0  1.033549  0
H  H9  1  0.29430135  0.08317462  0.66664736  1  0  0.071141  0  0.970091  0  0  0.085102  0  1.039355  0  0  0.085571  0  1.039327  0  0  0.09198  0.084644  0  1.039513  0
H  H10  1  0.87806541  0.31235814  0.64735191  1  0  0.105883  0  0.951791  0  0  0.114884  0  1.018415  0  0  0.116888  0  1.01673  0  0  0.110154  0.113424  0  1.019632  0
H  H11  1  0.53730484  0.31082331  0.66365022  1  0  0.069634  0  0.938565  0  0  0.08872  0  0.998627  0  0  0.087925  0  0.999977  0  0  0.103403  0.089215  0  0.997743  0
H  H12  1  0.03712653  0.66395244  0.31062551  1  0  0.069912  0  0.937809  0  0  0.08886  0  0.998026  0  0  0.088078  0  0.999358  0  0  0.103435  0.08935  0  0.997156  0
H  H13  1  0.37798576  0.64713770  0.31233316  1  0  0.105653  0  0.951984  0  0  0.114533  0  1.01877  0  0  0.116533  0  1.017083  0  0  0.110005  0.113076  0  1.019991  0
H  H14  1  0.89464849  0.56644832  0.77711081  1  0  0.100287  0  0.961757  0  0  0.110817  0  1.028424  0  0  0.113286  0  1.025643  0  0  0.100392  0.108872  0  1.030642  0
H  H15  1  0.59121913  0.18916335  0.42631298  1  0  0.074384  0  0.968045  0  0  0.086791  0  1.03823  0  0  0.087555  0  1.037998  0  0  0.090472  0.086121  0  1.038492  0
H  H16  1  0.09082688  0.42636628  0.18928214  1  0  0.074355  0  0.968096  0  0  0.08666  0  1.038348  0  0  0.087423  0  1.038124  0  0  0.090373  0.085992  0  1.038604  0
H  H17  1  0.39444317  0.77702344  0.56627288  1  0  0.099938  0  0.961373  0  0  0.110421  0  1.028125  0  0  0.11289  0  1.025338  0  0  0.100252  0.108478  0  1.030346  0
C  C18  1  0.84490259  0.53707697  0.10199155  1  0  -0.015377  0  3.664897  0  0  -0.067562  0  3.917137  0  0  -0.065233  0  3.932647  0  0  -0.071377  -0.068873  0  3.906439  0
C  C19  1  0.73712840  0.91381263  0.49377842  1  0  0.042167  0  3.544121  0  0  -0.021993  0  3.790794  0  0  -0.011726  0  3.800117  0  0  0.006677  -0.028835  0  3.784678  0
C  C20  1  0.23719431  0.49341467  0.91404759  1  0  0.042253  0  3.544261  0  0  -0.021863  0  3.791277  0  0  -0.011547  0  3.80052  0  0  0.00687  -0.028749  0  3.785175  0
C  C21  1  0.34500351  0.10213857  0.53679649  1  0  -0.016096  0  3.664275  0  0  -0.067446  0  3.915979  0  0  -0.0652  0  3.931549  0  0  -0.071429  -0.068758  0  3.905296  0
C  C22  1  0.87201508  0.42453121  0.77883677  1  0  0.044648  0  3.510497  0  0  -0.016391  0  3.752714  0  0  -0.006118  0  3.761592  0  0  0.016182  -0.023218  0  3.7469  0
C  C23  1  0.54229774  0.17413944  0.55853312  1  0  -0.016287  0  3.667638  0  0  -0.067692  0  3.920656  0  0  -0.06535  0  3.935676  0  0  -0.070717  -0.068996  0  3.910203  0
C  C24  1  0.04217064  0.55866347  0.17410258  1  0  -0.016717  0  3.666574  0  0  -0.067983  0  3.919996  0  0  -0.06565  0  3.934967  0  0  -0.070699  -0.069279  0  3.90953  0
C  C25  1  0.37194942  0.77871984  0.42440531  1  0  0.045778  0  3.509251  0  0  -0.01502  0  3.75151  0  0  -0.004732  0  3.760378  0  0  0.016515  -0.021855  0  3.745704  0
N  N26  1  0.83848595  0.38671868  0.92889857  1  0  -0.26643  0  3.225747  0  0  -0.182727  0  3.493135  0  0  -0.204561  0  3.5159  0  0  -0.337251  -0.168101  0  3.477434  0
N  N27  1  0.66380297  0.05131790  0.61913236  1  0  -0.281021  0  3.228391  0  0  -0.198776  0  3.492347  0  0  -0.220324  0  3.515861  0  0  -0.340658  -0.184294  0  3.476154  0
N  N28  1  0.16388324  0.61900916  0.05132393  1  0  -0.280983  0  3.229277  0  0  -0.198349  0  3.492721  0  0  -0.219911  0  3.516239  0  0  -0.340661  -0.183859  0  3.47654  0
N  N29  1  0.33859019  0.92886569  0.38650578  1  0  -0.267091  0  3.224863  0  0  -0.183587  0  3.49202  0  0  -0.205407  0  3.514793  0  0  -0.33726  -0.168958  0  3.476334  0
Cl  Cl30  1  0.05966527  0.89837484  0.78831572  1  0  -0.579797  0  1.012631  0  0  -0.516476  0  1.297602  0  0  -0.536958  0  1.277391  0  0  -0.297296  -0.501742  0  1.311131  0
Cl  Cl31  1  0.44506950  0.24624751  0.12872069  1  0  -0.570625  0  0.943021  0  0  -0.502291  0  1.216741  0  0  -0.522224  0  1.195853  0  0  -0.298836  -0.487892  0  1.230654  0
Cl  Cl32  1  0.94494649  0.12842956  0.24610728  1  0  -0.570672  0  0.942224  0  0  -0.502403  0  1.215925  0  0  -0.522338  0  1.195066  0  0  -0.299009  -0.488003  0  1.229823  0
Cl  Cl33  1  0.55952944  0.78818657  0.89800754  1  0  -0.57943  0  1.013073  0  0  -0.516258  0  1.298357  0  0  -0.536736  0  1.278129  0  0  -0.297197  -0.501482  0  1.311804  0
