# generated using pymatgen
data_AlH7C13NClO5
_symmetry_space_group_name_H-M   'P 1'
_cell_length_a   6.63726424
_cell_length_b   13.05339156
_cell_length_c   16.90989736
_cell_angle_alpha   84.13778706
_cell_angle_beta   82.90882003
_cell_angle_gamma   78.17070892
_symmetry_Int_Tables_number   1
_chemical_formula_structural   AlH7C13NClO5
_chemical_formula_sum   'Al2 H14 C26 N2 Cl2 O10'
_cell_volume   1418.51249475
_cell_formula_units_Z   2
loop_
 _symmetry_equiv_pos_site_id
 _symmetry_equiv_pos_as_xyz
  1  'x, y, z'
loop_
 _atom_site_type_symbol
 _atom_site_label
 _atom_site_symmetry_multiplicity
 _atom_site_fract_x
 _atom_site_fract_y
 _atom_site_fract_z
 _atom_site_occupancy
 _atom_site_pbe_bader_charge
 _atom_site_pbe_bader_spin_density
 _atom_site_pbe_cm5_charge
 _atom_site_pbe_ddec_charge
 _atom_site_pbe_ddec_spin_density
 _atom_site_pbe_ddec_sum_bond_order
 _atom_site_pbe_magmom
Al  Al0  1  0.49999704  0.50000539  0.49999806  1  2.499758  0  0.392477  1.643104  0  2.571659  0
Al  Al1  1  0.99999569  0.50000600  0.50000324  1  2.501505  0  0.394975  1.646087  0  2.578698  0
H  H2  1  0.26186677  0.55563463  0.40150435  1  0.64824  0  0.349604  0.424742  0  0.865447  0
H  H3  1  0.73810235  0.44437086  0.59849809  1  0.648155  0  0.349633  0.424614  0  0.865542  0
H  H4  1  0.89284165  0.45571888  0.73790067  1  0.076663  0  0.107649  0.108284  0  1.000288  0
H  H5  1  0.83270143  0.44673067  0.88723935  1  0.109225  0  0.108931  0.114142  0  1.010143  0
H  H6  1  0.34963363  0.59819855  0.89096307  1  0.105487  0  0.11358  0.130691  0  0.990122  0
H  H7  1  0.65040120  0.40179549  0.10903081  1  0.105699  0  0.113605  0.130751  0  0.990164  0
H  H8  1  0.16734030  0.55326866  0.11276333  1  0.108904  0  0.108839  0.114026  0  1.01008  0
H  H9  1  0.10717812  0.54427857  0.26210264  1  0.075764  0  0.107717  0.108485  0  1.000023  0
H  H10  1  0.31468082  0.82421295  0.53253750  1  0.093227  0  0.110191  0.117781  0  0.997899  0
H  H11  1  0.95648985  0.80699011  0.44596770  1  0.107831  0  0.109721  0.119354  0  0.994891  0
H  H12  1  0.91058856  0.00205500  0.44105408  1  0.059358  0  0.102994  0.104331  0  1.01073  0
H  H13  1  0.68525253  0.17579738  0.46744872  1  0.093276  0  0.110278  0.117933  0  0.997811  0
H  H14  1  0.04347002  0.19301917  0.55403558  1  0.107405  0  0.109825  0.119471  0  0.995106  0
H  H15  1  0.08935537  0.99795581  0.55894459  1  0.058277  0  0.102952  0.104191  0  1.010824  0
C  C16  1  0.66925014  0.68892819  0.48959690  1  1.563298  0  0.263739  0.635914  0  4.105115  0
C  C17  1  0.81111226  0.47771205  0.35859354  1  1.618784  0  0.270906  0.657999  0  4.08591  0
C  C18  1  0.33071632  0.31107978  0.51040138  1  1.562947  0  0.263684  0.635922  0  4.10506  0
C  C19  1  0.18893448  0.52228273  0.64140619  1  1.618384  0  0.270986  0.658064  0  4.085935  0
C  C20  1  0.15819772  0.52781464  0.73005657  1  -0.016424  0  -0.010355  -0.093076  0  3.916137  0
C  C21  1  0.99347626  0.48554283  0.77238356  1  -0.034449  0  -0.076316  -0.064727  0  3.990088  0
C  C22  1  0.95892046  0.48067668  0.85493926  1  0.048777  0  -0.083928  -0.148914  0  3.95377  0
C  C23  1  0.09021388  0.52087301  0.89775953  1  0.310916  0  0.091755  0.192663  0  4.039666  0
C  C24  1  0.25190320  0.56576779  0.85687946  1  0.087512  0  -0.083582  -0.211265  0  3.930195  0
C  C25  1  0.28653197  0.56903494  0.77369081  1  0.007146  0  0.02262  0.140307  0  4.031649  0
C  C26  1  0.74814250  0.43422234  0.14311765  1  0.087766  0  -0.08363  -0.211378  0  3.930714  0
C  C27  1  0.90982830  0.47912175  0.10223926  1  0.310884  0  0.09177  0.192499  0  4.039957  0
C  C28  1  0.04112525  0.51931713  0.14506532  1  0.048255  0  -0.083852  -0.148652  0  3.95349  0
C  C29  1  0.00655165  0.51444997  0.22762080  1  -0.033225  0  -0.076392  -0.065022  0  3.99003  0
C  C30  1  0.84182909  0.47217359  0.26994279  1  -0.016576  0  -0.010318  -0.093052  0  3.916175  0
C  C31  1  0.71350596  0.43095905  0.22630587  1  0.007557  0  0.022641  0.140396  0  4.03185  0
C  C32  1  0.44397817  0.86396209  0.51320705  1  -0.029353  0  -0.074182  -0.133973  0  3.91681  0
C  C33  1  0.80686247  0.85569228  0.46377947  1  -0.103021  0  -0.086829  -0.099967  0  3.994019  0
C  C34  1  0.78095057  0.96313449  0.46172752  1  -0.011425  0  -0.089345  -0.135542  0  4.006467  0
C  C35  1  0.58582898  0.02550761  0.48669419  1  -0.015069  0  -0.003319  0.078942  0  3.992159  0
C  C36  1  0.55596409  0.13604892  0.48678578  1  -0.029362  0  -0.07406  -0.133715  0  3.917088  0
C  C37  1  0.19309626  0.14432281  0.53621523  1  -0.102648  0  -0.086917  -0.100023  0  3.994258  0
C  C38  1  0.21898818  0.03688112  0.53826758  1  -0.010428  0  -0.089129  -0.135136  0  4.006963  0
C  C39  1  0.41409870  0.97450883  0.51329550  1  0.041508  0  -0.003385  0.078837  0  3.99287  0
C  C40  1  0.63667678  0.80537844  0.48915080  1  -0.035857  0  -0.016707  -0.040276  0  3.989118  0
C  C41  1  0.36329746  0.19463231  0.51083865  1  -0.036393  0  -0.016878  -0.040586  0  3.989762  0
N  N42  1  0.07263175  0.52097852  0.98190565  1  -0.497545  0  -0.146077  -0.131586  0  3.263856  0
N  N43  1  0.92741361  0.47901939  0.01809396  1  -0.451579  0  -0.145816  -0.13115  0  3.26379  0
Cl  Cl44  1  0.48403532  0.62914070  0.72749955  1  -0.182831  0  0.01572  -0.050306  0  1.517631  0
Cl  Cl45  1  0.51600658  0.37084408  0.27249156  1  -0.183063  0  0.015695  -0.05033  0  1.517578  0
O  O46  1  0.51095763  0.64614416  0.50264429  1  -1.242414  0  -0.238289  -0.591744  0  2.350092  0
O  O47  1  0.97390182  0.46501800  0.39398791  1  -1.249515  0  -0.231736  -0.583262  0  2.321666  0
O  O48  1  0.14366650  0.35953351  0.52429272  1  -1.262217  0  -0.24123  -0.60458  0  2.357355  0
O  O49  1  0.37362863  0.50069823  0.60854727  1  -1.254151  0  -0.23121  -0.595586  0  2.384809  0
O  O50  1  0.48901882  0.35386172  0.49735007  1  -1.242304  0  -0.238249  -0.591803  0  2.349912  0
O  O51  1  0.02611384  0.53498515  0.60600876  1  -1.249047  0  -0.231882  -0.583548  0  2.321247  0
O  O52  1  0.85631806  0.64047843  0.47571151  1  -1.262286  0  -0.2412  -0.604524  0  2.35711  0
O  O53  1  0.62639126  0.49930241  0.39145526  1  -1.254104  0  -0.231323  -0.595816  0  2.384187  0
O  O54  1  0.24603962  0.54195266  0.45912756  1  -1.453688  0  -0.448166  -0.985096  0  2.200348  0
O  O55  1  0.75395782  0.45806107  0.54087532  1  -1.453533  0  -0.448183  -0.984895  0  2.2004  0
