# generated using pymatgen
data_MnH13C18S(NO2)3
_symmetry_space_group_name_H-M   'P 1'
_cell_length_a   7.70078619
_cell_length_b   8.79146137
_cell_length_c   13.24344285
_cell_angle_alpha   77.36330876
_cell_angle_beta   78.62913788
_cell_angle_gamma   77.81348991
_symmetry_Int_Tables_number   1
_chemical_formula_structural   MnH13C18S(NO2)3
_chemical_formula_sum   'Mn2 H26 C36 S2 N6 O12'
_cell_volume   844.38155074
_cell_formula_units_Z   2
loop_
 _symmetry_equiv_pos_site_id
 _symmetry_equiv_pos_as_xyz
  1  'x, y, z'
loop_
 _atom_site_type_symbol
 _atom_site_label
 _atom_site_symmetry_multiplicity
 _atom_site_fract_x
 _atom_site_fract_y
 _atom_site_fract_z
 _atom_site_occupancy
 _atom_site_hle17_ddec_charge
 _atom_site_hle17_ddec_spin_density
 _atom_site_hle17_ddec_sum_bond_order
 _atom_site_hle17_magmom
 _atom_site_hse06_10hf_ddec_charge
 _atom_site_hse06_10hf_ddec_spin_density
 _atom_site_hse06_10hf_ddec_sum_bond_order
 _atom_site_hse06_10hf_magmom
 _atom_site_hse06_ddec_charge
 _atom_site_hse06_ddec_spin_density
 _atom_site_hse06_ddec_sum_bond_order
 _atom_site_hse06_magmom
 _atom_site_pbe_cm5_charge
 _atom_site_pbe_ddec_charge
 _atom_site_pbe_ddec_spin_density
 _atom_site_pbe_ddec_sum_bond_order
 _atom_site_pbe_magmom
Mn  Mn0  1  0.32647327  0.21355623  0.78232674  1  0.792001  -1.300408  2.63425  -1.248  0.700473  -1.214614  3.165603  -1.168  0.726332  -1.095421  3.115722  -1.043  0.689138  0.685666  -1.29228  3.189725  -1.247
Mn  Mn1  1  0.67487636  0.78488186  0.21853298  1  0.793814  -1.305022  2.635739  -1.252  0.701957  -1.216267  3.167467  -1.169  0.728078  -1.096152  3.117323  -1.043  0.690237  0.687407  -1.293935  3.191596  -1.248
H  H2  1  0.42840766  0.14114529  0.96272221  1  0.41208  -0.000519  0.896968  -0.001  0.381639  -0.000156  0.965645  -0.001  0.39174  -1e-05  0.951435  -0.001  0.298387  0.374237  -0.000214  0.976034  -0.001
H  H3  1  0.57347950  0.85935169  0.03797230  1  0.412402  -0.00052  0.895868  -0.001  0.382276  -0.000161  0.964369  -0.001  0.39241  -2e-06  0.950135  -0.001  0.29823  0.37484  -0.000225  0.974788  -0.001
H  H4  1  0.26958716  0.03990369  0.98003670  1  0.436541  -0.000587  0.823642  -0.001  0.414177  0.000498  0.886727  0.0  0.421136  0.000791  0.88  0.0  0.316979  0.409091  0.000167  0.891688  0.0
H  H5  1  0.73308971  0.95974239  0.02054067  1  0.436685  -0.000596  0.824713  -0.001  0.414047  0.000494  0.888282  0.0  0.421066  0.000768  0.880943  0.0  0.316727  0.408899  0.000162  0.893313  0.0
H  H6  1  0.59875633  0.89553652  0.82608734  1  0.097983  -0.000221  0.933322  -0.001  0.105357  0.000405  0.995707  0.0  0.109  0.00027  0.991004  0.0  0.12505  0.102669  0.000493  0.999351  0.0
H  H7  1  0.40692357  0.10404214  0.17274818  1  0.098251  -0.0002  0.933743  -0.001  0.105807  0.000411  0.995707  0.0  0.109471  0.000271  0.990962  0.0  0.125269  0.103148  0.000502  0.999274  0.0
H  H8  1  0.84057079  0.74350884  0.71222262  1  0.085634  0.000554  0.988696  0.001  0.096488  0.000183  1.051786  0.0  0.097288  -2.3e-05  1.053353  0.0  0.097753  0.096189  0.000484  1.050371  0.0
H  H9  1  0.16596432  0.25908318  0.28510193  1  0.084899  0.000583  0.988491  0.001  0.096422  0.00021  1.05103  0.0  0.097275  -1.2e-05  1.052479  0.0  0.097585  0.096104  0.000522  1.049675  0.0
H  H10  1  0.90741530  0.85056205  0.51904168  1  0.104619  -0.000462  0.937533  -0.001  0.117074  0.000312  0.996342  0.0  0.120281  0.00014  0.993391  0.0  0.108332  0.114762  0.000413  0.998515  0.0
H  H11  1  0.09578697  0.15418226  0.47844621  1  0.103438  -0.000451  0.937679  -0.001  0.116729  0.000315  0.995459  0.0  0.119815  0.00014  0.992654  0.0  0.108434  0.114511  0.000414  0.997487  0.0
H  H12  1  0.81552637  0.06497890  0.36439036  1  0.114568  8.1e-05  0.959944  0.0  0.121628  0.000199  1.023934  0.0  0.126178  0.000176  1.021704  0.0  0.105121  0.118197  0.000189  1.025683  0.0
H  H13  1  0.18357586  0.93985838  0.63424283  1  0.114315  7.9e-05  0.961839  0.0  0.120998  0.0002  1.02637  0.0  0.125491  0.000186  1.024245  0.0  0.105173  0.117609  0.000183  1.027954  0.0
H  H14  1  0.60965984  0.30819798  0.29950563  1  0.103203  0.000364  0.937706  0.0  0.116347  0.000274  0.99365  0.0  0.119688  0.000188  0.992407  0.0  0.107272  0.113767  0.00032  0.994735  0.0
H  H15  1  0.38569688  0.69512393  0.70055497  1  0.102325  0.000346  0.938607  0.0  0.115606  0.00027  0.994503  0.0  0.118901  0.000187  0.993278  0.0  0.106833  0.113044  0.000312  0.995655  0.0
H  H16  1  0.34030625  0.52770670  0.33964344  1  0.119165  -0.000114  0.972489  -0.001  0.124348  0.000417  1.039862  0.0  0.129503  0.000261  1.035205  0.0  0.106536  0.120547  0.000612  1.043259  0.0
H  H17  1  0.65216226  0.47194923  0.66181993  1  0.118585  -0.000102  0.976788  -0.001  0.124167  0.00042  1.043381  0.0  0.129269  0.000258  1.038801  0.0  0.10657  0.120327  0.000623  1.046826  0.0
H  H18  1  0.09978307  0.63325716  0.47486036  1  0.108618  0.000444  0.964726  0.0  0.117422  8.3e-05  1.026562  0.0  0.120665  -2.3e-05  1.025561  0.0  0.10492  0.115131  0.000222  1.027153  0.0
H  H19  1  0.89047056  0.36175464  0.52757001  1  0.109239  0.000444  0.963582  0.0  0.118099  7.1e-05  1.025723  0.0  0.121288  -2.8e-05  1.024879  0.0  0.105641  0.115835  0.000211  1.026222  0.0
H  H20  1  0.08557480  0.50183100  0.66210031  1  0.070905  0.000409  0.962025  0.0  0.081669  0.000607  1.0247  0.0  0.082183  0.00028  1.023811  0.0  0.116111  0.081195  0.0009  1.025708  0.0
H  H21  1  0.90792239  0.49206397  0.33981793  1  0.07211  0.000393  0.958288  0.0  0.082725  0.000593  1.020955  0.0  0.083344  0.000276  1.019954  0.0  0.1164  0.082198  0.000886  1.021974  0.0
H  H22  1  0.22527581  0.52536842  0.85748390  1  0.094726  -0.00073  0.933159  -0.001  0.101467  0.000419  0.996426  0.0  0.105938  0.000214  0.99129  0.0  0.123109  0.097547  0.000562  1.001119  0.0
H  H23  1  0.77626207  0.47520490  0.14104191  1  0.093641  -0.00075  0.933855  -0.001  0.101432  0.000416  0.996187  0.0  0.105891  0.00022  0.99109  0.0  0.123076  0.097549  0.000554  1.000832  0.0
H  H24  1  0.93747201  0.70926342  0.90120592  1  0.122993  0.000676  0.933086  0.001  0.131961  -9e-05  0.987884  0.0  0.136728  1.5e-05  0.985792  0.0  0.113876  0.129912  -0.000146  0.987522  0.0
H  H25  1  0.06420509  0.29261509  0.09541418  1  0.125037  0.000689  0.931997  0.001  0.133974  -8.9e-05  0.986567  0.0  0.138651  2.3e-05  0.984593  0.0  0.114802  0.131981  -0.000144  0.986067  0.0
H  H26  1  0.64345193  0.61798965  0.91674089  1  0.12115  -0.000722  0.975633  -0.002  0.128855  0.000582  1.038319  0.0  0.134286  0.000193  1.032172  0.0  0.109308  0.124516  0.00089  1.04339  0.0
H  H27  1  0.35813828  0.38391970  0.08081795  1  0.121142  -0.000716  0.977941  -0.002  0.128648  0.000592  1.040942  0.0  0.134112  0.000198  1.03471  0.0  0.108638  0.124306  0.000904  1.046031  0.0
C  C28  1  0.62866005  0.93797989  0.74211704  1  0.154568  0.027104  3.623613  0.017  0.117478  0.01211  3.889099  0.006  0.131654  0.007057  3.895636  0.004  0.059145  0.107464  0.012013  3.88535  0.006
C  C29  1  0.37518120  0.06230588  0.25671281  1  0.154755  0.026771  3.620248  0.017  0.117769  0.012034  3.885733  0.006  0.132078  0.006775  3.891936  0.003  0.058679  0.107772  0.011966  3.882149  0.006
C  C30  1  0.76401635  0.85445805  0.67710332  1  -0.118038  -0.006576  3.757495  -0.007  -0.134574  0.000842  4.02099  -0.001  -0.139848  -0.001798  4.037866  -0.002  -0.089339  -0.131439  0.004289  4.00901  0.001
C  C31  1  0.24020450  0.14745426  0.32092408  1  -0.116403  -0.006232  3.755575  -0.007  -0.13374  0.00099  4.019331  -0.001  -0.13901  -0.001618  4.036023  -0.002  -0.088634  -0.130719  0.004397  4.007491  0.001
C  C32  1  0.80103772  0.91279581  0.57054003  1  -0.050554  0.033453  3.680821  0.021  -0.080274  0.018336  3.936796  0.011  -0.072903  0.010005  3.948966  0.006  -0.069208  -0.084362  0.020776  3.927903  0.012
C  C33  1  0.20141426  0.09029393  0.42753355  1  -0.051911  0.033144  3.680723  0.021  -0.08206  0.018256  3.937063  0.011  -0.074554  0.009688  3.94913  0.005  -0.070454  -0.086208  0.020808  3.928268  0.012
C  C34  1  0.69544905  0.05478844  0.52820499  1  0.034793  -0.007034  3.798308  -0.008  0.049798  -0.000827  4.032829  -0.002  0.046425  -0.001414  4.053995  -0.002  0.001676  0.052598  0.000534  4.017666  -0.002
C  C35  1  0.30477287  0.94757201  0.47076415  1  0.03431  -0.006864  3.794933  -0.008  0.050055  -0.000788  4.029294  -0.002  0.046599  -0.001323  4.050433  -0.002  0.001058  0.052864  0.00057  4.014078  -0.002
C  C36  1  0.71212629  0.12394145  0.41889985  1  -0.093276  0.004889  3.706989  0.003  -0.117509  0.002022  3.965142  0.001  -0.119576  0.002736  3.985972  0.002  -0.081702  -0.116609  0.001024  3.951183  0.0
C  C37  1  0.28641242  0.87936918  0.58023740  1  -0.092725  0.004411  3.707474  0.003  -0.116751  0.001848  3.965693  0.001  -0.118834  0.002611  3.98667  0.002  -0.081778  -0.115649  0.000911  3.951492  0.0
C  C38  1  0.59746196  0.25786736  0.38296962  1  -0.10322  -0.005001  3.742508  -0.004  -0.125293  -0.000856  3.999284  -0.001  -0.12967  -0.001448  4.022722  -0.001  -0.083368  -0.122429  -8.3e-05  3.983505  -0.001
C  C39  1  0.39899616  0.74448485  0.61693253  1  -0.102302  -0.00474  3.742876  -0.004  -0.125054  -0.000799  4.000041  -0.001  -0.129428  -0.001357  4.023528  -0.001  -0.083602  -0.122279  -3.8e-05  3.984326  0.0
C  C40  1  0.45596999  0.33364754  0.45296272  1  0.028351  -0.000347  3.817569  -0.001  0.044827  0.001105  4.047383  0.0  0.040398  0.002716  4.070868  0.002  -0.001411  0.047642  0.00128  4.033047  -0.001
C  C41  1  0.53979320  0.66660050  0.54760878  1  0.023911  -0.000556  3.820659  -0.002  0.041834  0.00108  4.049714  0.0  0.037371  0.002626  4.073191  0.002  -0.002525  0.044624  0.001275  4.035487  -0.001
C  C42  1  0.33018931  0.46894618  0.42155408  1  -0.051141  0.015468  3.649213  0.01  -0.081029  0.012325  3.905732  0.007  -0.071915  -0.000135  3.9155  0.0  -0.073011  -0.088081  0.018234  3.900448  0.011
C  C43  1  0.66343909  0.53004390  0.57975655  1  -0.049527  0.016115  3.653108  0.01  -0.079624  0.012489  3.908728  0.007  -0.070537  1e-05  3.918605  0.0  -0.073255  -0.086576  0.018307  3.903362  0.011
C  C44  1  0.19763107  0.52838613  0.49740517  1  -0.122337  0.001996  3.762134  0.0  -0.136456  0.002104  4.022804  0.0  -0.143853  0.002444  4.040083  0.001  -0.087852  -0.131185  0.00434  4.01106  0.001
C  C45  1  0.79501241  0.46816341  0.50442063  1  -0.124757  0.001741  3.766797  0.0  -0.139115  0.002073  4.02786  0.0  -0.146586  0.00236  4.045325  0.001  -0.088875  -0.133808  0.004371  4.015939  0.001
C  C46  1  0.19032009  0.45594945  0.60280683  1  0.125898  0.012603  3.678421  0.007  0.091908  0.006977  3.940806  0.003  0.104359  -0.002847  3.953633  -0.003  0.045867  0.083023  0.010961  3.931953  0.005
C  C47  1  0.80419217  0.53995465  0.39885448  1  0.12521  0.01316  3.680768  0.008  0.091645  0.007044  3.943328  0.003  0.10393  -0.00276  3.956221  -0.003  0.045928  0.082935  0.010928  3.934241  0.005
C  C48  1  0.44106936  0.26795975  0.56117454  1  0.121256  0.005659  3.746816  0.001  0.116191  0.009856  3.982142  0.004  0.124349  0.002393  3.997276  0.0  0.114021  0.109293  0.01293  3.973252  0.006
C  C49  1  0.55651292  0.73154382  0.43928534  1  0.124599  0.005989  3.744015  0.002  0.118456  0.009976  3.980949  0.004  0.126704  0.002465  3.995821  0.0  0.113709  0.111402  0.012962  3.972279  0.006
C  C50  1  0.56007580  0.13074539  0.59874599  1  0.130144  0.019116  3.743173  0.012  0.124529  0.013396  3.978346  0.007  0.13229  0.008187  3.993813  0.004  0.117094  0.118573  0.016029  3.967311  0.008
C  C51  1  0.43978090  0.86979339  0.40096735  1  0.132112  0.018966  3.741134  0.011  0.125146  0.013324  3.978679  0.007  0.132978  0.007982  3.993832  0.004  0.117934  0.119287  0.016044  3.967736  0.008
C  C52  1  0.59930000  0.33040703  0.88494303  1  0.650462  0.00439  3.886193  0.003  0.598384  0.000202  4.188947  0.0  0.630325  -0.000634  4.188308  -0.001  0.22516  0.576329  0.00013  4.188675  0.0
C  C53  1  0.40225908  0.66915608  0.11538779  1  0.651942  0.004428  3.887609  0.003  0.600557  0.000171  4.189502  0.0  0.632494  -0.000768  4.188969  -0.001  0.225693  0.578509  0.000165  4.189176  0.0
C  C54  1  0.77299495  0.39399400  0.87117603  1  -0.061713  -0.021728  3.711969  -0.021  -0.049371  -0.003358  3.958805  -0.005  -0.054646  -0.00212  3.970342  -0.002  0.001259  -0.047124  -0.002083  3.953111  -0.005
C  C55  1  0.22841591  0.60609258  0.12869970  1  -0.062789  -0.022059  3.711489  -0.021  -0.050576  -0.003351  3.958255  -0.005  -0.055858  -0.002147  3.969832  -0.003  0.000382  -0.048368  -0.002079  3.952538  -0.005
C  C56  1  0.93996475  0.30199236  0.84332097  1  0.01149  0.048441  3.640382  0.031  0.007156  0.022883  3.900105  0.013  0.018516  0.008928  3.905911  0.005  0.102762  -0.001285  0.031075  3.897584  0.018
C  C57  1  0.06150580  0.69717091  0.15779129  1  0.011425  0.049265  3.642455  0.032  0.007367  0.022939  3.901742  0.013  0.018655  0.009  3.90766  0.005  0.102101  -0.000967  0.031188  3.898996  0.018
C  C58  1  0.09515009  0.49270207  0.86117979  1  0.103069  0.041108  3.665352  0.027  0.06443  0.020046  3.940373  0.011  0.077704  0.008683  3.945557  0.004  0.036936  0.055258  0.02549  3.938775  0.014
C  C59  1  0.90640432  0.50759766  0.13784794  1  0.103721  0.041984  3.664876  0.027  0.063804  0.020069  3.940388  0.011  0.077076  0.008814  3.945533  0.005  0.035865  0.054485  0.025518  3.938948  0.014
C  C60  1  0.93438982  0.59280866  0.88612122  1  -0.102041  -0.022184  3.738892  -0.021  -0.113485  -0.004056  4.002754  -0.006  -0.119561  -0.002685  4.014488  -0.003  -0.080815  -0.110403  -0.002424  3.99423  -0.006
C  C61  1  0.06720986  0.40841125  0.11160385  1  -0.103757  -0.022558  3.742337  -0.021  -0.11493  -0.004003  4.006184  -0.006  -0.121023  -0.002669  4.018069  -0.003  -0.080795  -0.111828  -0.002384  3.997621  -0.006
C  C62  1  0.77068528  0.54330823  0.89296742  1  -0.048952  0.057281  3.66904  0.037  -0.086801  0.032163  3.933332  0.019  -0.072581  0.01317  3.936141  0.007  -0.080025  -0.096693  0.04434  3.932907  0.026
C  C63  1  0.23080581  0.45782885  0.10526798  1  -0.049807  0.058451  3.670088  0.037  -0.087383  0.032203  3.933867  0.019  -0.073336  0.013315  3.936838  0.007  -0.080226  -0.097293  0.044446  3.933494  0.026
S  S64  1  0.95965307  0.12140821  0.79689035  1  1.254217  -0.002105  5.637206  -0.004  1.158589  0.001499  6.157895  -0.002  1.204807  0.001837  6.142119  -0.001  0.526631  1.126782  0.000861  6.167522  -0.002
S  S65  1  0.04205878  0.87680327  0.20515095  1  1.25422  -0.001966  5.63996  -0.004  1.158228  0.001561  6.161026  -0.002  1.204492  0.00186  6.145232  -0.001  0.525137  1.126367  0.000959  6.170678  -0.002
N  N66  1  0.52947149  0.07641232  0.70492139  1  -0.270985  0.026927  3.262725  0.021  -0.221164  0.01793  3.548371  0.016  -0.236388  0.008647  3.559277  0.008  -0.332195  -0.210545  0.024486  3.53861  0.022
N  N67  1  0.47219034  0.92318024  0.29475476  1  -0.271826  0.027148  3.26229  0.021  -0.221835  0.01806  3.548391  0.016  -0.236851  0.008794  3.55881  0.008  -0.332918  -0.211435  0.024593  3.538885  0.022
N  N68  1  0.31035699  0.32821233  0.63635600  1  -0.299219  0.036491  3.298364  0.033  -0.247413  0.027065  3.591867  0.026  -0.26477  0.019797  3.602944  0.021  -0.343052  -0.235055  0.032581  3.581173  0.031
N  N69  1  0.68709200  0.66956825  0.36467208  1  -0.299552  0.036618  3.297468  0.033  -0.247276  0.026991  3.59078  0.026  -0.264603  0.019615  3.601938  0.02  -0.34258  -0.234939  0.032524  3.579979  0.031
N  N70  1  0.10095899  0.34690638  0.83937138  1  -0.287045  0.007387  3.356862  0.004  -0.238437  0.015651  3.65388  0.016  -0.248655  0.007216  3.660244  0.01  -0.351098  -0.23299  0.024919  3.648128  0.023
N  N71  1  0.90055749  0.65227636  0.16144026  1  -0.28623  0.007529  3.358248  0.004  -0.237356  0.015762  3.65543  0.016  -0.247568  0.007342  3.661864  0.01  -0.35052  -0.23202  0.025005  3.649683  0.023
O  O72  1  0.52390666  0.35097275  0.80366961  1  -0.582594  0.002123  2.008193  0.006  -0.526258  0.002771  2.259374  0.007  -0.563649  0.003617  2.258706  0.007  -0.278148  -0.497984  0.003724  2.257173  0.008
O  O73  1  0.47760189  0.64754526  0.19679444  1  -0.58409  0.002419  2.005562  0.006  -0.52857  0.003072  2.257354  0.007  -0.566144  0.00395  2.25681  0.007  -0.279223  -0.500215  0.004007  2.255083  0.008
O  O74  1  0.54555227  0.26325471  0.97652525  1  -0.589914  -5e-05  1.996598  0.0  -0.537164  -0.002092  2.214448  -0.003  -0.563948  -0.002091  2.207789  -0.003  -0.296143  -0.518299  -0.002173  2.218795  -0.003
O  O75  1  0.45628827  0.73692797  0.02401803  1  -0.591188  1.6e-05  1.993787  0.0  -0.538972  -0.002024  2.211559  -0.003  -0.565823  -0.002079  2.20495  -0.003  -0.296638  -0.520092  -0.002071  2.215901  -0.003
O  O76  1  0.15945683  0.06107055  0.78686610  1  -0.610667  0.001494  2.072143  0.007  -0.548599  -0.001772  2.339559  0.003  -0.583916  -0.001329  2.335461  0.002  -0.320778  -0.523518  -0.003012  2.340631  0.002
O  O77  1  0.84210267  0.93661716  0.21611923  1  -0.612541  0.001346  2.072421  0.007  -0.550307  -0.001997  2.339688  0.003  -0.58569  -0.001507  2.335632  0.002  -0.320963  -0.525237  -0.003318  2.340809  0.002
O  O78  1  0.86131163  0.01369501  0.87612155  1  -0.634776  0.001774  1.964474  0.001  -0.587547  0.004478  2.206638  0.004  -0.609338  0.003796  2.194264  0.003  -0.319212  -0.571668  0.00506  2.213252  0.004
O  O79  1  0.13959719  0.98509223  0.12592253  1  -0.635685  0.001772  1.961218  0.001  -0.589051  0.004557  2.203721  0.004  -0.610891  0.003934  2.191414  0.003  -0.320554  -0.57324  0.005077  2.210333  0.004
O  O80  1  0.90043517  0.16704999  0.69534818  1  -0.61444  0.001804  1.961443  0.001  -0.569466  -0.000919  2.21094  -0.001  -0.59636  -0.001413  2.206297  -0.002  -0.31386  -0.550268  -0.000466  2.21336  -0.001
O  O81  1  0.10252970  0.83068923  0.30634622  1  -0.614021  0.001817  1.961376  0.001  -0.568422  -0.000965  2.210613  -0.001  -0.595405  -0.001444  2.206071  -0.002  -0.312778  -0.549168  -0.000532  2.212923  -0.001
O  O82  1  0.37018924  0.07624040  0.92903269  1  -0.754478  0.017377  1.981881  0.019  -0.708526  0.001538  2.206882  0.005  -0.737091  -6e-05  2.184397  0.002  -0.547084  -0.687724  0.003089  2.22057  0.006
O  O83  1  0.63303829  0.92296620  0.07190511  1  -0.756024  0.017082  1.982651  0.018  -0.709554  0.001414  2.207212  0.005  -0.7384  -0.000107  2.184338  0.002  -0.547927  -0.688689  0.002894  2.220976  0.006
