# generated using pymatgen
data_CdH5C3SN5O3
_symmetry_space_group_name_H-M   'P 1'
_cell_length_a   8.90648844
_cell_length_b   10.72020252
_cell_length_c   19.90797454
_cell_angle_alpha   100.90073992
_cell_angle_beta   90.00000772
_cell_angle_gamma   89.99993938
_symmetry_Int_Tables_number   1
_chemical_formula_structural   CdH5C3SN5O3
_chemical_formula_sum   'Cd8 H40 C24 S8 N40 O24'
_cell_volume   1866.50313053
_cell_formula_units_Z   8
loop_
 _symmetry_equiv_pos_site_id
 _symmetry_equiv_pos_as_xyz
  1  'x, y, z'
loop_
 _atom_site_type_symbol
 _atom_site_label
 _atom_site_symmetry_multiplicity
 _atom_site_fract_x
 _atom_site_fract_y
 _atom_site_fract_z
 _atom_site_occupancy
 _atom_site_hle17_bader_spin_density
 _atom_site_hle17_ddec_charge
 _atom_site_hle17_ddec_spin_density
 _atom_site_hle17_ddec_sum_bond_order
 _atom_site_hle17_magmom
 _atom_site_hse06_10hf_bader_spin_density
 _atom_site_hse06_10hf_ddec_charge
 _atom_site_hse06_10hf_ddec_spin_density
 _atom_site_hse06_10hf_ddec_sum_bond_order
 _atom_site_hse06_10hf_magmom
 _atom_site_hse06_bader_spin_density
 _atom_site_hse06_ddec_charge
 _atom_site_hse06_ddec_spin_density
 _atom_site_hse06_ddec_sum_bond_order
 _atom_site_hse06_magmom
 _atom_site_pbe_bader_spin_density
 _atom_site_pbe_cm5_charge
 _atom_site_pbe_ddec_charge
 _atom_site_pbe_ddec_spin_density
 _atom_site_pbe_ddec_sum_bond_order
 _atom_site_pbe_magmom
Cd  Cd0  1  0.70537110  0.13413370  0.17699952  1  0  1.032086  0  1.811824  0  0  0.808274  0  2.29073  0  0  0.861016  0  2.244776  0  0  0.801268  0.771032  0  2.321853  0
Cd  Cd1  1  0.70536657  0.36585629  0.82299990  1  0  1.032127  0  1.811956  0  0  0.808323  0  2.290863  0  0  0.861055  0  2.244928  0  0  0.801282  0.771254  0  2.321919  0
Cd  Cd2  1  0.29463311  0.86585696  0.82300054  1  0  1.032137  0  1.811903  0  0  0.808334  0  2.290803  0  0  0.861071  0  2.244859  0  0  0.801309  0.771265  0  2.32186  0
Cd  Cd3  1  0.29463315  0.63413437  0.17700116  1  0  1.0321  0  1.811834  0  0  0.808314  0  2.290729  0  0  0.861042  0  2.244775  0  0  0.801276  0.771253  0  2.321782  0
Cd  Cd4  1  0.78811313  0.00390497  0.34235617  1  0  1.034276  0  1.794565  0  0  0.814152  0  2.273742  0  0  0.867054  0  2.226971  0  0  0.796142  0.776608  0  2.305628  0
Cd  Cd5  1  0.78811400  0.49609445  0.65764320  1  0  1.034314  0  1.794581  0  0  0.814182  0  2.273766  0  0  0.867085  0  2.226994  0  0  0.796158  0.776638  0  2.305652  0
Cd  Cd6  1  0.21188547  0.99609424  0.65764274  1  0  1.034346  0  1.794537  0  0  0.814221  0  2.273709  0  0  0.867119  0  2.226941  0  0  0.796175  0.776676  0  2.305593  0
Cd  Cd7  1  0.21188909  0.50390381  0.34235511  1  0  1.034317  0  1.794616  0  0  0.814152  0  2.2738  0  0  0.867053  0  2.227031  0  0  0.796148  0.776607  0  2.305685  0
H  H8  1  0.49766133  0.94854482  0.07435678  1  0  0.344215  0  0.896194  0  0  0.321809  0  0.969769  0  0  0.329117  0  0.963032  0  0  0.304103  0.316667  0  0.974465  0
H  H9  1  0.49767406  0.55145298  0.92564558  1  0  0.344261  0  0.896075  0  0  0.321863  0  0.969627  0  0  0.329168  0  0.962894  0  0  0.304163  0.316746  0  0.97428  0
H  H10  1  0.50233390  0.05145439  0.92564514  1  0  0.34421  0  0.896153  0  0  0.321814  0  0.969706  0  0  0.329122  0  0.962967  0  0  0.304136  0.316682  0  0.974391  0
H  H11  1  0.50233688  0.44854529  0.07435575  1  0  0.344212  0  0.896164  0  0  0.32181  0  0.969735  0  0  0.329111  0  0.963009  0  0  0.304107  0.316694  0  0.974384  0
H  H12  1  0.41905918  0.79847842  0.06855532  1  0  0.343408  0  0.908882  0  0  0.322384  0  0.979924  0  0  0.329482  0  0.973575  0  0  0.303044  0.31746  0  0.984219  0
H  H13  1  0.41905937  0.70151279  0.93144336  1  0  0.343419  0  0.908836  0  0  0.322384  0  0.979895  0  0  0.329489  0  0.973542  0  0  0.30306  0.31746  0  0.984175  0
H  H14  1  0.58094054  0.20151699  0.93144321  1  0  0.343433  0  0.908789  0  0  0.322398  0  0.97985  0  0  0.329506  0  0.973489  0  0  0.30306  0.317463  0  0.984155  0
H  H15  1  0.58094371  0.29847787  0.06855619  1  0  0.343408  0  0.908888  0  0  0.322383  0  0.979925  0  0  0.32949  0  0.973563  0  0  0.303038  0.317422  0  0.984282  0
H  H16  1  0.97901093  0.20042693  0.44271630  1  0  0.324702  0  0.9196  0  0  0.309439  0  0.982988  0  0  0.316036  0  0.977753  0  0  0.298188  0.304735  0  0.986725  0
H  H17  1  0.97901426  0.29957516  0.55728285  1  0  0.324753  0  0.919553  0  0  0.309478  0  0.98295  0  0  0.316075  0  0.977714  0  0  0.298231  0.304774  0  0.986688  0
H  H18  1  0.02098766  0.79957513  0.55728290  1  0  0.324734  0  0.919564  0  0  0.309457  0  0.98297  0  0  0.316054  0  0.977734  0  0  0.298203  0.304753  0  0.986708  0
H  H19  1  0.02099108  0.70042595  0.44271625  1  0  0.324719  0  0.919543  0  0  0.309431  0  0.982964  0  0  0.316028  0  0.977728  0  0  0.298185  0.304727  0  0.9867  0
H  H20  1  0.06143597  0.34752314  0.44815261  1  0  0.33757  0  0.890975  0  0  0.320651  0  0.957274  0  0  0.327595  0  0.951097  0  0  0.30186  0.315697  0  0.961693  0
H  H21  1  0.06143835  0.15247790  0.55184688  1  0  0.337572  0  0.890994  0  0  0.320667  0  0.957274  0  0  0.327611  0  0.951097  0  0  0.301868  0.315713  0  0.961695  0
H  H22  1  0.93856151  0.65247797  0.55184700  1  0  0.337566  0  0.890975  0  0  0.320655  0  0.957268  0  0  0.3276  0  0.95109  0  0  0.301859  0.315702  0  0.961688  0
H  H23  1  0.93856698  0.84752321  0.44815222  1  0  0.337533  0  0.891021  0  0  0.320629  0  0.957306  0  0  0.327573  0  0.951129  0  0  0.301865  0.315675  0  0.961725  0
H  H24  1  0.11596583  0.32708806  0.08600286  1  0  0.145882  0  0.932948  0  0  0.165673  0  0.986477  0  0  0.167924  0  0.985557  0  0  0.101181  0.16402  0  0.98717  0
H  H25  1  0.11596493  0.17291197  0.91399503  1  0  0.145921  0  0.932977  0  0  0.165717  0  0.986495  0  0  0.16797  0  0.985574  0  0  0.101192  0.164063  0  0.987192  0
H  H26  1  0.88403389  0.67291494  0.91399644  1  0  0.145906  0  0.93299  0  0  0.165705  0  0.986503  0  0  0.167958  0  0.985583  0  0  0.101182  0.164053  0  0.9872  0
H  H27  1  0.88403366  0.82708534  0.08600269  1  0  0.145884  0  0.932977  0  0  0.165682  0  0.9865  0  0  0.167934  0  0.985582  0  0  0.101172  0.164014  0  0.987223  0
H  H28  1  0.03877051  0.18962764  0.11244166  1  0  0.135571  0  0.98322  0  0  0.149663  0  1.048288  0  0  0.151967  0  1.047376  0  0  0.090634  0.147941  0  1.04905  0
H  H29  1  0.03876944  0.31037247  0.88755674  1  0  0.135556  0  0.983209  0  0  0.149642  0  1.048285  0  0  0.151947  0  1.047371  0  0  0.090633  0.147946  0  1.049004  0
H  H30  1  0.96123033  0.81037347  0.88755745  1  0  0.135567  0  0.983231  0  0  0.149652  0  1.048302  0  0  0.151958  0  1.047388  0  0  0.090627  0.147953  0  1.049032  0
H  H31  1  0.96122803  0.68962484  0.11244198  1  0  0.13557  0  0.983288  0  0  0.149659  0  1.048356  0  0  0.151963  0  1.047445  0  0  0.090642  0.147965  0  1.049071  0
H  H32  1  0.19956785  0.26920961  0.15592399  1  0  0.128125  0  0.960523  0  0  0.145952  0  1.017913  0  0  0.147121  0  1.019158  0  0  0.091224  0.145067  0  1.017113  0
H  H33  1  0.19956798  0.23079034  0.84407340  1  0  0.128092  0  0.960595  0  0  0.145933  0  1.017964  0  0  0.147102  0  1.01921  0  0  0.091232  0.14505  0  1.017165  0
H  H34  1  0.80043075  0.73079245  0.84407521  1  0  0.128123  0  0.960497  0  0  0.145933  0  1.017909  0  0  0.147103  0  1.019155  0  0  0.091229  0.14505  0  1.017112  0
H  H35  1  0.80043174  0.76920982  0.15592511  1  0  0.128112  0  0.960516  0  0  0.14594  0  1.017909  0  0  0.14711  0  1.019154  0  0  0.091213  0.145056  0  1.01711  0
H  H36  1  0.66784430  0.54302869  0.34056434  1  0  0.149841  0  0.914105  0  0  0.175397  0  0.959352  0  0  0.177204  0  0.958923  0  0  0.10619  0.174033  0  0.959786  0
H  H37  1  0.66784409  0.95696895  0.65944003  1  0  0.149935  0  0.914123  0  0  0.175497  0  0.95931  0  0  0.177303  0  0.958881  0  0  0.106231  0.174134  0  0.959741  0
H  H38  1  0.33214644  0.45697052  0.65943708  1  0  0.14987  0  0.914103  0  0  0.175436  0  0.959323  0  0  0.177242  0  0.958896  0  0  0.106214  0.174073  0  0.959756  0
H  H39  1  0.33215338  0.04302741  0.34056262  1  0  0.149845  0  0.914119  0  0  0.175411  0  0.959343  0  0  0.177216  0  0.958917  0  0  0.106201  0.174049  0  0.959773  0
H  H40  1  0.78692483  0.63541654  0.29656414  1  0  0.123003  0  0.96846  0  0  0.139641  0  1.031551  0  0  0.14064  0  1.032964  0  0  0.088665  0.138804  0  1.030757  0
H  H41  1  0.78692363  0.86457909  0.70344003  1  0  0.122996  0  0.968448  0  0  0.139643  0  1.031524  0  0  0.140643  0  1.032935  0  0  0.088653  0.138805  0  1.030734  0
H  H42  1  0.21306590  0.36458173  0.70343970  1  0  0.122966  0  0.968356  0  0  0.139636  0  1.031403  0  0  0.140636  0  1.032813  0  0  0.088663  0.138798  0  1.030612  0
H  H43  1  0.21307384  0.13541632  0.29656352  1  0  0.123016  0  0.968421  0  0  0.13967  0  1.031489  0  0  0.140668  0  1.032902  0  0  0.088676  0.138832  0  1.030697  0
H  H44  1  0.64023969  0.53939344  0.25083995  1  0  0.122093  0  0.970244  0  0  0.136031  0  1.03682  0  0  0.137213  0  1.037988  0  0  0.088006  0.135144  0  1.036036  0
H  H45  1  0.64023726  0.96060138  0.74916463  1  0  0.122059  0  0.970291  0  0  0.135981  0  1.036897  0  0  0.137164  0  1.038065  0  0  0.087982  0.135096  0  1.036108  0
H  H46  1  0.35975441  0.46060673  0.74916358  1  0  0.122093  0  0.970172  0  0  0.136033  0  1.036757  0  0  0.137215  0  1.037925  0  0  0.088  0.135146  0  1.035974  0
H  H47  1  0.35975684  0.03939119  0.25083813  1  0  0.122081  0  0.970185  0  0  0.13601  0  1.036781  0  0  0.137192  0  1.037948  0  0  0.087978  0.135124  0  1.035996  0
C  C48  1  0.95905347  0.31719248  0.25599099  1  0  0.293348  0  3.848483  0  0  0.264729  0  4.138911  0  0  0.281898  0  4.153364  0  0  0.199583  0.253371  0  4.128747  0
C  C49  1  0.95905138  0.18280488  0.74400717  1  0  0.293285  0  3.848485  0  0  0.264709  0  4.138845  0  0  0.281878  0  4.153297  0  0  0.199546  0.253353  0  4.128683  0
C  C50  1  0.04094737  0.68280673  0.74400842  1  0  0.293312  0  3.848522  0  0  0.264724  0  4.138902  0  0  0.281893  0  4.153355  0  0  0.199582  0.253366  0  4.128742  0
C  C51  1  0.04094721  0.81719053  0.25599035  1  0  0.293303  0  3.848463  0  0  0.26469  0  4.138887  0  0  0.281859  0  4.15334  0  0  0.199543  0.253333  0  4.128726  0
C  C52  1  0.55341406  0.80736184  0.25635514  1  0  0.283251  0  3.852975  0  0  0.253251  0  4.146917  0  0  0.270588  0  4.161133  0  0  0.199523  0.241877  0  4.136716  0
C  C53  1  0.55341421  0.69263210  0.74364684  1  0  0.2832  0  3.853024  0  0  0.25322  0  4.146931  0  0  0.270558  0  4.161146  0  0  0.19955  0.241846  0  4.136733  0
C  C54  1  0.44657780  0.19263452  0.74364750  1  0  0.283063  0  3.853111  0  0  0.253106  0  4.146987  0  0  0.270444  0  4.1612  0  0  0.199542  0.241732  0  4.136789  0
C  C55  1  0.44658888  0.30736046  0.25635391  1  0  0.283354  0  3.85281  0  0  0.253305  0  4.146825  0  0  0.270642  0  4.161038  0  0  0.199556  0.241929  0  4.136624  0
C  C56  1  0.98522432  0.26618469  0.35493234  1  0  0.603606  0  3.834398  0  0  0.553771  0  4.115911  0  0  0.578952  0  4.124178  0  0  0.322528  0.536729  0  4.109989  0
C  C57  1  0.98522214  0.23381834  0.64506690  1  0  0.603627  0  3.834432  0  0  0.553836  0  4.115898  0  0  0.57902  0  4.124163  0  0  0.322519  0.536795  0  4.109976  0
C  C58  1  0.01477876  0.73381547  0.64506666  1  0  0.603569  0  3.834452  0  0  0.553768  0  4.115928  0  0  0.57895  0  4.124193  0  0  0.322474  0.536726  0  4.110005  0
C  C59  1  0.01477757  0.76618276  0.35493220  1  0  0.603545  0  3.834258  0  0  0.553716  0  4.11577  0  0  0.57889  0  4.124044  0  0  0.322465  0.536675  0  4.109847  0
C  C60  1  0.52317650  0.86646706  0.15919233  1  0  0.609045  0  3.863642  0  0  0.558709  0  4.141249  0  0  0.584302  0  4.149906  0  0  0.324262  0.541334  0  4.135255  0
C  C61  1  0.52317900  0.63352311  0.84080775  1  0  0.608788  0  3.863801  0  0  0.558553  0  4.141288  0  0  0.584141  0  4.149949  0  0  0.324161  0.541179  0  4.135298  0
C  C62  1  0.47681760  0.13352550  0.84080892  1  0  0.608696  0  3.863881  0  0  0.558526  0  4.141302  0  0  0.584099  0  4.14998  0  0  0.324159  0.541152  0  4.135303  0
C  C63  1  0.47683082  0.36646756  0.15919281  1  0  0.608957  0  3.863629  0  0  0.558704  0  4.14114  0  0  0.584298  0  4.149793  0  0  0.324274  0.541329  0  4.135147  0
C  C64  1  0.09401894  0.28111113  0.12976046  1  0  -0.319285  0  3.597591  0  0  -0.388381  0  3.844307  0  0  -0.3898  0  3.850705  0  0  -0.233315  -0.387136  0  3.839967  0
C  C65  1  0.09401910  0.21888797  0.87023783  1  0  -0.319271  0  3.597632  0  0  -0.38838  0  3.844329  0  0  -0.389797  0  3.850721  0  0  -0.233341  -0.387129  0  3.839971  0
C  C66  1  0.90598077  0.71888998  0.87023915  1  0  -0.319306  0  3.597634  0  0  -0.388402  0  3.844368  0  0  -0.389818  0  3.850759  0  0  -0.23332  -0.387154  0  3.840016  0
C  C67  1  0.90598062  0.78110934  0.12976088  1  0  -0.319283  0  3.597682  0  0  -0.388385  0  3.844392  0  0  -0.389801  0  3.850782  0  0  -0.23331  -0.387139  0  3.840045  0
C  C68  1  0.67303036  0.59859620  0.29960602  1  0  -0.314921  0  3.598969  0  0  -0.385312  0  3.849094  0  0  -0.3865  0  3.856042  0  0  -0.231562  -0.38426  0  3.844375  0
C  C69  1  0.67302912  0.90140143  0.70039634  1  0  -0.314951  0  3.599014  0  0  -0.385326  0  3.849128  0  0  -0.386515  0  3.856076  0  0  -0.231551  -0.384277  0  3.844412  0
C  C70  1  0.32696262  0.40140301  0.70039490  1  0  -0.314913  0  3.598865  0  0  -0.385327  0  3.848935  0  0  -0.386518  0  3.855888  0  0  -0.231573  -0.384278  0  3.844221  0
C  C71  1  0.32696723  0.09859398  0.29960570  1  0  -0.314927  0  3.598815  0  0  -0.385324  0  3.848915  0  0  -0.386512  0  3.855864  0  0  -0.231548  -0.384274  0  3.844197  0
S  S72  1  0.97199566  0.39188812  0.18541683  1  0  -0.011259  0  2.355579  0  0  -0.003878  0  2.699051  0  0  -0.006821  0  2.695052  0  0  0.001302  -0.001974  0  2.70187  0
S  S73  1  0.97199369  0.10811112  0.81458204  1  0  -0.011224  0  2.355587  0  0  -0.003862  0  2.699053  0  0  -0.006804  0  2.695054  0  0  0.001312  -0.00196  0  2.701877  0
S  S74  1  0.02800406  0.60811299  0.81458278  1  0  -0.011221  0  2.355613  0  0  -0.003851  0  2.699079  0  0  -0.00679  0  2.695074  0  0  0.001299  -0.001942  0  2.701894  0
S  S75  1  0.02800715  0.89188618  0.18541618  1  0  -0.011228  0  2.355581  0  0  -0.003856  0  2.699065  0  0  -0.006795  0  2.695057  0  0  0.001327  -0.001955  0  2.701894  0
S  S76  1  0.54082667  0.72829016  0.32524638  1  0  0.020881  0  2.367911  0  0  0.030429  0  2.711041  0  0  0.028402  0  2.705619  0  0  0.020164  0.031507  0  2.714612  0
S  S77  1  0.54082557  0.77170570  0.67475529  1  0  0.020887  0  2.367871  0  0  0.030416  0  2.710992  0  0  0.028386  0  2.705571  0  0  0.020153  0.03149  0  2.714565  0
S  S78  1  0.45916407  0.27170906  0.67475504  1  0  0.020921  0  2.367858  0  0  0.030441  0  2.710977  0  0  0.028412  0  2.705558  0  0  0.020151  0.031514  0  2.714549  0
S  S79  1  0.45917414  0.22828497  0.32524577  1  0  0.020915  0  2.367656  0  0  0.030474  0  2.710811  0  0  0.028446  0  2.705388  0  0  0.020202  0.031551  0  2.714383  0
N  N80  1  0.62890727  0.91546212  0.25993900  1  0  -0.331062  0  3.291423  0  0  -0.263244  0  3.578835  0  0  -0.281981  0  3.598522  0  0  -0.270938  -0.250674  0  3.564891  0
N  N81  1  0.62890980  0.58453080  0.74006137  1  0  -0.331045  0  3.291389  0  0  -0.263195  0  3.578772  0  0  -0.281926  0  3.598441  0  0  -0.270926  -0.250621  0  3.564825  0
N  N82  1  0.37108571  0.08453520  0.74006324  1  0  -0.330954  0  3.29143  0  0  -0.26312  0  3.578834  0  0  -0.281848  0  3.5985  0  0  -0.270953  -0.250548  0  3.564888  0
N  N83  1  0.37109329  0.41546081  0.25993878  1  0  -0.33119  0  3.291478  0  0  -0.263348  0  3.578926  0  0  -0.282085  0  3.598613  0  0  -0.270979  -0.250779  0  3.564988  0
N  N84  1  0.87316109  0.21564163  0.25618130  1  0  -0.343289  0  3.301974  0  0  -0.273856  0  3.59089  0  0  -0.293354  0  3.610965  0  0  -0.276696  -0.260744  0  3.576831  0
N  N85  1  0.87315664  0.28435485  0.74381678  1  0  -0.343368  0  3.302181  0  0  -0.273961  0  3.591119  0  0  -0.29346  0  3.611194  0  0  -0.276722  -0.260846  0  3.577046  0
N  N86  1  0.12684199  0.78435568  0.74381792  1  0  -0.343331  0  3.30209  0  0  -0.273924  0  3.591041  0  0  -0.293423  0  3.611115  0  0  -0.276715  -0.260808  0  3.576967  0
N  N87  1  0.12684196  0.71564055  0.25618125  1  0  -0.343329  0  3.301981  0  0  -0.273906  0  3.59091  0  0  -0.293404  0  3.610983  0  0  -0.276734  -0.26079  0  3.576836  0
N  N88  1  0.61050043  0.95429037  0.19839936  1  0  -0.425002  0  3.169078  0  0  -0.349955  0  3.456278  0  0  -0.37323  0  3.472706  0  0  -0.293836  -0.3337  0  3.444407  0
N  N89  1  0.61050639  0.54570256  0.80160152  1  0  -0.424918  0  3.168982  0  0  -0.349985  0  3.456254  0  0  -0.373254  0  3.472678  0  0  -0.293841  -0.333727  0  3.444373  0
N  N90  1  0.38949367  0.04570314  0.80160149  1  0  -0.424914  0  3.168877  0  0  -0.349999  0  3.456124  0  0  -0.373263  0  3.472552  0  0  -0.293838  -0.333741  0  3.444238  0
N  N91  1  0.38950006  0.45429095  0.19839983  1  0  -0.424919  0  3.169011  0  0  -0.349918  0  3.456182  0  0  -0.373192  0  3.47261  0  0  -0.293842  -0.333659  0  3.444294  0
N  N92  1  0.88973443  0.18141079  0.31895562  1  0  -0.406431  0  3.151019  0  0  -0.337848  0  3.443122  0  0  -0.360195  0  3.459168  0  0  -0.283006  -0.322296  0  3.431629  0
N  N93  1  0.88972992  0.31858759  0.68104315  1  0  -0.406421  0  3.15108  0  0  -0.337859  0  3.443184  0  0  -0.360204  0  3.459223  0  0  -0.283022  -0.32231  0  3.431695  0
N  N94  1  0.11026865  0.81858652  0.68104360  1  0  -0.406431  0  3.151115  0  0  -0.337857  0  3.443202  0  0  -0.360208  0  3.459259  0  0  -0.283003  -0.322305  0  3.431709  0
N  N95  1  0.11026643  0.68140877  0.31895497  1  0  -0.406406  0  3.150969  0  0  -0.337814  0  3.443052  0  0  -0.360164  0  3.459114  0  0  -0.282993  -0.322261  0  3.431557  0
N  N96  1  0.48370309  0.77369494  0.19422000  1  0  -0.57278  0  3.130859  0  0  -0.487704  0  3.410739  0  0  -0.515046  0  3.419102  0  0  -0.377275  -0.469053  0  3.404631  0
N  N97  1  0.48370884  0.72629716  0.80578229  1  0  -0.572678  0  3.130878  0  0  -0.487611  0  3.410678  0  0  -0.514951  0  3.41904  0  0  -0.377263  -0.468962  0  3.40457  0
N  N98  1  0.51628652  0.22630047  0.80578254  1  0  -0.572596  0  3.13094  0  0  -0.487576  0  3.410744  0  0  -0.514912  0  3.419112  0  0  -0.377245  -0.468927  0  3.404634  0
N  N99  1  0.51629986  0.27369825  0.19421976  1  0  -0.572699  0  3.13103  0  0  -0.487625  0  3.410876  0  0  -0.514966  0  3.419236  0  0  -0.377246  -0.468983  0  3.40479  0
N  N100  1  0.03147015  0.35236704  0.31711645  1  0  -0.557686  0  3.106504  0  0  -0.474857  0  3.382955  0  0  -0.501725  0  3.391886  0  0  -0.368255  -0.456525  0  3.376546  0
N  N101  1  0.03146921  0.14763307  0.68288144  1  0  -0.557617  0  3.106512  0  0  -0.474801  0  3.382907  0  0  -0.501672  0  3.391838  0  0  -0.368191  -0.456471  0  3.376499  0
N  N102  1  0.96852957  0.64763312  0.68288255  1  0  -0.557668  0  3.106563  0  0  -0.474828  0  3.382929  0  0  -0.501699  0  3.391863  0  0  -0.368229  -0.456497  0  3.376521  0
N  N103  1  0.96852938  0.85236518  0.31711587  1  0  -0.55764  0  3.106466  0  0  -0.47479  0  3.382858  0  0  -0.501656  0  3.391793  0  0  -0.368171  -0.456458  0  3.376449  0
N  N104  1  0.76079588  0.06196151  0.03232657  1  0  0.68323  0  4.123331  0  0  0.713303  0  4.409048  0  0  0.741128  0  4.417316  0  0  0.100415  0.694375  0  4.403395  0
N  N105  1  0.76079355  0.43805027  0.96767155  1  0  0.683583  0  4.123073  0  0  0.713723  0  4.408745  0  0  0.741535  0  4.417036  0  0  0.100524  0.696482  0  4.402792  0
N  N106  1  0.23920496  0.93805004  0.96767309  1  0  0.68333  0  4.122986  0  0  0.713388  0  4.408755  0  0  0.741197  0  4.417057  0  0  0.100424  0.696175  0  4.402784  0
N  N107  1  0.23920168  0.56197838  0.03232934  1  0  0.683321  0  4.123174  0  0  0.713133  0  4.409208  0  0  0.74094  0  4.417498  0  0  0.100479  0.695989  0  4.403219  0
N  N108  1  0.48528052  0.86859803  0.09421415  1  0  -0.708077  0  3.116064  0  0  -0.6781  0  3.36113  0  0  -0.697338  0  3.354837  0  0  -0.588777  -0.664563  0  3.365032  0
N  N109  1  0.48529539  0.63139978  0.90578921  1  0  -0.708088  0  3.11593  0  0  -0.678138  0  3.360992  0  0  -0.697371  0  3.354686  0  0  -0.588831  -0.664581  0  3.364858  0
N  N110  1  0.51470797  0.13140119  0.90578827  1  0  -0.70799  0  3.11603  0  0  -0.678079  0  3.361086  0  0  -0.697305  0  3.354778  0  0  -0.588796  -0.664553  0  3.365013  0
N  N111  1  0.51472229  0.36859944  0.09421422  1  0  -0.708153  0  3.115948  0  0  -0.678202  0  3.360991  0  0  -0.697439  0  3.354691  0  0  -0.588861  -0.664664  0  3.364897  0
N  N112  1  0.03680566  0.26140354  0.41854453  1  0  -0.696713  0  3.033651  0  0  -0.667948  0  3.266558  0  0  -0.686943  0  3.261359  0  0  -0.59116  -0.654455  0  3.269834  0
N  N113  1  0.03680682  0.23859752  0.58145447  1  0  -0.696783  0  3.033601  0  0  -0.668021  0  3.266476  0  0  -0.687015  0  3.261276  0  0  -0.591203  -0.654529  0  3.269755  0
N  N114  1  0.96319406  0.73859662  0.58145549  1  0  -0.696719  0  3.033629  0  0  -0.667963  0  3.266522  0  0  -0.686958  0  3.261322  0  0  -0.591142  -0.65447  0  3.269799  0
N  N115  1  0.96319402  0.76140359  0.41854464  1  0  -0.696665  0  3.033578  0  0  -0.667905  0  3.266492  0  0  -0.686898  0  3.261297  0  0  -0.591152  -0.654411  0  3.269766  0
N  N116  1  0.72221059  0.07418520  0.48218006  1  0  0.688369  0  4.099006  0  0  0.722552  0  4.383757  0  0  0.749127  0  4.391945  0  0  0.098405  0.703384  0  4.37819  0
N  N117  1  0.72220813  0.42581523  0.51781941  1  0  0.688473  0  4.098755  0  0  0.722621  0  4.383507  0  0  0.749236  0  4.391664  0  0  0.098342  0.703455  0  4.377945  0
N  N118  1  0.27779699  0.92581306  0.51782026  1  0  0.68856  0  4.098771  0  0  0.722462  0  4.383827  0  0  0.749185  0  4.391807  0  0  0.098449  0.703295  0  4.378263  0
N  N119  1  0.27779720  0.57418682  0.48217778  1  0  0.68864  0  4.098906  0  0  0.722619  0  4.383848  0  0  0.749368  0  4.391822  0  0  0.098517  0.70345  0  4.378286  0
O  O120  1  0.85067980  0.05450551  0.08248520  1  0  -0.483777  0  1.841192  0  0  -0.447342  0  2.077691  0  0  -0.46924  0  2.069425  0  0  -0.196443  -0.432036  0  2.082961  0
O  O121  1  0.85067745  0.44549290  0.91751106  1  0  -0.484009  0  1.841376  0  0  -0.447534  0  2.07781  0  0  -0.469432  0  2.069546  0  0  -0.196499  -0.432915  0  2.083083  0
O  O122  1  0.14932216  0.94549940  0.91751228  1  0  -0.483951  0  1.841115  0  0  -0.447464  0  2.077592  0  0  -0.469362  0  2.069327  0  0  -0.196497  -0.432864  0  2.082881  0
O  O123  1  0.14931890  0.55451201  0.08248692  1  0  -0.483818  0  1.841376  0  0  -0.447281  0  2.077933  0  0  -0.469188  0  2.069686  0  0  -0.196427  -0.4327  0  2.083207  0
O  O124  1  0.62907054  0.10906892  0.04863284  1  0  -0.515361  0  1.755151  0  0  -0.481101  0  1.966623  0  0  -0.499734  0  1.95882  0  0  -0.20852  -0.468217  0  1.971834  0
O  O125  1  0.62906938  0.39093539  0.95136652  1  0  -0.515465  0  1.754934  0  0  -0.481211  0  1.966381  0  0  -0.499837  0  1.958577  0  0  -0.208533  -0.469061  0  1.971648  0
O  O126  1  0.37092806  0.89093408  0.95136646  1  0  -0.515354  0  1.754915  0  0  -0.481081  0  1.966411  0  0  -0.499713  0  1.958614  0  0  -0.208503  -0.468936  0  1.971666  0
O  O127  1  0.37093370  0.60907237  0.04863527  1  0  -0.515377  0  1.755127  0  0  -0.481048  0  1.966713  0  0  -0.499598  0  1.958832  0  0  -0.208509  -0.468922  0  1.971951  0
O  O128  1  0.62153118  0.05877554  0.43542484  1  0  -0.457431  0  1.779772  0  0  -0.437551  0  2.009222  0  0  -0.457112  0  2.001217  0  0  -0.194718  -0.423443  0  2.014415  0
O  O129  1  0.62153097  0.44122118  0.56457575  1  0  -0.457415  0  1.779723  0  0  -0.437524  0  2.009174  0  0  -0.457101  0  2.001163  0  0  -0.194684  -0.423406  0  2.01434  0
O  O130  1  0.37847303  0.94121892  0.56457660  1  0  -0.457473  0  1.779772  0  0  -0.437505  0  2.009285  0  0  -0.457131  0  2.001257  0  0  -0.194711  -0.423383  0  2.014443  0
O  O131  1  0.37847436  0.55877897  0.43542175  1  0  -0.457432  0  1.779669  0  0  -0.437504  0  2.009163  0  0  -0.457143  0  2.001143  0  0  -0.194707  -0.423381  0  2.014322  0
O  O132  1  0.86088479  0.04769081  0.46161233  1  0  -0.54151  0  1.76444  0  0  -0.50389  0  1.983314  0  0  -0.52329  0  1.973886  0  0  -0.226974  -0.489976  0  1.989742  0
O  O133  1  0.86088343  0.45231044  0.53838774  1  0  -0.541593  0  1.764346  0  0  -0.50395  0  1.983215  0  0  -0.523367  0  1.973781  0  0  -0.226967  -0.490032  0  1.989632  0
O  O134  1  0.13912055  0.95230935  0.53838869  1  0  -0.541598  0  1.764418  0  0  -0.503831  0  1.983309  0  0  -0.523277  0  1.973823  0  0  -0.22698  -0.489918  0  1.989738  0
O  O135  1  0.13912191  0.54769162  0.46161096  1  0  -0.541717  0  1.764631  0  0  -0.503852  0  1.983371  0  0  -0.523305  0  1.973884  0  0  -0.226974  -0.489941  0  1.989804  0
O  O136  1  0.69367857  0.11210171  0.54301766  1  0  -0.359764  0  1.73542  0  0  -0.366092  0  1.931667  0  0  -0.375821  0  1.926844  0  0  -0.149788  -0.358769  0  1.934962  0
O  O137  1  0.69367614  0.38789874  0.45698231  1  0  -0.359811  0  1.735302  0  0  -0.366117  0  1.93155  0  0  -0.375851  0  1.926704  0  0  -0.14976  -0.358797  0  1.934847  0
O  O138  1  0.30633013  0.88789560  0.45698307  1  0  -0.359861  0  1.735281  0  0  -0.366105  0  1.931642  0  0  -0.375871  0  1.926735  0  0  -0.149836  -0.358785  0  1.93494  0
O  O139  1  0.30633368  0.61210806  0.54301435  1  0  -0.359913  0  1.735424  0  0  -0.366235  0  1.931803  0  0  -0.37601  0  1.926888  0  0  -0.149906  -0.358913  0  1.935101  0
O  O140  1  0.79914562  0.02525187  0.97248604  1  0  -0.35812  0  1.729468  0  0  -0.358769  0  1.92002  0  0  -0.368672  0  1.914928  0  0  -0.145427  -0.351813  0  1.923521  0
O  O141  1  0.79913621  0.47478172  0.02751127  1  0  -0.358226  0  1.729503  0  0  -0.358914  0  1.92005  0  0  -0.368812  0  1.914959  0  0  -0.145459  -0.352668  0  1.923494  0
O  O142  1  0.20086083  0.97477393  0.02751255  1  0  -0.358127  0  1.729576  0  0  -0.358773  0  1.920144  0  0  -0.368667  0  1.915052  0  0  -0.145398  -0.352543  0  1.923596  0
O  O143  1  0.20084330  0.52528777  0.97248873  1  0  -0.358128  0  1.72923  0  0  -0.358719  0  1.919901  0  0  -0.368634  0  1.914834  0  0  -0.145496  -0.352509  0  1.923335  0
