# generated using pymatgen
data_Ag2H18C21(NO2)4
_symmetry_space_group_name_H-M   'P 1'
_cell_length_a   9.50401467
_cell_length_b   10.93745516
_cell_length_c   12.47729979
_cell_angle_alpha   78.86555698
_cell_angle_beta   85.47528265
_cell_angle_gamma   64.93312380
_symmetry_Int_Tables_number   1
_chemical_formula_structural   Ag2H18C21(NO2)4
_chemical_formula_sum   'Ag4 H36 C42 N8 O16'
_cell_volume   1152.73070437
_cell_formula_units_Z   2
loop_
 _symmetry_equiv_pos_site_id
 _symmetry_equiv_pos_as_xyz
  1  'x, y, z'
loop_
 _atom_site_type_symbol
 _atom_site_label
 _atom_site_symmetry_multiplicity
 _atom_site_fract_x
 _atom_site_fract_y
 _atom_site_fract_z
 _atom_site_occupancy
 _atom_site_hle17_bader_spin_density
 _atom_site_hle17_ddec_charge
 _atom_site_hle17_ddec_spin_density
 _atom_site_hle17_ddec_sum_bond_order
 _atom_site_hle17_magmom
 _atom_site_hse06_10hf_bader_spin_density
 _atom_site_hse06_10hf_ddec_charge
 _atom_site_hse06_10hf_ddec_spin_density
 _atom_site_hse06_10hf_ddec_sum_bond_order
 _atom_site_hse06_10hf_magmom
 _atom_site_hse06_bader_spin_density
 _atom_site_hse06_ddec_charge
 _atom_site_hse06_ddec_spin_density
 _atom_site_hse06_ddec_sum_bond_order
 _atom_site_hse06_magmom
 _atom_site_pbe_bader_spin_density
 _atom_site_pbe_cm5_charge
 _atom_site_pbe_ddec_charge
 _atom_site_pbe_ddec_spin_density
 _atom_site_pbe_ddec_sum_bond_order
 _atom_site_pbe_magmom
Ag  Ag0  1  0.39153642  0.40773724  0.48221910  1  0  0.56171  0  1.4685  0  0  0.433416  0  1.938439  0  0  0.467952  0  1.879541  0  0  0.431527  0.409685  0  1.98029  0
Ag  Ag1  1  0.60846494  0.59226254  0.51778026  1  0  0.561688  0  1.468543  0  0  0.433395  0  1.938483  0  0  0.467931  0  1.87959  0  0  0.431513  0.409667  0  1.980333  0
Ag  Ag2  1  0.43055932  0.13920899  0.59133661  1  0  0.575992  0  1.428781  0  0  0.453367  0  1.890965  0  0  0.486674  0  1.832562  0  0  0.432282  0.429206  0  1.932948  0
Ag  Ag3  1  0.56943993  0.86079080  0.40866287  1  0  0.575975  0  1.428797  0  0  0.453339  0  1.890991  0  0  0.486646  0  1.832586  0  0  0.432271  0.429179  0  1.932975  0
H  H4  1  0.27356383  0.25380675  0.96456718  1  0  0.111936  0  0.957877  0  0  0.121096  0  1.018603  0  0  0.124256  0  1.016678  0  0  0.112482  0.118903  0  1.019898  0
H  H5  1  0.72643541  0.74619305  0.03543310  1  0  0.111943  0  0.957872  0  0  0.121099  0  1.018602  0  0  0.12426  0  1.016677  0  0  0.112486  0.118906  0  1.019897  0
H  H6  1  0.54579758  0.12155228  0.90379068  1  0  0.106096  0  0.95653  0  0  0.112314  0  1.020129  0  0  0.115661  0  1.019383  0  0  0.103087  0.109943  0  1.020668  0
H  H7  1  0.45420177  0.87844956  0.09620845  1  0  0.106096  0  0.956542  0  0  0.112315  0  1.020144  0  0  0.115661  0  1.019398  0  0  0.103089  0.109943  0  1.020683  0
H  H8  1  0.76064881  0.02266310  0.03928948  1  0  0.084278  0  0.973253  0  0  0.091088  0  1.042253  0  0  0.094024  0  1.040221  0  0  0.097956  0.089042  0  1.04364  0
H  H9  1  0.23935102  0.97733771  0.96070979  1  0  0.08428  0  0.973245  0  0  0.091091  0  1.042244  0  0  0.094027  0  1.040211  0  0  0.097958  0.089045  0  1.043632  0
H  H10  1  0.70738958  0.05658405  0.23279215  1  0  0.109323  0  0.933095  0  0  0.118875  0  0.991159  0  0  0.122689  0  0.989208  0  0  0.107617  0.116307  0  0.992428  0
H  H11  1  0.29261025  0.94341676  0.76720632  1  0  0.109312  0  0.933088  0  0  0.11886  0  0.991161  0  0  0.122674  0  0.989211  0  0  0.1076  0.116291  0  0.992431  0
H  H12  1  0.51001886  0.49980965  0.79402863  1  0  0.114136  0  0.929685  0  0  0.125443  0  0.983357  0  0  0.128973  0  0.981309  0  0  0.111355  0.122953  0  0.984874  0
H  H13  1  0.48998098  0.50019115  0.20596985  1  0  0.114169  0  0.929676  0  0  0.12546  0  0.983363  0  0  0.128989  0  0.981316  0  0  0.111366  0.12297  0  0.98488  0
H  H14  1  0.63377443  0.52542247  0.95137658  1  0  0.089262  0  0.956027  0  0  0.10014  0  1.016668  0  0  0.102103  0  1.017243  0  0  0.101279  0.098733  0  1.016433  0
H  H15  1  0.36622327  0.47457835  0.04862361  1  0  0.089269  0  0.956023  0  0  0.100133  0  1.016677  0  0  0.102097  0  1.017253  0  0  0.101295  0.098725  0  1.016443  0
H  H16  1  0.88274676  0.33714518  0.02945420  1  0  0.108988  0  0.95254  0  0  0.116575  0  1.012782  0  0  0.120253  0  1.009938  0  0  0.10607  0.113908  0  1.015079  0
H  H17  1  0.11725200  0.66285564  0.97054593  1  0  0.109025  0  0.95254  0  0  0.116615  0  1.012775  0  0  0.120293  0  1.009931  0  0  0.10609  0.113948  0  1.015065  0
H  H18  1  0.99665272  0.12015063  0.95484966  1  0  0.10428  0  0.977187  0  0  0.111214  0  1.044823  0  0  0.114623  0  1.042646  0  0  0.105325  0.108896  0  1.046273  0
H  H19  1  0.00334804  0.87984814  0.04515151  1  0  0.104295  0  0.977174  0  0  0.11123  0  1.044812  0  0  0.114639  0  1.042634  0  0  0.105331  0.108912  0  1.046261  0
H  H20  1  0.88084153  0.52288544  0.67183338  1  0  0.103256  0  0.964502  0  0  0.107129  0  1.034196  0  0  0.109674  0  1.03369  0  0  0.114002  0.10537  0  1.034717  0
H  H21  1  0.11915982  0.47711435  0.32816678  1  0  0.103261  0  0.964499  0  0  0.107132  0  1.03419  0  0  0.109674  0  1.033691  0  0  0.114013  0.105372  0  1.034711  0
H  H22  1  0.89872730  0.26744298  0.34808937  1  0  0.133792  0  0.94022  0  0  0.151271  0  1.001837  0  0  0.153275  0  1.00063  0  0  0.099111  0.149648  0  1.002915  0
H  H23  1  0.10127298  0.73255682  0.65191165  1  0  0.133798  0  0.94018  0  0  0.151278  0  1.0018  0  0  0.153281  0  1.000593  0  0  0.099115  0.149655  0  1.002877  0
H  H24  1  0.80238841  0.20568932  0.45793168  1  0  0.12968  0  0.932558  0  0  0.153211  0  0.989184  0  0  0.154205  0  0.989321  0  0  0.101893  0.152196  0  0.989697  0
H  H25  1  0.19761342  0.79430944  0.54206863  1  0  0.129689  0  0.932563  0  0  0.153226  0  0.989179  0  0  0.154219  0  0.989317  0  0  0.101899  0.15221  0  0.989695  0
H  H26  1  0.72455289  0.38382039  0.40371697  1  0  0.116137  0  0.976667  0  0  0.133784  0  1.046751  0  0  0.136497  0  1.044132  0  0  0.089569  0.131386  0  1.049395  0
H  H27  1  0.27544634  0.61617942  0.59628411  1  0  0.116174  0  0.976654  0  0  0.133817  0  1.046726  0  0  0.136532  0  1.044104  0  0  0.089587  0.13142  0  1.049368  0
H  H28  1  0.26857353  0.02199158  0.51799373  1  0  0.123858  0  0.979899  0  0  0.140589  0  1.049435  0  0  0.1434  0  1.047081  0  0  0.089462  0.138017  0  1.052139  0
H  H29  1  0.73142570  0.97800822  0.48200735  1  0  0.12383  0  0.979874  0  0  0.140575  0  1.049402  0  0  0.143386  0  1.047048  0  0  0.089465  0.138002  0  1.052106  0
H  H30  1  0.07940028  0.03146136  0.50159760  1  0  0.115771  0  0.977145  0  0  0.137982  0  1.037547  0  0  0.138765  0  1.038177  0  0  0.095014  0.137565  0  1.036794  0
H  H31  1  0.92060002  0.96853843  0.49840262  1  0  0.115749  0  0.977166  0  0  0.137964  0  1.037566  0  0  0.138746  0  1.038198  0  0  0.095012  0.137546  0  1.036813  0
H  H32  1  0.16206924  0.10938324  0.39418520  1  0  0.141252  0  0.956228  0  0  0.157445  0  1.021543  0  0  0.159337  0  1.02069  0  0  0.099185  0.156041  0  1.022323  0
H  H33  1  0.83793106  0.89061656  0.60581502  1  0  0.141257  0  0.956198  0  0  0.157454  0  1.021512  0  0  0.159347  0  1.020659  0  0  0.0992  0.15605  0  1.022291  0
H  H34  1  0.25880146  0.25891279  0.78571852  1  0  0.117274  0  0.949787  0  0  0.138162  0  1.01173  0  0  0.139341  0  1.011575  0  0  0.093659  0.13712  0  1.012019  0
H  H35  1  0.74119883  0.74108700  0.21428170  1  0  0.117269  0  0.949778  0  0  0.138153  0  1.011727  0  0  0.139335  0  1.011569  0  0  0.093649  0.137112  0  1.012015  0
H  H36  1  0.26265192  0.40663822  0.70077234  1  0  0.121718  0  0.968016  0  0  0.142449  0  1.031241  0  0  0.143589  0  1.031197  0  0  0.093547  0.141414  0  1.031264  0
H  H37  1  0.73734837  0.59336158  0.29922868  1  0  0.121672  0  0.96807  0  0  0.142411  0  1.031288  0  0  0.14355  0  1.031246  0  0  0.093533  0.141374  0  1.031313  0
H  H38  1  0.10816109  0.42583797  0.79589042  1  0  0.133902  0  0.94355  0  0  0.149798  0  1.00627  0  0  0.152252  0  1.004669  0  0  0.096276  0.147911  0  1.007674  0
H  H39  1  0.89183872  0.57416285  0.20411046  1  0  0.133923  0  0.943536  0  0  0.149824  0  1.006249  0  0  0.152278  0  1.004648  0  0  0.096291  0.147936  0  1.007652  0
C  C40  1  0.94043356  0.43528330  0.63061499  1  0  0.016961  0  3.662806  0  0  -0.022581  0  3.92642  0  0  -0.022754  0  3.947604  0  0  0.035418  -0.023243  0  3.912705  0
C  C41  1  0.05956674  0.56471650  0.36938523  1  0  0.016998  0  3.662755  0  0  -0.022527  0  3.92635  0  0  -0.022701  0  3.947532  0  0  0.035434  -0.023188  0  3.912635  0
C  C42  1  0.09350564  0.34348329  0.65598521  1  0  0.259094  0  3.763965  0  0  0.265239  0  4.018896  0  0  0.269698  0  4.041815  0  0  0.112745  0.261617  0  4.003664  0
C  C43  1  0.90649571  0.65651650  0.34401576  1  0  0.259064  0  3.763849  0  0  0.265198  0  4.018801  0  0  0.269656  0  4.041721  0  0  0.11274  0.261575  0  4.003573  0
C  C44  1  0.59467292  0.28175269  0.69589092  1  0  0.651052  0  3.926912  0  0  0.595464  0  4.2195  0  0  0.631071  0  4.214138  0  0  0.204017  0.570755  0  4.222288  0
C  C45  1  0.40532644  0.71824914  0.30410740  1  0  0.65096  0  3.927  0  0  0.59535  0  4.219616  0  0  0.630956  0  4.214259  0  0  0.203974  0.570643  0  4.222403  0
C  C46  1  0.68108412  0.29712525  0.78469444  1  0  -0.086606  0  3.715692  0  0  -0.071338  0  3.957044  0  0  -0.077082  0  3.976944  0  0  -0.006588  -0.067654  0  3.943582  0
C  C47  1  0.31891676  0.70287555  0.21530478  1  0  -0.086589  0  3.715754  0  0  -0.071285  0  3.957106  0  0  -0.077029  0  3.977006  0  0  -0.00659  -0.067602  0  3.943642  0
C  C48  1  0.46149403  0.17353695  0.20822500  1  0  -0.049292  0  3.684866  0  0  -0.037545  0  3.927804  0  0  -0.0385  0  3.94382  0  0  0.004461  -0.037095  0  3.916843  0
C  C49  1  0.53850522  0.82646285  0.79177448  1  0  -0.049238  0  3.68493  0  0  -0.037472  0  3.927819  0  0  -0.038422  0  3.943828  0  0  0.004555  -0.037024  0  3.916862  0
C  C50  1  0.92610080  0.31166536  0.50415095  1  0  0.216503  0  3.663705  0  0  0.219558  0  3.910638  0  0  0.222801  0  3.932096  0  0  0.127569  0.217426  0  3.895837  0
C  C51  1  0.07389997  0.68833340  0.49584942  1  0  0.216549  0  3.663695  0  0  0.219512  0  3.910688  0  0  0.222756  0  3.932146  0  0  0.127536  0.217381  0  3.895885  0
C  C52  1  0.61274002  0.09885116  0.17351106  1  0  -0.088832  0  3.713367  0  0  -0.107924  0  3.962966  0  0  -0.110937  0  3.981631  0  0  -0.082279  -0.10603  0  3.950569  0
C  C53  1  0.38725971  0.90114761  0.82648857  1  0  -0.088835  0  3.713403  0  0  -0.107931  0  3.962991  0  0  -0.110946  0  3.981656  0  0  -0.082281  -0.106037  0  3.950594  0
C  C54  1  0.64260759  0.08087729  0.06511051  1  0  -0.03072  0  3.733717  0  0  -0.051605  0  3.990502  0  0  -0.051331  0  4.011476  0  0  -0.077578  -0.051597  0  3.976168  0
C  C55  1  0.35739224  0.91912353  0.93488876  1  0  -0.030711  0  3.733711  0  0  -0.051601  0  3.99051  0  0  -0.051325  0  4.011476  0  0  -0.07758  -0.051593  0  3.976175  0
C  C56  1  0.34232215  0.22688348  0.12991768  1  0  0.057797  0  3.690029  0  0  0.03354  0  3.942747  0  0  0.035597  0  3.966715  0  0  0.079744  0.035027  0  3.928652  0
C  C57  1  0.65767699  0.77311427  0.87008295  1  0  0.057764  0  3.690149  0  0  0.033488  0  3.942804  0  0  0.035514  0  3.966757  0  0  0.079664  0.034974  0  3.928709  0
C  C58  1  0.08070746  0.21564696  0.53082376  1  0  0.253638  0  3.662604  0  0  0.254177  0  3.911443  0  0  0.260817  0  3.930781  0  0  0.132583  0.249657  0  3.89788  0
C  C59  1  0.91929436  0.78435181  0.46917736  1  0  0.253619  0  3.662647  0  0  0.254271  0  3.911368  0  0  0.26091  0  3.930709  0  0  0.132648  0.249752  0  3.897805  0
C  C60  1  0.37117649  0.21015800  0.02101897  1  0  -0.097541  0  3.732133  0  0  -0.121412  0  3.98621  0  0  -0.120833  0  4.004032  0  0  -0.078058  -0.121051  0  3.972943  0
C  C61  1  0.62882276  0.78984179  0.97898051  1  0  -0.097504  0  3.732154  0  0  -0.121378  0  3.986226  0  0  -0.1208  0  4.004055  0  0  -0.078035  -0.121015  0  3.972958  0
C  C62  1  0.52223271  0.13691923  0.98826924  1  0  -0.062603  0  3.753739  0  0  -0.074481  0  4.005276  0  0  -0.078465  0  4.028377  0  0  -0.085699  -0.071725  0  3.989377  0
C  C63  1  0.47776548  0.86308057  0.01173029  1  0  -0.062622  0  3.753737  0  0  -0.074507  0  4.005283  0  0  -0.078492  0  4.028387  0  0  -0.085702  -0.071751  0  3.989385  0
C  C64  1  0.44079184  0.20554055  0.32226399  1  0  0.653069  0  3.952102  0  0  0.595688  0  4.248064  0  0  0.631287  0  4.241882  0  0  0.206319  0.571413  0  4.251097  0
C  C65  1  0.55920894  0.79445821  0.67773558  1  0  0.653107  0  3.952068  0  0  0.595734  0  4.248002  0  0  0.631331  0  4.241819  0  0  0.206271  0.571459  0  4.251041  0
C  C66  1  0.89039909  0.20438254  0.92006527  1  0  -0.118766  0  3.749546  0  0  -0.142036  0  4.005856  0  0  -0.144788  0  4.026847  0  0  -0.087388  -0.139894  0  3.991519  0
C  C67  1  0.10959847  0.79561627  0.07993848  1  0  -0.118736  0  3.749616  0  0  -0.142004  0  4.005964  0  0  -0.144754  0  4.026954  0  0  -0.08741  -0.139862  0  3.991626  0
C  C68  1  0.81779741  0.19181914  0.83274896  1  0  0.062291  0  3.715  0  0  0.044084  0  3.968984  0  0  0.044179  0  3.990914  0  0  0.078636  0.044034  0  3.954296  0
C  C69  1  0.18220287  0.80818066  0.16725206  1  0  0.062248  0  3.715143  0  0  0.04398  0  3.969218  0  0  0.044076  0  3.991147  0  0  0.078634  0.04393  0  3.954528  0
C  C70  1  0.61655795  0.41699731  0.82978972  1  0  -0.045427  0  3.696365  0  0  -0.069407  0  3.948558  0  0  -0.068764  0  3.965895  0  0  -0.074461  -0.069641  0  3.936761  0
C  C71  1  0.38344129  0.58300249  0.17021056  1  0  -0.045433  0  3.696374  0  0  -0.069406  0  3.948557  0  0  -0.068761  0  3.965893  0  0  -0.074463  -0.069639  0  3.936758  0
C  C72  1  0.68698455  0.43111671  0.91774359  1  0  -0.049703  0  3.729384  0  0  -0.069784  0  3.987089  0  0  -0.071234  0  4.007586  0  0  -0.081714  -0.068896  0  3.973263  0
C  C73  1  0.31301422  0.56888411  0.08225574  1  0  -0.04971  0  3.729368  0  0  -0.069776  0  3.987072  0  0  -0.071225  0  4.007564  0  0  -0.081732  -0.068888  0  3.973244  0
C  C74  1  0.83310875  0.29172104  0.42342170  1  0  -0.362221  0  3.690788  0  0  -0.442336  0  3.922261  0  0  -0.445421  0  3.931258  0  0  -0.238288  -0.439912  0  3.916666  0
C  C75  1  0.16689201  0.70827773  0.57657947  1  0  -0.362314  0  3.690699  0  0  -0.442409  0  3.922212  0  0  -0.445498  0  3.931209  0  0  -0.238333  -0.439988  0  3.916614  0
C  C76  1  0.15283842  0.08782796  0.48336205  1  0  -0.375208  0  3.688858  0  0  -0.460226  0  3.92757  0  0  -0.464064  0  3.936204  0  0  -0.247185  -0.457093  0  3.921779  0
C  C77  1  0.84716292  0.91217184  0.51663892  1  0  -0.375152  0  3.688836  0  0  -0.460204  0  3.927503  0  0  -0.46404  0  3.936132  0  0  -0.24721  -0.457072  0  3.921712  0
C  C78  1  0.18468659  0.36015507  0.73994035  1  0  -0.378938  0  3.707798  0  0  -0.457414  0  3.937871  0  0  -0.460444  0  3.946317  0  0  -0.242546  -0.45477  0  3.932351  0
C  C79  1  0.81531158  0.63984474  0.26006079  1  0  -0.378905  0  3.707779  0  0  -0.457386  0  3.937857  0  0  -0.460419  0  3.9463  0  0  -0.242545  -0.45474  0  3.932338  0
C  C80  1  0.82507096  0.32564433  0.96240087  1  0  -0.040529  0  3.722821  0  0  -0.054174  0  3.972018  0  0  -0.055243  0  3.992176  0  0  -0.081054  -0.053327  0  3.958328  0
C  C81  1  0.17492839  0.67435751  0.03759825  1  0  -0.040608  0  3.7228  0  0  -0.054248  0  3.971995  0  0  -0.055317  0  3.992152  0  0  -0.08107  -0.053401  0  3.958304  0
N  N82  1  0.16330262  0.23597017  0.60292005  1  0  -0.392492  0  3.223973  0  0  -0.330895  0  3.502189  0  0  -0.348203  0  3.516247  0  0  -0.324526  -0.318242  0  3.491994  0
N  N83  1  0.83669873  0.76402962  0.39708092  1  0  -0.392539  0  3.223948  0  0  -0.330976  0  3.502143  0  0  -0.348284  0  3.516204  0  0  -0.324592  -0.318322  0  3.49195  0
N  N84  1  0.18093070  0.30244995  0.16022852  1  0  0.472391  0  3.947941  0  0  0.527748  0  4.211015  0  0  0.533497  0  4.24307  0  0  0.05745  0.512754  0  4.207085  0
N  N85  1  0.81906912  0.69755087  0.83977155  1  0  0.47223  0  3.948092  0  0  0.527708  0  4.211029  0  0  0.533555  0  4.242936  0  0  0.057431  0.512713  0  4.207098  0
N  N86  1  0.85983262  0.42145130  0.55359063  1  0  -0.297401  0  3.252612  0  0  -0.234149  0  3.5339  0  0  -0.248113  0  3.550986  0  0  -0.318211  -0.224227  0  3.522122  0
N  N87  1  0.14016768  0.57854850  0.44640959  1  0  -0.29738  0  3.2527  0  0  -0.234116  0  3.534016  0  0  -0.248078  0  3.551101  0  0  -0.318178  -0.224193  0  3.522237  0
N  N88  1  0.89275266  0.06173582  0.79145566  1  0  0.477124  0  3.954641  0  0  0.521045  0  4.239321  0  0  0.541906  0  4.246714  0  0  0.06192  0.506854  0  4.234311  0
N  N89  1  0.10724717  0.93826500  0.20854361  1  0  0.477106  0  3.954618  0  0  0.521053  0  4.239292  0  0  0.541913  0  4.246684  0  0  0.061943  0.506863  0  4.234282  0
O  O90  1  0.47619081  0.10638872  0.40215262  1  0  -0.62432  0  2.150036  0  0  -0.542354  0  2.429845  0  0  -0.575542  0  2.416688  0  0  -0.316601  -0.518441  0  2.438648  0
O  O91  1  0.52380891  0.89361005  0.59784781  1  0  -0.624417  0  2.150051  0  0  -0.542461  0  2.429873  0  0  -0.575646  0  2.416714  0  0  -0.316673  -0.518549  0  2.438681  0
O  O92  1  0.39965933  0.33056364  0.32679014  1  0  -0.602236  0  2.099267  0  0  -0.534149  0  2.369366  0  0  -0.566832  0  2.360474  0  0  -0.316258  -0.510286  0  2.37442  0
O  O93  1  0.60034148  0.66943511  0.67320783  1  0  -0.60217  0  2.099246  0  0  -0.534096  0  2.369345  0  0  -0.566779  0  2.360449  0  0  -0.316164  -0.510231  0  2.374402  0
O  O94  1  0.59188935  0.16594482  0.70151801  1  0  -0.608653  0  2.049094  0  0  -0.545367  0  2.314302  0  0  -0.574899  0  2.30306  0  0  -0.323727  -0.524094  0  2.32152  0
O  O95  1  0.40811050  0.83405598  0.29847966  1  0  -0.608585  0  2.04907  0  0  -0.545285  0  2.314273  0  0  -0.574815  0  2.303033  0  0  -0.323679  -0.524011  0  2.321492  0
O  O96  1  0.52613621  0.39007150  0.62572701  1  0  -0.638261  0  2.163192  0  0  -0.555681  0  2.447877  0  0  -0.588294  0  2.434337  0  0  -0.327307  -0.53275  0  2.456942  0
O  O97  1  0.47386208  0.60993034  0.37427217  1  0  -0.638213  0  2.163177  0  0  -0.555615  0  2.447843  0  0  -0.588229  0  2.434308  0  0  -0.327308  -0.532686  0  2.456909  0
O  O98  1  0.14490968  0.28496360  0.25814884  1  0  -0.350339  0  1.830202  0  0  -0.335643  0  2.031274  0  0  -0.342256  0  2.034963  0  0  -0.113634  -0.328032  0  2.034831  0
O  O99  1  0.85509063  0.71503618  0.74185058  1  0  -0.350304  0  1.830245  0  0  -0.335666  0  2.031285  0  0  -0.342313  0  2.034926  0  0  -0.113634  -0.328051  0  2.034834  0
O  O100  1  0.08742693  0.38039007  0.08652884  1  0  -0.352023  0  1.773716  0  0  -0.345711  0  1.970852  0  0  -0.351923  0  1.973621  0  0  -0.124579  -0.338009  0  1.974902  0
O  O101  1  0.91257184  0.61961074  0.91347049  1  0  -0.351956  0  1.773776  0  0  -0.345672  0  1.970851  0  0  -0.351917  0  1.973573  0  0  -0.124564  -0.337971  0  1.9749  0
O  O102  1  0.91845858  0.95452894  0.85866855  1  0  -0.350442  0  1.745476  0  0  -0.34009  0  1.944141  0  0  -0.354254  0  1.941541  0  0  -0.127829  -0.33061  0  1.945945  0
O  O103  1  0.08154491  0.04547083  0.14132990  1  0  -0.350451  0  1.745423  0  0  -0.340107  0  1.944084  0  0  -0.354271  0  1.941484  0  0  -0.127858  -0.330627  0  1.94589  0
O  O104  1  0.93076312  0.06585680  0.69423605  1  0  -0.320005  0  1.784061  0  0  -0.305587  0  1.982919  0  0  -0.318222  0  1.981923  0  0  -0.106033  -0.29716  0  1.983787  0
O  O105  1  0.06923670  0.93414401  0.30576322  1  0  -0.319948  0  1.784036  0  0  -0.305537  0  1.982896  0  0  -0.318172  0  1.9819  0  0  -0.106009  -0.297111  0  1.983765  0
