# generated using pymatgen
data_PrH6C10N2O7
_symmetry_space_group_name_H-M   'P 1'
_cell_length_a   7.57961046
_cell_length_b   8.97248221
_cell_length_c   9.80945489
_cell_angle_alpha   117.06541540
_cell_angle_beta   92.32522777
_cell_angle_gamma   99.04344568
_symmetry_Int_Tables_number   1
_chemical_formula_structural   PrH6C10N2O7
_chemical_formula_sum   'Pr2 H12 C20 N4 O14'
_cell_volume   581.89294648
_cell_formula_units_Z   2
loop_
 _symmetry_equiv_pos_site_id
 _symmetry_equiv_pos_as_xyz
  1  'x, y, z'
loop_
 _atom_site_type_symbol
 _atom_site_label
 _atom_site_symmetry_multiplicity
 _atom_site_fract_x
 _atom_site_fract_y
 _atom_site_fract_z
 _atom_site_occupancy
 _atom_site_hle17_bader_spin_density
 _atom_site_hle17_ddec_charge
 _atom_site_hle17_ddec_spin_density
 _atom_site_hle17_ddec_sum_bond_order
 _atom_site_hle17_magmom
 _atom_site_hse06_10hf_bader_spin_density
 _atom_site_hse06_10hf_ddec_charge
 _atom_site_hse06_10hf_ddec_spin_density
 _atom_site_hse06_10hf_ddec_sum_bond_order
 _atom_site_hse06_10hf_magmom
 _atom_site_hse06_bader_spin_density
 _atom_site_hse06_ddec_charge
 _atom_site_hse06_ddec_spin_density
 _atom_site_hse06_ddec_sum_bond_order
 _atom_site_hse06_magmom
 _atom_site_pbe_bader_spin_density
 _atom_site_pbe_cm5_charge
 _atom_site_pbe_ddec_charge
 _atom_site_pbe_ddec_spin_density
 _atom_site_pbe_ddec_sum_bond_order
 _atom_site_pbe_magmom
Pr  Pr0  1  0.62526627  0.84550209  0.82027939  1  0  2.274722  0  1.650287  0  0  2.104026  0  2.117562  0  0  2.194293  0  1.979459  0  0  1.50156  2.072975  0  2.151518  0
Pr  Pr1  1  0.37473059  0.15449688  0.17971855  1  0  2.274762  0  1.650371  0  0  2.104077  0  2.117664  0  0  2.194354  0  1.979549  0  0  1.501551  2.073005  0  2.151665  0
H  H2  1  0.24915784  0.75263126  0.93231180  1  0  0.442614  0  0.853224  0  0  0.412731  0  0.914695  0  0  0.423384  0  0.899232  0  0  0.305824  0.405129  0  0.925908  0
H  H3  1  0.75084109  0.24736514  0.06768409  1  0  0.442654  0  0.853203  0  0  0.412766  0  0.914678  0  0  0.423419  0  0.899214  0  0  0.30584  0.405164  0  0.925891  0
H  H4  1  0.32223791  0.57796967  0.86287309  1  0  0.442384  0  0.808909  0  0  0.427944  0  0.853257  0  0  0.435389  0  0.842917  0  0  0.334478  0.422862  0  0.860404  0
H  H5  1  0.67775484  0.42202288  0.13712498  1  0  0.442355  0  0.808973  0  0  0.427921  0  0.853288  0  0  0.435365  0  0.842948  0  0  0.33445  0.422839  0  0.860435  0
H  H6  1  0.96068013  0.27910996  0.28510048  1  0  0.102687  0  0.926803  0  0  0.10958  0  0.993227  0  0  0.113267  0  0.988151  0  0  0.147427  0.105755  0  0.999174  0
H  H7  1  0.03932302  0.72088763  0.71489710  1  0  0.102694  0  0.926729  0  0  0.109582  0  0.993168  0  0  0.113268  0  0.988092  0  0  0.147437  0.105755  0  0.999116  0
H  H8  1  0.83590381  0.23899411  0.76858969  1  0  0.140166  0  0.938344  0  0  0.149331  0  0.995292  0  0  0.153963  0  0.991773  0  0  0.118473  0.14619  0  0.997784  0
H  H9  1  0.16409799  0.76101506  0.23141181  1  0  0.140158  0  0.938346  0  0  0.149327  0  0.995284  0  0  0.153963  0  0.99176  0  0  0.118478  0.146176  0  0.997789  0
H  H10  1  0.41872376  0.12466498  0.55510976  1  0  0.137903  0  0.947096  0  0  0.144917  0  1.00925  0  0  0.149366  0  1.00527  0  0  0.119043  0.141738  0  1.012284  0
H  H11  1  0.58128066  0.87533252  0.44489088  1  0  0.137836  0  0.947108  0  0  0.144842  0  1.00927  0  0  0.14929  0  1.00529  0  0  0.119017  0.141657  0  1.012321  0
H  H12  1  0.77395124  0.28696584  0.49478512  1  0  0.326861  0  0.919433  0  0  0.307354  0  0.977638  0  0  0.31708  0  0.969719  0  0  0.31794  0.300704  0  0.98288  0
H  H13  1  0.22605569  0.71303682  0.50521478  1  0  0.326825  0  0.919427  0  0  0.307314  0  0.97764  0  0  0.31704  0  0.969723  0  0  0.317922  0.300664  0  0.982881  0
C  C14  1  0.26047480  0.14379865  0.73801733  1  0  -0.091406  0  3.698243  0  0  -0.080695  0  3.942937  0  0  -0.088519  0  3.965088  0  0  -0.018374  -0.075191  0  3.92726  0
C  C15  1  0.73952820  0.85620410  0.26198145  1  0  -0.091489  0  3.698523  0  0  -0.080728  0  3.943121  0  0  -0.088545  0  3.965274  0  0  -0.018375  -0.075223  0  3.927442  0
C  C16  1  0.09347821  0.17581458  0.79885280  1  0  -0.073348  0  3.694835  0  0  -0.063118  0  3.939021  0  0  -0.067419  0  3.960332  0  0  -0.00885  -0.059721  0  3.923784  0
C  C17  1  0.90652461  0.82419329  0.20114818  1  0  -0.073306  0  3.694924  0  0  -0.063166  0  3.939133  0  0  -0.06747  0  3.960447  0  0  -0.008891  -0.059768  0  3.92389  0
C  C18  1  0.96542718  0.22159871  0.72586840  1  0  -0.150912  0  3.7004  0  0  -0.180674  0  3.953106  0  0  -0.182829  0  3.96995  0  0  -0.080733  -0.179129  0  3.94129  0
C  C19  1  0.03457422  0.77840278  0.27412977  1  0  -0.150844  0  3.700299  0  0  -0.180588  0  3.952987  0  0  -0.182745  0  3.969829  0  0  -0.080691  -0.179038  0  3.941178  0
C  C20  1  0.29549799  0.15653618  0.60401115  1  0  -0.109424  0  3.661615  0  0  -0.144194  0  3.919237  0  0  -0.142614  0  3.935073  0  0  -0.071706  -0.145294  0  3.908298  0
C  C21  1  0.70450388  0.84346148  0.39598437  1  0  -0.109357  0  3.661588  0  0  -0.144078  0  3.919199  0  0  -0.142494  0  3.935027  0  0  -0.071681  -0.145183  0  3.908261  0
C  C22  1  0.03887589  0.17222583  0.94365913  1  0  0.732917  0  3.828137  0  0  0.682345  0  4.125691  0  0  0.717741  0  4.115965  0  0  0.240981  0.657666  0  4.134542  0
C  C23  1  0.96112387  0.82778596  0.05634240  1  0  0.732994  0  3.828051  0  0  0.682526  0  4.125456  0  0  0.717923  0  4.115731  0  0  0.241044  0.657848  0  4.134305  0
C  C24  1  0.39940065  0.07529394  0.79367717  1  0  0.668973  0  3.893489  0  0  0.622127  0  4.187627  0  0  0.656302  0  4.18386  0  0  0.209113  0.598231  0  4.193937  0
C  C25  1  0.60060120  0.92470370  0.20631936  1  0  0.66903  0  3.893409  0  0  0.622224  0  4.187473  0  0  0.656384  0  4.183732  0  0  0.209214  0.59833  0  4.193781  0
C  C26  1  0.16817876  0.20278535  0.53205980  1  0  0.15152  0  3.823323  0  0  0.152116  0  4.074204  0  0  0.153987  0  4.099037  0  0  0.091684  0.151024  0  4.058169  0
C  C27  1  0.83182542  0.79721094  0.46793726  1  0  0.151597  0  3.823231  0  0  0.152055  0  4.07429  0  0  0.153924  0  4.099126  0  0  0.091674  0.150964  0  4.058258  0
C  C28  1  0.00523162  0.23640215  0.59479711  1  0  0.169805  0  3.793067  0  0  0.160015  0  4.04056  0  0  0.165588  0  4.06141  0  0  0.10288  0.156602  0  4.025774  0
C  C29  1  0.99477558  0.76360176  0.40520436  1  0  0.169696  0  3.793197  0  0  0.159939  0  4.040698  0  0  0.165512  0  4.061548  0  0  0.102834  0.156525  0  4.025911  0
C  C30  1  0.00722024  0.25932354  0.38068879  1  0  0.286193  0  3.655003  0  0  0.220289  0  3.946224  0  0  0.237722  0  3.956827  0  0  0.173592  0.208673  0  3.942607  0
C  C31  1  0.99278277  0.74067923  0.61930898  1  0  0.286237  0  3.654894  0  0  0.220338  0  3.9461  0  0  0.23777  0  3.956702  0  0  0.17363  0.208726  0  3.942481  0
C  C32  1  0.55052754  0.45351699  0.53382880  1  0  0.553507  0  3.939096  0  0  0.507053  0  4.241981  0  0  0.536247  0  4.237701  0  0  0.216532  0.486899  0  4.247541  0
C  C33  1  0.44946083  0.54649194  0.46618943  1  0  0.553448  0  3.939089  0  0  0.506871  0  4.242105  0  0  0.536064  0  4.237828  0  0  0.216498  0.486715  0  4.247663  0
N  N34  1  0.90789397  0.27306621  0.49628959  1  0  -0.33009  0  3.348073  0  0  -0.266732  0  3.583072  0  0  -0.285233  0  3.593911  0  0  -0.36912  -0.253805  0  3.574696  0
N  N35  1  0.09210713  0.72693400  0.50370802  1  0  -0.330065  0  3.348105  0  0  -0.266706  0  3.583097  0  0  -0.285205  0  3.593935  0  0  -0.369129  -0.253781  0  3.57472  0
N  N36  1  0.16493107  0.21788874  0.39675403  1  0  -0.544232  0  3.158279  0  0  -0.495691  0  3.443317  0  0  -0.519597  0  3.460679  0  0  -0.419732  -0.483605  0  3.433396  0
N  N37  1  0.83506918  0.78210764  0.60324190  1  0  -0.544276  0  3.158301  0  0  -0.49569  0  3.443358  0  0  -0.519597  0  3.460728  0  0  -0.419742  -0.483605  0  3.433431  0
O  O38  1  0.36759441  0.01879353  0.89272036  1  0  -0.8295  0  2.118477  0  0  -0.766417  0  2.380117  0  0  -0.801051  0  2.367904  0  0  -0.447136  -0.748912  0  2.387797  0
O  O39  1  0.63239577  0.98119917  0.10727360  1  0  -0.829484  0  2.118612  0  0  -0.766381  0  2.38017  0  0  -0.80101  0  2.367963  0  0  -0.447166  -0.748875  0  2.387846  0
O  O40  1  0.54558970  0.06106151  0.73508860  1  0  -0.656041  0  1.975832  0  0  -0.610588  0  2.216454  0  0  -0.63722  0  2.205773  0  0  -0.354158  -0.595034  0  2.223266  0
O  O41  1  0.45440623  0.93893353  0.26491169  1  0  -0.656095  0  1.975698  0  0  -0.610689  0  2.216326  0  0  -0.637319  0  2.205653  0  0  -0.354209  -0.59513  0  2.223137  0
O  O42  1  0.87315522  0.11104734  0.94096060  1  0  -0.748817  0  2.05271  0  0  -0.690035  0  2.302136  0  0  -0.720666  0  2.288357  0  0  -0.372531  -0.673127  0  2.311538  0
O  O43  1  0.12685313  0.88896167  0.05904312  1  0  -0.748984  0  2.052667  0  0  -0.690214  0  2.302012  0  0  -0.720848  0  2.288234  0  0  -0.372619  -0.673301  0  2.311411  0
O  O44  1  0.60671934  0.52885086  0.67564035  1  0  -0.626418  0  2.030437  0  0  -0.582653  0  2.270647  0  0  -0.608778  0  2.260678  0  0  -0.361926  -0.567914  0  2.276413  0
O  O45  1  0.39326361  0.47113926  0.32435733  1  0  -0.626544  0  2.029868  0  0  -0.582741  0  2.270124  0  0  -0.608874  0  2.26016  0  0  -0.362019  -0.567995  0  2.275888  0
O  O46  1  0.15133151  0.24181823  0.06461165  1  0  -0.71284  0  2.022692  0  0  -0.661447  0  2.274367  0  0  -0.690757  0  2.258539  0  0  -0.403686  -0.644539  0  2.285191  0
O  O47  1  0.84867682  0.75819076  0.93539308  1  0  -0.71278  0  2.022743  0  0  -0.661422  0  2.274364  0  0  -0.690729  0  2.258535  0  0  -0.403629  -0.64452  0  2.285186  0
O  O48  1  0.33592906  0.68890540  0.86577722  1  0  -0.892211  0  1.828283  0  0  -0.847032  0  2.003404  0  0  -0.869671  0  1.971191  0  0  -0.612367  -0.835146  0  2.023504  0
O  O49  1  0.66406953  0.31108964  0.13422113  1  0  -0.892229  0  1.828349  0  0  -0.847053  0  2.003431  0  0  -0.869692  0  1.971217  0  0  -0.612349  -0.835165  0  2.023533  0
O  O50  1  0.57055560  0.30454752  0.43784129  1  0  -0.665007  0  2.115877  0  0  -0.61056  0  2.356164  0  0  -0.639984  0  2.347997  0  0  -0.359214  -0.593028  0  2.360337  0
O  O51  1  0.42943302  0.69544478  0.56216876  1  0  -0.664836  0  2.11642  0  0  -0.610319  0  2.356705  0  0  -0.639739  0  2.348541  0  0  -0.359086  -0.592785  0  2.360861  0
