# generated using pymatgen
data_Zr3H20(C9O7)4
_symmetry_space_group_name_H-M   'P 1'
_cell_length_a   17.02193920
_cell_length_b   17.14191497
_cell_length_c   16.95950439
_cell_angle_alpha   59.88729992
_cell_angle_beta   60.59310037
_cell_angle_gamma   59.52249098
_symmetry_Int_Tables_number   1
_chemical_formula_structural   Zr3H20(C9O7)4
_chemical_formula_sum   'Zr6 H40 C72 O56'
_cell_volume   3498.62480690
_cell_formula_units_Z   2
loop_
 _symmetry_equiv_pos_site_id
 _symmetry_equiv_pos_as_xyz
  1  'x, y, z'
loop_
 _atom_site_type_symbol
 _atom_site_label
 _atom_site_symmetry_multiplicity
 _atom_site_fract_x
 _atom_site_fract_y
 _atom_site_fract_z
 _atom_site_occupancy
 _atom_site_pbe_bader_charge
 _atom_site_pbe_bader_spin_density
 _atom_site_pbe_cm5_charge
 _atom_site_pbe_ddec_charge
 _atom_site_pbe_ddec_spin_density
 _atom_site_pbe_ddec_sum_bond_order
 _atom_site_pbe_magmom
Zr  Zr0  1  0.89751804  0.39743922  0.60252890  1  2.615113  0  1.597084  2.3619  0  2.675701  0
Zr  Zr1  1  0.10254991  0.60246386  0.39751800  1  2.621654  0  1.596739  2.361327  0  2.676509  0
Zr  Zr2  1  0.10444668  0.39552993  0.60446523  1  2.644615  0  1.670829  2.369087  0  2.859114  0
Zr  Zr3  1  0.89560239  0.60439428  0.39558575  1  2.640586  0  1.671191  2.368806  0  2.860739  0
Zr  Zr4  1  0.89622268  0.60376633  0.60377409  1  2.636732  0  1.633625  2.369339  0  2.763683  0
Zr  Zr5  1  0.10380090  0.39617783  0.39623609  1  2.631848  0  1.633555  2.36968  0  2.764361  0
H  H6  1  0.91989268  0.41770102  0.74511191  1  0.619465  0  0.33422  0.428125  0  0.85083  0
H  H7  1  0.91730824  0.74512552  0.41768055  1  0.620056  0  0.334298  0.428284  0  0.851073  0
H  H8  1  0.24516483  0.41726389  0.41987202  1  0.624709  0  0.334626  0.42903  0  0.85045  0
H  H9  1  0.91771654  0.41985333  0.41731898  1  0.619653  0  0.334696  0.42965  0  0.847827  0
H  H10  1  0.65180750  0.64470938  0.84395108  1  0.109471  0  0.112476  0.138422  0  0.988883  0
H  H11  1  0.34375145  0.35972204  0.15163296  1  0.104529  0  0.112486  0.138643  0  0.988949  0
H  H12  1  0.14475819  0.15173623  0.35971324  1  0.11108  0  0.112506  0.138455  0  0.988811  0
H  H13  1  0.85960420  0.84388668  0.64466715  1  0.110752  0  0.112439  0.13841  0  0.988878  0
H  H14  1  0.65348050  0.84320109  0.35814378  1  0.104244  0  0.117193  0.144982  0  0.982013  0
H  H15  1  0.34329558  0.15349094  0.64502093  1  0.087776  0  0.117341  0.145073  0  0.98114  0
H  H16  1  0.85824623  0.64508803  0.15348650  1  0.101741  0  0.117353  0.144683  0  0.981691  0
H  H17  1  0.14519404  0.35833409  0.84308809  1  0.099627  0  0.117245  0.144722  0  0.980534  0
H  H18  1  0.14285103  0.15329941  0.84235961  1  0.135565  0  0.11813  0.146037  0  0.980141  0
H  H19  1  0.86123754  0.84246771  0.15354346  1  0.134181  0  0.118351  0.146081  0  0.979801  0
H  H20  1  0.65337606  0.64284902  0.36152895  1  0.095004  0  0.117907  0.145611  0  0.980273  0
H  H21  1  0.34234975  0.36133624  0.64294574  1  0.089576  0  0.118427  0.146423  0  0.979891  0
H  H22  1  0.54638735  0.32071390  0.95235237  1  0.64939  0  0.316938  0.36472  0  0.952148  0
H  H23  1  0.68527528  0.38639701  0.80989266  1  0.642421  0  0.309347  0.36214  0  0.961593  0
H  H24  1  0.45248811  0.68040795  0.04656172  1  0.648553  0  0.317022  0.363784  0  0.952009  0
H  H25  1  0.30998020  0.61834396  0.18537469  1  0.63984  0  0.309218  0.362205  0  0.962092  0
H  H26  1  0.82053031  0.04647723  0.68045814  1  0.652408  0  0.31728  0.363661  0  0.953147  0
H  H27  1  0.88627643  0.18526052  0.61849447  1  0.648993  0  0.309674  0.362617  0  0.960913  0
H  H28  1  0.18042021  0.95259227  0.32048512  1  0.654528  0  0.317407  0.36389  0  0.952637  0
H  H29  1  0.11835828  0.81011386  0.38609202  1  0.646968  0  0.309325  0.362426  0  0.962118  0
H  H30  1  0.54785765  0.95105377  0.68292915  1  0.654242  0  0.318801  0.364982  0  0.952159  0
H  H31  1  0.68782545  0.80889113  0.62017618  1  0.651272  0  0.314671  0.367562  0  0.952532  0
H  H32  1  0.45102990  0.04771961  0.31810543  1  0.66061  0  0.318736  0.365134  0  0.951558  0
H  H33  1  0.30892602  0.18773505  0.38302996  1  0.65091  0  0.314534  0.367585  0  0.952112  0
H  H34  1  0.18301545  0.31812533  0.04777636  1  0.6548  0  0.318435  0.364375  0  0.952235  0
H  H35  1  0.12029882  0.38305368  0.18773202  1  0.65185  0  0.314735  0.368125  0  0.952302  0
H  H36  1  0.81812489  0.68306147  0.95107887  1  0.65189  0  0.318515  0.363962  0  0.952952  0
H  H37  1  0.88304574  0.62029748  0.80892730  1  0.656483  0  0.314852  0.367678  0  0.952999  0
H  H38  1  0.81827734  0.04643266  0.95262734  1  0.64858  0  0.317143  0.363362  0  0.953987  0
H  H39  1  0.88145965  0.18654109  0.80982752  1  0.652027  0  0.310639  0.363861  0  0.95852  0
H  H40  1  0.18266356  0.95250049  0.04644487  1  0.648857  0  0.317305  0.363091  0  0.955299  0
H  H41  1  0.12216918  0.80971897  0.18657024  1  0.653223  0  0.310483  0.363577  0  0.959171  0
H  H42  1  0.54649527  0.31820733  0.68263699  1  0.642362  0  0.317325  0.363063  0  0.954578  0
H  H43  1  0.68655456  0.38141354  0.62227522  1  0.650135  0  0.310422  0.363577  0  0.958288  0
H  H44  1  0.45252417  0.68271377  0.31847754  1  0.659207  0  0.316847  0.36239  0  0.955958  0
H  H45  1  0.30977949  0.62217651  0.38156810  1  0.64653  0  0.310456  0.36303  0  0.959512  0
C  C46  1  0.73091695  0.51067280  0.76315368  1  1.468176  0  0.232744  0.652251  0  4.05686  0
C  C47  1  0.99528580  0.76318075  0.51056757  1  1.479413  0  0.232233  0.651259  0  4.059622  0
C  C48  1  0.26314371  0.49527038  0.23091401  1  1.453483  0  0.232332  0.651751  0  4.056375  0
C  C49  1  0.01066000  0.23086279  0.49536117  1  1.482526  0  0.232252  0.652689  0  4.057475  0
C  C50  1  0.00697161  0.23190894  0.76291577  1  1.44862  0  0.233307  0.650864  0  4.06454  0
C  C51  1  0.73200094  0.50691016  0.49825642  1  1.489993  0  0.233651  0.650643  0  4.065481  0
C  C52  1  0.99818317  0.76284706  0.23200182  1  1.458997  0  0.233287  0.650875  0  4.064717  0
C  C53  1  0.26286325  0.49818979  0.50700415  1  1.454909  0  0.233027  0.649959  0  4.066257  0
C  C54  1  0.00895892  0.49461229  0.76387006  1  1.460937  0  0.233106  0.648155  0  4.081202  0
C  C55  1  0.26390489  0.23254482  0.50894201  1  1.454812  0  0.231879  0.646101  0  4.081887  0
C  C56  1  0.99458089  0.50890912  0.23262198  1  1.466115  0  0.232994  0.64821  0  4.081367  0
C  C57  1  0.73259684  0.76387684  0.49454601  1  1.448089  0  0.231968  0.646495  0  4.081339  0
C  C58  1  0.59713163  0.45311691  0.89937336  1  0.466511  0  0.089582  0.26517  0  4.010052  0
C  C59  1  0.61370000  0.59421639  0.88253145  1  0.021932  0  -0.108425  -0.21336  0  3.981935  0
C  C60  1  0.53476836  0.60567720  0.96288779  1  0.5201  0  0.082757  0.284327  0  4.075422  0
C  C61  1  0.48243813  0.54035346  0.01488354  1  0.049517  0  -0.017279  -0.115795  0  3.956163  0
C  C62  1  0.39939295  0.55035362  0.09715957  1  0.501083  0  0.089511  0.264286  0  4.011951  0
C  C63  1  0.38240242  0.40966679  0.11360654  1  0.045718  0  -0.108733  -0.214251  0  3.98167  0
C  C64  1  0.46277391  0.39678420  0.03468010  1  0.479015  0  0.082869  0.284456  0  4.074492  0
C  C65  1  0.51484593  0.46236414  0.98242310  1  0.068892  0  -0.017006  -0.114765  0  3.954211  0
C  C66  1  0.64603967  0.51865427  0.84935018  1  0.017158  0  -0.042745  -0.182472  0  4.050056  0
C  C67  1  0.34930321  0.48600544  0.14599753  1  0.035129  0  -0.042031  -0.180978  0  4.048749  0
C  C68  1  0.95302759  0.09718733  0.55032120  1  0.533713  0  0.089212  0.26392  0  4.010639  0
C  C69  1  0.09419094  0.11371265  0.40960775  1  0.051765  0  -0.108437  -0.213784  0  3.980543  0
C  C70  1  0.10559832  0.03484319  0.39665122  1  0.50844  0  0.081987  0.283536  0  4.074617  0
C  C71  1  0.04021482  0.98257366  0.46220697  1  0.058205  0  -0.016667  -0.115114  0  3.955511  0
C  C72  1  0.05025123  0.89952845  0.45294504  1  0.533607  0  0.088923  0.263745  0  4.011072  0
C  C73  1  0.90954545  0.88254932  0.59413244  1  0.059624  0  -0.10873  -0.213958  0  3.981599  0
C  C74  1  0.89660447  0.96293163  0.60560188  1  0.518328  0  0.082777  0.282754  0  4.076403  0
C  C75  1  0.96219144  0.01497973  0.54024267  1  0.014962  0  -0.016996  -0.113755  0  3.955095  0
C  C76  1  0.01864073  0.14601463  0.48601788  1  -0.052959  0  -0.042098  -0.180843  0  4.04861  0
C  C77  1  0.98591621  0.84941579  0.51854163  1  -0.052292  0  -0.042068  -0.180177  0  4.047494  0
C  C78  1  0.59823676  0.89918944  0.55099655  1  0.490291  0  0.089562  0.265166  0  4.026297  0
C  C79  1  0.61465062  0.88244821  0.40822233  1  0.042375  0  -0.106377  -0.213364  0  3.980126  0
C  C80  1  0.53478593  0.96323350  0.39503552  1  0.50721  0  0.082896  0.283881  0  4.084127  0
C  C81  1  0.48271856  0.01522506  0.46136087  1  0.031402  0  -0.017022  -0.116341  0  3.966414  0
C  C82  1  0.39923572  0.09818583  0.45149211  1  0.483557  0  0.089828  0.2654  0  4.026496  0
C  C83  1  0.38251881  0.11463703  0.59455962  1  0.034294  0  -0.106563  -0.212839  0  3.979704  0
C  C84  1  0.46332308  0.03478577  0.60678732  1  0.498347  0  0.083093  0.283505  0  4.084452  0
C  C85  1  0.51527940  0.98267951  0.54058175  1  0.055611  0  -0.016787  -0.115204  0  3.965497  0
C  C86  1  0.64696869  0.84968386  0.48561233  1  0.040166  0  -0.042094  -0.182597  0  4.074342  0
C  C87  1  0.34973038  0.14692373  0.51765725  1  0.072263  0  -0.042428  -0.183406  0  4.074458  0
C  C88  1  0.05113969  0.45157736  0.09814569  1  0.504817  0  0.090607  0.264841  0  4.029428  0
C  C89  1  0.90834418  0.59464079  0.11461940  1  0.026291  0  -0.106261  -0.212105  0  3.979184  0
C  C90  1  0.89515950  0.60691705  0.03475017  1  0.538434  0  0.082635  0.28221  0  4.086887  0
C  C91  1  0.96149972  0.54074953  0.98260086  1  0.033033  0  -0.017067  -0.115415  0  3.964703  0
C  C92  1  0.95157467  0.55114946  0.89914170  1  0.498441  0  0.090307  0.265434  0  4.029112  0
C  C93  1  0.09469235  0.40838696  0.88235749  1  0.031466  0  -0.105865  -0.211303  0  3.977071  0
C  C94  1  0.10693305  0.39517729  0.96316652  1  0.484413  0  0.082356  0.281784  0  4.085504  0
C  C95  1  0.04075137  0.46151165  0.01515128  1  0.040253  0  -0.016598  -0.114149  0  3.96375  0
C  C96  1  0.98570323  0.51768786  0.14695106  1  0.060297  0  -0.043439  -0.184165  0  4.076499  0
C  C97  1  0.01772129  0.48574189  0.84964174  1  0.0575  0  -0.043238  -0.184791  0  4.078469  0
C  C98  1  0.95066310  0.09756831  0.89941783  1  0.435544  0  0.088761  0.263668  0  4.022025  0
C  C99  1  0.09286658  0.11454689  0.88177895  1  0.031052  0  -0.104589  -0.209993  0  3.972614  0
C  C100  1  0.10589250  0.03521353  0.96251668  1  0.489052  0  0.083076  0.28363  0  4.079591  0
C  C101  1  0.04078934  0.98268661  0.01496033  1  0.081178  0  -0.016457  -0.114344  0  3.962219  0
C  C102  1  0.05227718  0.89936656  0.09764611  1  0.428499  0  0.088518  0.263098  0  4.024611  0
C  C103  1  0.91068364  0.88176315  0.11471291  1  -0.013333  0  -0.104635  -0.208963  0  3.970355  0
C  C104  1  0.89630972  0.96247097  0.03533121  1  0.568175  0  0.083016  0.282797  0  4.079429  0
C  C105  1  0.96152385  0.01487140  0.98275888  1  0.022078  0  -0.017214  -0.115191  0  3.962135  0
C  C106  1  0.01589248  0.14657033  0.84921083  1  0.052942  0  -0.042767  -0.183022  0  4.066112  0
C  C107  1  0.98823020  0.84918014  0.14668712  1  0.044734  0  -0.042586  -0.183335  0  4.066111  0
C  C108  1  0.59759638  0.45068070  0.55240120  1  0.456282  0  0.088461  0.263427  0  4.022644  0
C  C109  1  0.61462160  0.59286912  0.41085767  1  0.075205  0  -0.103848  -0.207903  0  3.971185  0
C  C110  1  0.53523790  0.60590446  0.39649674  1  0.536454  0  0.082274  0.281532  0  4.082935  0
C  C111  1  0.48267497  0.54082406  0.46169663  1  0.075963  0  -0.016556  -0.114524  0  3.964212  0
C  C112  1  0.39935642  0.55230070  0.45083691  1  0.45372  0  0.088529  0.262913  0  4.025708  0
C  C113  1  0.38171916  0.41070913  0.59296267  1  0.104413  0  -0.104898  -0.210149  0  3.971744  0
C  C114  1  0.46247261  0.39629614  0.60597210  1  0.50161  0  0.083177  0.2826  0  4.081745  0
C  C115  1  0.51486823  0.46153343  0.54095054  1  0.042537  0  -0.017022  -0.114161  0  3.963739  0
C  C116  1  0.64664325  0.51587802  0.48836244  1  -0.017412  0  -0.042945  -0.183863  0  4.065996  0
C  C117  1  0.34915148  0.48826534  0.51601319  1  0.017609  0  -0.042785  -0.182819  0  4.066316  0
O  O118  1  0.76264960  0.44075204  0.73190991  1  -1.18812  0  -0.343844  -0.638854  0  2.24178  0
O  O119  1  0.06473532  0.73195836  0.44065797  1  -1.186371  0  -0.343387  -0.638608  0  2.244283  0
O  O120  1  0.23193367  0.56466972  0.26267378  1  -1.184199  0  -0.343499  -0.638695  0  2.24185  0
O  O121  1  0.94074107  0.26256250  0.56479147  1  -1.187904  0  -0.343565  -0.639054  0  2.242821  0
O  O122  1  0.06976661  0.27093075  0.72316035  1  -1.175271  0  -0.355911  -0.599857  0  2.351306  0
O  O123  1  0.77106267  0.56966937  0.43618294  1  -1.197667  0  -0.356407  -0.599577  0  2.352247  0
O  O124  1  0.93611547  0.72310432  0.27100996  1  -1.175013  0  -0.356168  -0.599595  0  2.350763  0
O  O125  1  0.22313863  0.43610225  0.56976673  1  -1.187076  0  -0.355839  -0.599485  0  2.351869  0
O  O126  1  0.93826885  0.56445708  0.73193912  1  -1.18482  0  -0.348901  -0.634468  0  2.283925  0
O  O127  1  0.23198335  0.26530626  0.43826551  1  -1.180068  0  -0.348124  -0.633803  0  2.284433  0
O  O128  1  0.06442897  0.43823074  0.26537902  1  -1.193732  0  -0.348529  -0.634282  0  2.285311  0
O  O129  1  0.76536588  0.73196525  0.56437591  1  -1.178683  0  -0.348  -0.633653  0  2.284205  0
O  O130  1  0.22438840  0.27265861  0.57180713  1  -1.189457  0  -0.367814  -0.608967  0  2.353659  0
O  O131  1  0.93110549  0.57174254  0.27277115  1  -1.193873  0  -0.368391  -0.610284  0  2.354068  0
O  O132  1  0.77272286  0.72434644  0.43109982  1  -1.188574  0  -0.368218  -0.609652  0  2.354031  0
O  O133  1  0.07180810  0.43112291  0.72437981  1  -1.192792  0  -0.36826  -0.6102  0  2.354024  0
O  O134  1  0.93555993  0.26524535  0.73100503  1  -1.183983  0  -0.359505  -0.655494  0  2.248863  0
O  O135  1  0.23096312  0.56817149  0.43561394  1  -1.19271  0  -0.359051  -0.654324  0  2.250462  0
O  O136  1  0.06819069  0.73091590  0.26530322  1  -1.182008  0  -0.35926  -0.655392  0  2.250217  0
O  O137  1  0.76528590  0.43551813  0.56826173  1  -1.190245  0  -0.359332  -0.655043  0  2.250381  0
O  O138  1  0.07341217  0.27082310  0.43294047  1  -1.195236  0  -0.368191  -0.621825  0  2.318692  0
O  O139  1  0.77086128  0.57344998  0.72285232  1  -1.193457  0  -0.368174  -0.621353  0  2.319246  0
O  O140  1  0.93290549  0.72284295  0.57335266  1  -1.193363  0  -0.368173  -0.62123  0  2.31972  0
O  O141  1  0.22286750  0.43283391  0.27085598  1  -1.191309  0  -0.368301  -0.621409  0  2.318741  0
O  O142  1  0.94161022  0.44076877  0.44221654  1  -1.246525  0  -0.695732  -1.070337  0  2.358012  0
O  O143  1  0.17545577  0.44213235  0.44083473  1  -1.250338  0  -0.695553  -1.069343  0  2.361228  0
O  O144  1  0.94221038  0.67541411  0.44157301  1  -1.245831  0  -0.695225  -1.068297  0  2.360555  0
O  O145  1  0.94082900  0.44158970  0.67540850  1  -1.244681  0  -0.695448  -1.068138  0  2.359041  0
O  O146  1  0.04296999  0.54359524  0.54247293  1  -1.193703  0  -0.791533  -1.142426  0  2.134421  0
O  O147  1  0.87100111  0.54242523  0.54362296  1  -1.189579  0  -0.791732  -1.142556  0  2.134844  0
O  O148  1  0.04366397  0.54289830  0.37101444  1  -1.192765  0  -0.79178  -1.142411  0  2.134941  0
O  O149  1  0.04247584  0.37095049  0.54296260  1  -1.190456  0  -0.791871  -1.1433  0  2.136437  0
O  O150  1  0.48899843  0.32089096  0.00988490  1  -1.145944  0  -0.359922  -0.445107  0  2.245225  0
O  O151  1  0.62758423  0.37922460  0.86894757  1  -1.159532  0  -0.344654  -0.454467  0  2.327345  0
O  O152  1  0.51002037  0.68009037  0.98916748  1  -1.146189  0  -0.359933  -0.444049  0  2.243913  0
O  O153  1  0.36906131  0.62413048  0.12770343  1  -1.157301  0  -0.344526  -0.454014  0  2.327873  0
O  O154  1  0.82071489  0.98909920  0.68009931  1  -1.154362  0  -0.360092  -0.443469  0  2.246381  0
O  O155  1  0.87908594  0.12764165  0.62417372  1  -1.167962  0  -0.344693  -0.454485  0  2.326781  0
O  O156  1  0.18009083  0.01008289  0.32075702  1  -1.151088  0  -0.360064  -0.444084  0  2.245472  0
O  O157  1  0.12404876  0.86921619  0.37895563  1  -1.165897  0  -0.34449  -0.454197  0  2.328345  0
O  O158  1  0.48980408  0.00919773  0.68232988  1  -1.143809  0  -0.358136  -0.441685  0  2.245991  0
O  O159  1  0.62930241  0.86827798  0.62560625  1  -1.16448  0  -0.340261  -0.450597  0  2.327479  0
O  O160  1  0.50916295  0.98966307  0.31864346  1  -1.15116  0  -0.358118  -0.441878  0  2.246077  0
O  O161  1  0.36830550  0.12922814  0.37674061  1  -1.166416  0  -0.340263  -0.450364  0  2.326744  0
O  O162  1  0.18243885  0.31869776  0.98967873  1  -1.143596  0  -0.357595  -0.440723  0  2.24604  0
O  O163  1  0.12575049  0.37679884  0.12919329  1  -1.177181  0  -0.340641  -0.450748  0  2.327861  0
O  O164  1  0.81870080  0.68245291  0.00919854  1  -1.152286  0  -0.357736  -0.440379  0  2.24737  0
O  O165  1  0.87677942  0.62574103  0.86828908  1  -1.174053  0  -0.34034  -0.449945  0  2.328762  0
O  O166  1  0.81954994  0.98859783  0.01051449  1  -1.145027  0  -0.358128  -0.441369  0  2.24426  0
O  O167  1  0.87558622  0.12834809  0.86893539  1  -1.168863  0  -0.345491  -0.455878  0  2.328367  0
O  O168  1  0.18139263  0.01034242  0.98858569  1  -1.143828  0  -0.358433  -0.441367  0  2.244703  0
O  O169  1  0.12712219  0.86881847  0.12837190  1  -1.168009  0  -0.34543  -0.455561  0  2.329851  0
O  O170  1  0.48862267  0.31949261  0.68138577  1  -1.131351  0  -0.35822  -0.440864  0  2.245695  0
O  O171  1  0.62835016  0.37557997  0.62720728  1  -1.170424  0  -0.345218  -0.45553  0  2.328162  0
O  O172  1  0.51037134  0.68141893  0.31979139  1  -1.158179  0  -0.357682  -0.440219  0  2.247582  0
O  O173  1  0.36886696  0.62711432  0.37575963  1  -1.168595  0  -0.34528  -0.454804  0  2.330443  0
