# generated using pymatgen
data_VCuPH8C10(NO3)2
_symmetry_space_group_name_H-M   'P 1'
_cell_length_a   5.52454215
_cell_length_b   10.18221321
_cell_length_c   11.63302950
_cell_angle_alpha   72.96539604
_cell_angle_beta   80.01305812
_cell_angle_gamma   87.49559030
_symmetry_Int_Tables_number   1
_chemical_formula_structural   VCuPH8C10(NO3)2
_chemical_formula_sum   'V2 Cu2 P2 H16 C20 N4 O12'
_cell_volume   616.17471333
_cell_formula_units_Z   2
loop_
 _symmetry_equiv_pos_site_id
 _symmetry_equiv_pos_as_xyz
  1  'x, y, z'
loop_
 _atom_site_type_symbol
 _atom_site_label
 _atom_site_symmetry_multiplicity
 _atom_site_fract_x
 _atom_site_fract_y
 _atom_site_fract_z
 _atom_site_occupancy
 _atom_site_hle17_ddec_charge
 _atom_site_hle17_ddec_spin_density
 _atom_site_hle17_ddec_sum_bond_order
 _atom_site_hle17_magmom
 _atom_site_hse06_10hf_ddec_charge
 _atom_site_hse06_10hf_ddec_spin_density
 _atom_site_hse06_10hf_ddec_sum_bond_order
 _atom_site_hse06_10hf_magmom
 _atom_site_hse06_ddec_charge
 _atom_site_hse06_ddec_spin_density
 _atom_site_hse06_ddec_sum_bond_order
 _atom_site_hse06_magmom
 _atom_site_pbe_cm5_charge
 _atom_site_pbe_ddec_charge
 _atom_site_pbe_ddec_spin_density
 _atom_site_pbe_ddec_sum_bond_order
 _atom_site_pbe_magmom
V  V0  1  0.37329108  0.70443743  0.74861552  1  1.946618  -0.005328  2.944974  -0.007  1.990587  -0.002419  3.349069  -0.003  2.075974  -0.002127  3.333858  -0.003  1.476576  1.922139  -0.002548  3.378984  -0.003
V  V1  1  0.62669215  0.29556865  0.25139501  1  1.94664  0.005335  2.945181  0.007  1.99066  0.002418  3.349243  0.003  2.076017  0.002133  3.334065  0.003  1.47669  1.922312  0.002548  3.378989  0.003
Cu  Cu2  1  0.83031750  0.61901801  0.16510849  1  0.93875  -0.742595  1.869005  -0.528  0.92284  -0.818459  2.264624  -0.64  1.00479  -0.891098  2.194484  -0.721  0.782208  0.872863  -0.757972  2.312039  -0.58
Cu  Cu3  1  0.16968603  0.38098236  0.83488542  1  0.938784  0.742595  1.868977  0.528  0.922849  0.818458  2.264625  0.64  1.004806  0.891098  2.194451  0.721  0.782199  0.872759  0.757984  2.312183  0.58
P  P4  1  0.83517982  0.61231621  0.88745827  1  1.786149  -0.001236  4.854938  -0.002  1.633525  -0.000927  5.367222  -0.002  1.704841  -0.000936  5.302905  -0.002  0.41387  1.583172  -0.000915  5.409741  -0.002
P  P5  1  0.16481458  0.38768084  0.11254667  1  1.786176  0.001259  4.854682  0.002  1.633585  0.000944  5.366992  0.002  1.704939  0.000941  5.302519  0.002  0.413883  1.583253  0.000914  5.409455  0.002
H  H6  1  0.11642332  0.05965911  0.15870421  1  0.110819  -0.000281  0.936177  0.0  0.123419  -1.5e-05  0.990629  0.0  0.125981  6e-06  0.98854  0.0  0.112797  0.121067  -3.9e-05  0.992916  0.0
H  H7  1  0.88358943  0.94034023  0.84129521  1  0.110747  0.000282  0.936126  0.0  0.123374  1.5e-05  0.990564  0.0  0.125933  -6e-06  0.988481  0.0  0.112784  0.121033  3.9e-05  0.992839  0.0
H  H8  1  0.66518156  0.93094163  0.42926469  1  0.136884  -0.000888  0.959942  -0.001  0.150048  -0.000673  1.011496  -0.001  0.153957  -0.000453  1.008416  -0.001  0.112623  0.147207  -0.000865  1.013957  -0.001
H  H9  1  0.33481286  0.06905352  0.57073126  1  0.136928  0.000891  0.959784  0.001  0.150107  0.000674  1.011322  0.001  0.154018  0.000454  1.008241  0.001  0.112656  0.147265  0.000866  1.013783  0.001
H  H10  1  0.11585967  0.91359691  0.01439561  1  0.099102  -0.000379  0.958805  -0.001  0.108906  -0.000286  1.023824  0.0  0.111162  -0.000178  1.023641  0.0  0.106623  0.106979  -0.000383  1.024625  -0.001
H  H11  1  0.88414572  0.08640234  0.98560530  1  0.099114  0.000376  0.958774  0.001  0.108932  0.000286  1.023775  0.0  0.111187  0.000178  1.023592  0.0  0.106599  0.107005  0.000383  1.024572  0.001
H  H12  1  0.42296494  0.72567008  0.02042311  1  0.107555  -0.001479  0.956107  -0.003  0.112712  -0.001179  1.019697  -0.002  0.115002  -0.000825  1.017215  -0.002  0.127965  0.110713  -0.001466  1.021682  -0.002
H  H13  1  0.57704951  0.27433652  0.97957095  1  0.107558  0.001479  0.956164  0.003  0.112756  0.001178  1.019677  0.002  0.115046  0.000824  1.017198  0.002  0.127971  0.110763  0.001466  1.021665  0.002
H  H14  1  0.97958645  0.83282755  0.56147937  1  0.105991  -0.000332  0.933335  -0.001  0.117349  -2.9e-05  0.98986  0.0  0.119927  8e-06  0.987958  0.0  0.115776  0.11541  -8.3e-05  0.991289  0.0
H  H15  1  0.02040609  0.16717063  0.43851771  1  0.105953  0.000331  0.933413  0.001  0.117324  2.9e-05  0.989922  0.0  0.119903  -9e-06  0.988021  0.0  0.115743  0.115385  8.3e-05  0.991347  0.0
H  H16  1  0.41480983  0.00388378  0.30324996  1  0.12433  -0.000767  0.963493  -0.001  0.133411  -0.000631  1.023578  -0.001  0.136741  -0.000429  1.022238  -0.001  0.115584  0.131043  -0.000807  1.02443  -0.001
H  H17  1  0.58521572  0.99611883  0.69674330  1  0.12434  0.000767  0.963549  0.001  0.133419  0.000631  1.023622  0.001  0.13675  0.000428  1.022278  0.001  0.115599  0.131054  0.000807  1.024473  0.001
H  H18  1  0.24433512  0.64057231  0.52100096  1  0.125356  -0.000539  0.962552  -0.001  0.134943  -0.00047  1.021433  -0.001  0.138596  -0.000331  1.019929  0.0  0.112006  0.13229  -0.000576  1.022533  -0.001
H  H19  1  0.75566119  0.35942069  0.47900224  1  0.125361  0.000535  0.962665  0.001  0.134977  0.00047  1.021499  0.001  0.138628  0.000331  1.019997  0.0  0.112032  0.132319  0.000576  1.022615  0.001
H  H20  1  0.18534136  0.55275571  0.34501183  1  0.112214  -0.001659  0.930849  -0.003  0.120488  -0.001271  0.99025  -0.002  0.12252  -0.000881  0.988554  -0.002  0.125552  0.118791  -0.0016  0.991653  -0.003
H  H21  1  0.81464768  0.44723214  0.65498979  1  0.112049  0.001654  0.930993  0.003  0.120303  0.001272  0.990427  0.002  0.122338  0.000881  0.988724  0.002  0.12548  0.118606  0.001601  0.991831  0.003
C  C22  1  0.24418870  0.97496431  0.15818936  1  0.006797  0.00808  3.692271  0.008  -0.012072  0.0029  3.942799  0.003  -0.006145  0.003006  3.960039  0.003  -0.063868  -0.016251  0.002834  3.93193  0.003
C  C23  1  0.75580748  0.02503591  0.84181036  1  0.006878  -0.008074  3.692566  -0.008  -0.012034  -0.002899  3.943115  -0.003  -0.00611  -0.003  3.960353  -0.003  -0.063923  -0.016219  -0.002833  3.932247  -0.003
C  C24  1  0.78017050  0.84606243  0.41432554  1  -0.114937  -0.006408  3.658478  -0.007  -0.13268  -0.00272  3.89801  -0.003  -0.138485  -0.002392  3.916949  -0.003  -0.067239  -0.1292  -0.003016  3.885775  -0.003
C  C25  1  0.21982566  0.15393979  0.58567713  1  -0.115133  0.006403  3.658711  0.007  -0.132846  0.002716  3.898233  0.003  -0.138653  0.002394  3.917169  0.003  -0.067336  -0.129363  0.003014  3.885997  0.003
C  C26  1  0.57629578  0.83691648  0.23741846  1  0.16958  0.003194  3.767303  0.004  0.168053  -0.000345  4.010448  0.0  0.177005  0.000741  4.03191  0.002  0.119714  0.162301  -0.001068  3.9961  -0.001
C  C27  1  0.42371332  0.16308078  0.76258091  1  0.169435  -0.003189  3.767541  -0.004  0.168098  0.00035  4.010434  0.0  0.176996  -0.000743  4.031942  -0.002  0.119694  0.162348  0.001067  3.996076  0.001
C  C28  1  0.24438907  0.89612253  0.07832450  1  -0.128815  -0.009273  3.732154  -0.01  -0.150779  -0.003915  4.001543  -0.005  -0.159478  -0.00342  4.022884  -0.005  -0.084847  -0.145232  -0.00439  3.988033  -0.006
C  C29  1  0.75562011  0.10386966  0.92167268  1  -0.128876  0.009274  3.732117  0.01  -0.15082  0.003919  4.001513  0.005  -0.159516  0.003414  4.022858  0.005  -0.084753  -0.145271  0.004391  3.988001  0.006
C  C30  1  0.41457785  0.79102595  0.07990406  1  0.157893  0.007142  3.661353  0.008  0.12733  0.001189  3.92438  0.003  0.137808  0.002245  3.941423  0.004  0.057223  0.119822  0.000426  3.914256  0.002
C  C31  1  0.58542741  0.20898057  0.92008993  1  0.157874  -0.007139  3.661276  -0.008  0.127225  -0.001192  3.924408  -0.003  0.137688  -0.002241  3.941442  -0.004  0.057204  0.119707  -0.000427  3.914279  -0.002
C  C32  1  0.75595351  0.79068968  0.32048105  1  0.159292  0.002583  3.77277  0.003  0.1574  -0.000869  4.015273  0.0  0.163166  0.000329  4.038401  0.001  0.116024  0.153584  -0.001775  3.999988  -0.001
C  C33  1  0.24405375  0.20930762  0.67951503  1  0.159547  -0.002581  3.772883  -0.003  0.157545  0.000872  4.015412  0.0  0.163331  -0.00033  4.038548  -0.001  0.116111  0.153727  0.001775  4.000122  0.001
C  C34  1  0.95621131  0.79156384  0.48758830  1  0.012178  0.008351  3.680749  0.008  -0.008517  0.002839  3.934107  0.003  -0.004817  0.003005  3.951582  0.003  -0.053759  -0.011  0.002727  3.922416  0.003
C  C35  1  0.04379413  0.20843240  0.51240905  1  0.012206  -0.008357  3.680517  -0.008  -0.008529  -0.00284  3.933866  -0.003  -0.00483  -0.003006  3.951344  -0.003  -0.053718  -0.011011  -0.002728  3.922176  -0.003
C  C36  1  0.41093699  0.94440438  0.23950844  1  -0.128083  -0.00663  3.667665  -0.007  -0.145074  -0.002773  3.911318  -0.003  -0.153272  -0.002532  3.932288  -0.003  -0.068934  -0.139737  -0.002971  3.896925  -0.003
C  C37  1  0.58907040  0.05558569  0.76049198  1  -0.127978  0.006625  3.667718  0.007  -0.145002  0.00277  3.911283  0.003  -0.153187  0.002531  3.932269  0.003  -0.068877  -0.139668  0.002973  3.896897  0.003
C  C38  1  0.10523509  0.68487613  0.46495535  1  -0.109418  -0.010599  3.683958  -0.012  -0.123004  -0.004715  3.934777  -0.006  -0.130356  -0.004032  3.955221  -0.005  -0.071898  -0.118134  -0.005292  3.920915  -0.006
C  C39  1  0.89475920  0.31512715  0.53504377  1  -0.109299  0.010609  3.683857  0.012  -0.122896  0.004716  3.934631  0.006  -0.130251  0.004031  3.95508  0.005  -0.071862  -0.11803  0.005292  3.920768  0.006
C  C40  1  0.07263076  0.63451603  0.36915916  1  0.143952  0.007347  3.648451  0.009  0.116515  0.000983  3.901583  0.002  0.12612  0.002177  3.919942  0.004  0.057642  0.110217  9.8e-05  3.889512  0.001
C  C41  1  0.92737836  0.36547924  0.63083640  1  0.14397  -0.007333  3.648635  -0.009  0.116557  -0.000984  3.90177  -0.002  0.126168  -0.002174  3.920127  -0.004  0.057609  0.110261  -9.8e-05  3.889691  -0.001
N  N42  1  0.57778300  0.76417215  0.15636884  1  -0.338079  -0.086021  3.317225  -0.107  -0.298814  -0.059886  3.615441  -0.08  -0.329202  -0.049412  3.633789  -0.069  -0.346723  -0.280645  -0.065372  3.6053  -0.084
N  N43  1  0.42222240  0.23582622  0.84362369  1  -0.338066  0.086018  3.317694  0.107  -0.298801  0.059884  3.615829  0.08  -0.329147  0.049411  3.634174  0.069  -0.346723  -0.280606  0.065371  3.605677  0.084
N  N44  1  0.90104857  0.68594047  0.30007873  1  -0.329247  -0.091681  3.335016  -0.114  -0.284995  -0.063436  3.622477  -0.084  -0.315871  -0.052272  3.644419  -0.073  -0.343807  -0.266363  -0.069632  3.609352  -0.089
N  N45  1  0.09896040  0.31406402  0.69991631  1  -0.329278  0.091677  3.334871  0.114  -0.285051  0.063437  3.622385  0.084  -0.31594  0.052271  3.644331  0.073  -0.343818  -0.266395  0.069629  3.609256  0.089
O  O46  1  0.07375778  0.70610428  0.85036918  1  -0.904081  0.000455  1.938008  0.001  -0.864649  0.000245  2.224496  0.0  -0.898658  0.000152  2.204886  0.0  -0.445538  -0.838327  0.000206  2.238071  0.0
O  O47  1  0.92622364  0.29390070  0.14964520  1  -0.90413  -0.000455  1.937987  -0.001  -0.86475  -0.000246  2.22447  0.0  -0.898758  -0.000154  2.204846  0.0  -0.445705  -0.838461  -0.000205  2.238047  0.0
O  O48  1  0.74895817  0.57304984  0.02475399  1  -0.862769  -0.060954  2.061714  -0.079  -0.813857  -0.039584  2.363602  -0.054  -0.854671  -0.03118  2.33825  -0.044  -0.37405  -0.784798  -0.045098  2.380248  -0.06
O  O49  1  0.25102914  0.42693179  0.97525188  1  -0.862749  0.060936  2.061625  0.079  -0.813786  0.039572  2.363422  0.054  -0.854598  0.031174  2.338048  0.044  -0.373952  -0.784698  0.045089  2.380064  0.06
O  O50  1  0.63646871  0.71109883  0.82489347  1  -0.889553  0.005922  1.957141  0.007  -0.847131  0.003176  2.246232  0.004  -0.882473  0.002074  2.227621  0.003  -0.445253  -0.819304  0.004218  2.258224  0.005
O  O51  1  0.36352752  0.28889924  0.17511279  1  -0.889506  -0.005921  1.957024  -0.007  -0.847125  -0.003177  2.246089  -0.004  -0.882475  -0.002073  2.227483  -0.003  -0.445249  -0.819326  -0.004217  2.258073  -0.005
O  O52  1  0.87071671  0.49075621  0.83456791  1  -0.852874  0.065101  2.027926  0.084  -0.815231  0.040896  2.334167  0.057  -0.85896  0.032253  2.313326  0.047  -0.375169  -0.783847  0.045318  2.347084  0.061
O  O53  1  0.12929041  0.50924932  0.16542530  1  -0.85288  -0.065114  2.02789  -0.084  -0.815231  -0.040899  2.334099  -0.057  -0.858963  -0.032254  2.313244  -0.047  -0.375176  -0.783875  -0.045318  2.347012  -0.061
O  O54  1  0.38797652  0.56946652  0.69748997  1  -0.800506  0.001686  1.381185  0.004  -0.823124  0.000379  1.662778  0.002  -0.855841  0.000222  1.653855  0.002  -0.606474  -0.799079  0.000527  1.671219  0.002
O  O55  1  0.61197723  0.43054343  0.30251948  1  -0.800604  -0.001687  1.381227  -0.004  -0.823247  -0.000379  1.662825  -0.002  -0.855927  -0.000222  1.653853  -0.002  -0.606529  -0.799245  -0.000527  1.671243  -0.002
O  O56  1  0.38526245  0.84306610  0.63319615  1  -0.785089  0.000457  1.301267  0.001  -0.797626  -4e-05  1.555679  0.0  -0.825411  9e-06  1.550044  0.0  -0.604628  -0.775672  -0.000124  1.561244  0.0
O  O57  1  0.61473347  0.15695135  0.36681398  1  -0.785073  -0.00046  1.301443  -0.001  -0.797567  4.1e-05  1.555786  0.0  -0.825346  -1.2e-05  1.550157  0.0  -0.604624  -0.775638  0.000124  1.561328  0.0
