# generated using pymatgen
data_SmH6(C2N3)3
_symmetry_space_group_name_H-M   'P 1'
_cell_length_a   9.41189162
_cell_length_b   9.41189469
_cell_length_c   12.82992872
_cell_angle_alpha   92.18734539
_cell_angle_beta   92.18759088
_cell_angle_gamma   119.75059176
_symmetry_Int_Tables_number   1
_chemical_formula_structural   SmH6(C2N3)3
_chemical_formula_sum   'Sm4 H24 C24 N36'
_cell_volume   983.86438581
_cell_formula_units_Z   4
loop_
 _symmetry_equiv_pos_site_id
 _symmetry_equiv_pos_as_xyz
  1  'x, y, z'
loop_
 _atom_site_type_symbol
 _atom_site_label
 _atom_site_symmetry_multiplicity
 _atom_site_fract_x
 _atom_site_fract_y
 _atom_site_fract_z
 _atom_site_occupancy
 _atom_site_hle17_bader_spin_density
 _atom_site_hle17_ddec_charge
 _atom_site_hle17_ddec_spin_density
 _atom_site_hle17_ddec_sum_bond_order
 _atom_site_hle17_magmom
 _atom_site_hse06_10hf_bader_spin_density
 _atom_site_hse06_10hf_ddec_charge
 _atom_site_hse06_10hf_ddec_spin_density
 _atom_site_hse06_10hf_ddec_sum_bond_order
 _atom_site_hse06_10hf_magmom
 _atom_site_hse06_bader_spin_density
 _atom_site_hse06_ddec_charge
 _atom_site_hse06_ddec_spin_density
 _atom_site_hse06_ddec_sum_bond_order
 _atom_site_hse06_magmom
 _atom_site_pbe_bader_spin_density
 _atom_site_pbe_cm5_charge
 _atom_site_pbe_ddec_charge
 _atom_site_pbe_ddec_spin_density
 _atom_site_pbe_ddec_sum_bond_order
 _atom_site_pbe_magmom
Sm  Sm0  1  0.52253123  0.25712246  0.42773732  1  0  1.888547  0  2.101997  0  0  1.628557  0  2.665207  0  0  1.691696  0  2.600902  0  0  1.763459  1.582149  0  2.711543  0
Sm  Sm1  1  0.74288286  0.47746585  0.07226175  1  0  1.888619  0  2.102007  0  0  1.628658  0  2.665183  0  0  1.691785  0  2.600897  0  0  1.763532  1.582254  0  2.711515  0
Sm  Sm2  1  0.47746617  0.74288246  0.57226219  1  0  1.888622  0  2.101947  0  0  1.628638  0  2.665156  0  0  1.69178  0  2.600847  0  0  1.763504  1.582233  0  2.711486  0
Sm  Sm3  1  0.25712014  0.52252681  0.92773758  1  0  1.888588  0  2.101889  0  0  1.628542  0  2.665198  0  0  1.691689  0  2.600887  0  0  1.763445  1.58214  0  2.711531  0
H  H4  1  0.96455130  0.99600730  0.39979552  1  0  0.103864  0  0.95673  0  0  0.112026  0  1.020074  0  0  0.11457  0  1.019192  0  0  0.120829  0.110268  0  1.020753  0
H  H5  1  0.00398443  0.03544466  0.10021049  1  0  0.10391  0  0.956864  0  0  0.112143  0  1.020134  0  0  0.114688  0  1.019253  0  0  0.120831  0.110374  0  1.020815  0
H  H6  1  0.03544748  0.00399396  0.60020626  1  0  0.103909  0  0.956694  0  0  0.112073  0  1.020034  0  0  0.114618  0  1.019152  0  0  0.120855  0.110315  0  1.020714  0
H  H7  1  0.99600648  0.96454928  0.89979558  1  0  0.10385  0  0.956775  0  0  0.112061  0  1.020068  0  0  0.114604  0  1.019187  0  0  0.120833  0.110298  0  1.020749  0
H  H8  1  0.90418652  0.24335630  0.33548664  1  0  0.100975  0  0.969884  0  0  0.106614  0  1.038355  0  0  0.109023  0  1.037621  0  0  0.121105  0.104811  0  1.039317  0
H  H9  1  0.75662714  0.09580156  0.16450679  1  0  0.101037  0  0.969872  0  0  0.106678  0  1.038333  0  0  0.109087  0  1.037595  0  0  0.121138  0.104867  0  1.039308  0
H  H10  1  0.09580764  0.75663999  0.66450710  1  0  0.100998  0  0.969943  0  0  0.10664  0  1.038408  0  0  0.109047  0  1.037676  0  0  0.121136  0.104846  0  1.039344  0
H  H11  1  0.24335847  0.90418613  0.83548573  1  0  0.100929  0  0.969894  0  0  0.106604  0  1.038331  0  0  0.109014  0  1.037598  0  0  0.1211  0.104793  0  1.039307  0
H  H12  1  0.77160832  0.70631658  0.77003525  1  0  0.106308  0  0.961123  0  0  0.115338  0  1.022754  0  0  0.117385  0  1.022706  0  0  0.12332  0.113868  0  1.022829  0
H  H13  1  0.29369225  0.22839181  0.72995993  1  0  0.106209  0  0.961045  0  0  0.115267  0  1.022666  0  0  0.117319  0  1.022602  0  0  0.123269  0.113794  0  1.022752  0
H  H14  1  0.22839362  0.29369321  0.22995982  1  0  0.106218  0  0.961059  0  0  0.115277  0  1.022676  0  0  0.117326  0  1.022622  0  0  0.123262  0.113801  0  1.022767  0
H  H15  1  0.70631785  0.77160448  0.27003344  1  0  0.106314  0  0.961222  0  0  0.115311  0  1.0229  0  0  0.117368  0  1.022847  0  0  0.123291  0.113841  0  1.022971  0
H  H16  1  0.86545873  0.47044600  0.73333571  1  0  0.110924  0  0.951619  0  0  0.119471  0  1.011572  0  0  0.121654  0  1.011374  0  0  0.123365  0.118216  0  1.011248  0
H  H17  1  0.52956566  0.13453258  0.76666139  1  0  0.110762  0  0.951513  0  0  0.119326  0  1.011463  0  0  0.121504  0  1.011272  0  0  0.123275  0.118071  0  1.011137  0
H  H18  1  0.13453320  0.52956501  0.26666147  1  0  0.110758  0  0.951498  0  0  0.119317  0  1.011453  0  0  0.121497  0  1.011262  0  0  0.123277  0.11806  0  1.011131  0
H  H19  1  0.47044597  0.86545394  0.23333566  1  0  0.11089  0  0.951543  0  0  0.119418  0  1.011533  0  0  0.121604  0  1.011325  0  0  0.12334  0.118155  0  1.011229  0
H  H20  1  0.36572309  0.06323694  0.00477834  1  0  0.100861  0  0.978487  0  0  0.110235  0  1.041319  0  0  0.112151  0  1.041542  0  0  0.121303  0.108647  0  1.041623  0
H  H21  1  0.93675530  0.63429486  0.49522176  1  0  0.100846  0  0.978505  0  0  0.110214  0  1.041334  0  0  0.112128  0  1.041558  0  0  0.121296  0.108625  0  1.041639  0
H  H22  1  0.63427978  0.93676186  0.99522192  1  0  0.10082  0  0.978528  0  0  0.110204  0  1.041353  0  0  0.112118  0  1.041577  0  0  0.121297  0.108616  0  1.041656  0
H  H23  1  0.06323954  0.36571986  0.50477871  1  0  0.100858  0  0.978518  0  0  0.110235  0  1.041342  0  0  0.11215  0  1.041566  0  0  0.121311  0.108647  0  1.041645  0
H  H24  1  0.16329563  0.87697199  0.15794615  1  0  0.11075  0  0.964146  0  0  0.117181  0  1.029679  0  0  0.12003  0  1.028184  0  0  0.124117  0.115032  0  1.031047  0
H  H25  1  0.12302338  0.83670955  0.34205289  1  0  0.110811  0  0.964203  0  0  0.117221  0  1.029763  0  0  0.120069  0  1.028269  0  0  0.124121  0.115071  0  1.031133  0
H  H26  1  0.83670558  0.12302559  0.84205482  1  0  0.110763  0  0.96413  0  0  0.117183  0  1.029678  0  0  0.120032  0  1.028183  0  0  0.124117  0.115034  0  1.031049  0
H  H27  1  0.87697386  0.16329290  0.65794577  1  0  0.11077  0  0.96412  0  0  0.117193  0  1.029666  0  0  0.120042  0  1.028172  0  0  0.12412  0.115044  0  1.031036  0
C  C28  1  0.86293528  0.01652877  0.41331002  1  0  0.005342  0  3.716724  0  0  -0.021863  0  3.979302  0  0  -0.02119  0  3.995571  0  0  0.014501  -0.0224  0  3.968263  0
C  C29  1  0.98347252  0.13705888  0.08670147  1  0  0.005084  0  3.71645  0  0  -0.022193  0  3.979044  0  0  -0.021523  0  3.995313  0  0  0.01439  -0.022711  0  3.967991  0
C  C30  1  0.13706534  0.98347617  0.58669191  1  0  0.005272  0  3.716665  0  0  -0.021946  0  3.979267  0  0  -0.021272  0  3.995533  0  0  0.014456  -0.022482  0  3.968229  0
C  C31  1  0.01653074  0.86293633  0.91330963  1  0  0.005335  0  3.716744  0  0  -0.021908  0  3.979318  0  0  -0.021233  0  3.995588  0  0  0.014483  -0.022434  0  3.968271  0
C  C32  1  0.83293361  0.13941217  0.38118544  1  0  0.003163  0  3.723231  0  0  -0.027015  0  3.987202  0  0  -0.02446  0  4.003621  0  0  0.018726  -0.029051  0  3.976921  0
C  C33  1  0.86057545  0.16706084  0.11882156  1  0  0.003115  0  3.722926  0  0  -0.027078  0  3.986938  0  0  -0.024516  0  4.003351  0  0  0.018625  -0.029115  0  3.976658  0
C  C34  1  0.16706060  0.86058418  0.61881532  1  0  0.003008  0  3.723153  0  0  -0.02718  0  3.987134  0  0  -0.024623  0  4.003549  0  0  0.018606  -0.029214  0  3.976863  0
C  C35  1  0.13940938  0.83292943  0.88118581  1  0  0.003171  0  3.72335  0  0  -0.027043  0  3.987336  0  0  -0.024487  0  4.003756  0  0  0.018702  -0.02908  0  3.977055  0
C  C36  1  0.73433094  0.61251645  0.70698740  1  0  0.020082  0  3.683517  0  0  -0.014317  0  3.94915  0  0  -0.01166  0  3.966272  0  0  0.020742  -0.015836  0  3.93757  0
C  C37  1  0.38750026  0.26566188  0.79301412  1  0  0.020222  0  3.683784  0  0  -0.01422  0  3.949418  0  0  -0.01156  0  3.96655  0  0  0.020787  -0.015738  0  3.937832  0
C  C38  1  0.26566346  0.38749951  0.29301387  1  0  0.020106  0  3.683781  0  0  -0.014345  0  3.949421  0  0  -0.011686  0  3.966549  0  0  0.020751  -0.015864  0  3.937836  0
C  C39  1  0.61252085  0.73433082  0.20698802  1  0  0.020142  0  3.683644  0  0  -0.014215  0  3.949243  0  0  -0.011573  0  3.966356  0  0  0.020801  -0.01573  0  3.937658  0
C  C40  1  0.78121328  0.49528074  0.68846673  1  0  0.013307  0  3.698428  0  0  -0.015095  0  3.966348  0  0  -0.014032  0  3.98295  0  0  0.01466  -0.015768  0  3.954614  0
C  C41  1  0.50472481  0.21879312  0.81153589  1  0  0.013464  0  3.698786  0  0  -0.014927  0  3.966697  0  0  -0.013867  0  3.983309  0  0  0.014791  -0.015595  0  3.954955  0
C  C42  1  0.21879433  0.50472543  0.31153619  1  0  0.013521  0  3.698748  0  0  -0.014863  0  3.966649  0  0  -0.0138  0  3.983261  0  0  0.014806  -0.01553  0  3.95491  0
C  C43  1  0.49528218  0.78121182  0.18846542  1  0  0.013281  0  3.698483  0  0  -0.015108  0  3.966412  0  0  -0.014043  0  3.98302  0  0  0.014673  -0.01578  0  3.954671  0
C  C44  1  0.38027962  0.08331075  0.08902290  1  0  0.020965  0  3.693025  0  0  -0.014675  0  3.956898  0  0  -0.011694  0  3.97397  0  0  0.02126  -0.016348  0  3.945116  0
C  C45  1  0.91668356  0.61973142  0.41097940  1  0  0.021005  0  3.693033  0  0  -0.014621  0  3.956885  0  0  -0.011637  0  3.973955  0  0  0.021199  -0.016298  0  3.945109  0
C  C46  1  0.61972326  0.91668806  0.91097892  1  0  0.021046  0  3.693085  0  0  -0.014612  0  3.956967  0  0  -0.011632  0  3.974042  0  0  0.021207  -0.016287  0  3.945185  0
C  C47  1  0.08331402  0.38027596  0.58902251  1  0  0.020991  0  3.693087  0  0  -0.014646  0  3.956954  0  0  -0.011665  0  3.974029  0  0  0.021207  -0.016319  0  3.945172  0
C  C48  1  0.27922895  0.99136771  0.16542152  1  0  0.004676  0  3.696344  0  0  -0.022906  0  3.961833  0  0  -0.022225  0  3.977972  0  0  0.013593  -0.023195  0  3.951035  0
C  C49  1  0.00863369  0.72077707  0.33457926  1  0  0.004721  0  3.696276  0  0  -0.022843  0  3.961713  0  0  -0.022163  0  3.977851  0  0  0.013646  -0.023136  0  3.95092  0
C  C50  1  0.72077241  0.00863232  0.83457952  1  0  0.004712  0  3.696394  0  0  -0.022859  0  3.961866  0  0  -0.022178  0  3.978006  0  0  0.013629  -0.023151  0  3.951074  0
C  C51  1  0.99136798  0.27922785  0.66542114  1  0  0.004663  0  3.696374  0  0  -0.02292  0  3.961854  0  0  -0.02224  0  3.977994  0  0  0.013593  -0.023211  0  3.951059  0
N  N52  1  0.68953802  0.11182081  0.41910401  1  0  -0.312328  0  3.237675  0  0  -0.266531  0  3.527312  0  0  -0.277718  0  3.545689  0  0  -0.306161  -0.258453  0  3.514997  0
N  N53  1  0.88817375  0.31045530  0.08089595  1  0  -0.312265  0  3.237792  0  0  -0.266476  0  3.527472  0  0  -0.277664  0  3.545848  0  0  -0.30614  -0.258395  0  3.515147  0
N  N54  1  0.31045966  0.88818041  0.58089384  1  0  -0.312205  0  3.237521  0  0  -0.266412  0  3.527183  0  0  -0.277601  0  3.545561  0  0  -0.306126  -0.258334  0  3.514861  0
N  N55  1  0.11182242  0.68953859  0.91910402  1  0  -0.312273  0  3.237785  0  0  -0.266476  0  3.527454  0  0  -0.277666  0  3.54583  0  0  -0.306124  -0.258401  0  3.515142  0
N  N56  1  0.63465242  0.97701842  0.47205197  1  0  -0.23335  0  3.331738  0  0  -0.191818  0  3.625309  0  0  -0.200447  0  3.646646  0  0  -0.259502  -0.185201  0  3.610002  0
N  N57  1  0.02297642  0.36533993  0.02794887  1  0  -0.233465  0  3.331923  0  0  -0.191946  0  3.625506  0  0  -0.200575  0  3.646843  0  0  -0.259515  -0.18533  0  3.610207  0
N  N58  1  0.36534482  0.02298404  0.52794747  1  0  -0.233508  0  3.331801  0  0  -0.191999  0  3.625404  0  0  -0.200625  0  3.646739  0  0  -0.259542  -0.18538  0  3.610102  0
N  N59  1  0.97702021  0.63465273  0.97205108  1  0  -0.233284  0  3.331736  0  0  -0.191747  0  3.625293  0  0  -0.200372  0  3.646627  0  0  -0.259455  -0.18513  0  3.609989  0
N  N60  1  0.73661685  0.91691287  0.47007113  1  0  -0.31602  0  3.148812  0  0  -0.277798  0  3.431948  0  0  -0.286544  0  3.449463  0  0  -0.298053  -0.271489  0  3.420284  0
N  N61  1  0.08308678  0.26338111  0.02993412  1  0  -0.315761  0  3.148602  0  0  -0.27752  0  3.431733  0  0  -0.286269  0  3.449253  0  0  -0.297901  -0.27121  0  3.420062  0
N  N62  1  0.26338210  0.08309084  0.52993150  1  0  -0.315839  0  3.148762  0  0  -0.277592  0  3.43186  0  0  -0.286338  0  3.449377  0  0  -0.297965  -0.271282  0  3.420194  0
N  N63  1  0.91691278  0.73661528  0.97007067  1  0  -0.316073  0  3.148838  0  0  -0.277861  0  3.432005  0  0  -0.286607  0  3.44952  0  0  -0.298086  -0.271552  0  3.420338  0
N  N64  1  0.69570840  0.40477961  0.60010407  1  0  -0.322008  0  3.163845  0  0  -0.279369  0  3.442155  0  0  -0.289286  0  3.461405  0  0  -0.30175  -0.272557  0  3.429217  0
N  N65  1  0.59522793  0.30428346  0.89989356  1  0  -0.322007  0  3.163918  0  0  -0.279376  0  3.442228  0  0  -0.289291  0  3.461479  0  0  -0.301804  -0.272566  0  3.429288  0
N  N66  1  0.30428427  0.59522651  0.39989301  1  0  -0.321988  0  3.163942  0  0  -0.279355  0  3.442244  0  0  -0.289274  0  3.461498  0  0  -0.301759  -0.272544  0  3.429303  0
N  N67  1  0.40477855  0.69570552  0.10010421  1  0  -0.321953  0  3.16388  0  0  -0.279313  0  3.442179  0  0  -0.289232  0  3.461428  0  0  -0.301725  -0.2725  0  3.42924  0
N  N68  1  0.60160172  0.46500915  0.56660721  1  0  -0.227245  0  3.348312  0  0  -0.182694  0  3.634179  0  0  -0.191413  0  3.657104  0  0  -0.265328  -0.176247  0  3.618039  0
N  N69  1  0.53499913  0.39839160  0.93339101  1  0  -0.227271  0  3.348244  0  0  -0.182733  0  3.634146  0  0  -0.191452  0  3.657069  0  0  -0.265319  -0.176285  0  3.618003  0
N  N70  1  0.39839203  0.53499698  0.43339145  1  0  -0.227294  0  3.348196  0  0  -0.182756  0  3.634095  0  0  -0.191478  0  3.657025  0  0  -0.26535  -0.176305  0  3.617949  0
N  N71  1  0.46500857  0.60159983  0.06660607  1  0  -0.227219  0  3.348222  0  0  -0.182652  0  3.634078  0  0  -0.191376  0  3.657003  0  0  -0.265332  -0.176206  0  3.617941  0
N  N72  1  0.62253282  0.59110633  0.62926604  1  0  -0.318994  0  3.255354  0  0  -0.271097  0  3.545295  0  0  -0.282922  0  3.56468  0  0  -0.311412  -0.262801  0  3.53179  0
N  N73  1  0.40890140  0.37746136  0.87073124  1  0  -0.319101  0  3.255334  0  0  -0.271193  0  3.545293  0  0  -0.283017  0  3.564674  0  0  -0.31143  -0.262897  0  3.53179  0
N  N74  1  0.37746366  0.40890102  0.37073116  1  0  -0.319048  0  3.255288  0  0  -0.271136  0  3.545212  0  0  -0.282958  0  3.564592  0  0  -0.311415  -0.262839  0  3.531709  0
N  N75  1  0.59110690  0.62253128  0.12926511  1  0  -0.319082  0  3.255551  0  0  -0.271199  0  3.545495  0  0  -0.283019  0  3.564881  0  0  -0.311455  -0.262901  0  3.531991  0
N  N76  1  0.35415131  0.06942540  0.25934926  1  0  -0.32935  0  3.147183  0  0  -0.286849  0  3.42623  0  0  -0.295843  0  3.443048  0  0  -0.29605  -0.280555  0  3.415365  0
N  N77  1  0.93057438  0.64584851  0.24065054  1  0  -0.329468  0  3.147224  0  0  -0.28698  0  3.42628  0  0  -0.295973  0  3.443098  0  0  -0.296084  -0.280688  0  3.415419  0
N  N78  1  0.64584777  0.93057218  0.74065165  1  0  -0.329412  0  3.147314  0  0  -0.286915  0  3.42636  0  0  -0.295906  0  3.443174  0  0  -0.296057  -0.280621  0  3.415497  0
N  N79  1  0.06942848  0.35415028  0.75934895  1  0  -0.329313  0  3.147261  0  0  -0.2868  0  3.426293  0  0  -0.295794  0  3.443112  0  0  -0.296029  -0.280508  0  3.415432  0
N  N80  1  0.49459789  0.20278212  0.24022850  1  0  -0.219495  0  3.32056  0  0  -0.17663  0  3.607008  0  0  -0.184822  0  3.628713  0  0  -0.256708  -0.170863  0  3.592297  0
N  N81  1  0.79721908  0.50540303  0.25977216  1  0  -0.219496  0  3.320448  0  0  -0.176637  0  3.606906  0  0  -0.184825  0  3.628607  0  0  -0.256776  -0.170874  0  3.5922  0
N  N82  1  0.50540180  0.79721668  0.75977325  1  0  -0.219495  0  3.320567  0  0  -0.176634  0  3.607018  0  0  -0.184824  0  3.628722  0  0  -0.256736  -0.170871  0  3.59231  0
N  N83  1  0.20278334  0.49459700  0.74022890  1  0  -0.21957  0  3.320699  0  0  -0.176705  0  3.607157  0  0  -0.184898  0  3.628865  0  0  -0.256763  -0.170943  0  3.592452  0
N  N84  1  0.51354356  0.21491940  0.13773491  1  0  -0.310964  0  3.226317  0  0  -0.260741  0  3.510303  0  0  -0.272233  0  3.52926  0  0  -0.306027  -0.252204  0  3.496681  0
N  N85  1  0.78507666  0.48646352  0.36226579  1  0  -0.310983  0  3.226214  0  0  -0.260762  0  3.510195  0  0  -0.272253  0  3.529152  0  0  -0.305905  -0.252222  0  3.496572  0
N  N86  1  0.48645658  0.78507817  0.86226604  1  0  -0.311006  0  3.226259  0  0  -0.260771  0  3.510249  0  0  -0.272262  0  3.529205  0  0  -0.305949  -0.25223  0  3.496626  0
N  N87  1  0.21492305  0.51354387  0.63773618  1  0  -0.31097  0  3.226329  0  0  -0.260751  0  3.510318  0  0  -0.272242  0  3.529277  0  0  -0.305948  -0.252212  0  3.496698  0
