# generated using pymatgen
data_ZnH10C12SN4O5
_symmetry_space_group_name_H-M   'P 1'
_cell_length_a   6.68864423
_cell_length_b   14.86090352
_cell_length_c   16.52187205
_cell_angle_alpha   90.00047574
_cell_angle_beta   97.91075692
_cell_angle_gamma   90.00074262
_symmetry_Int_Tables_number   1
_chemical_formula_structural   ZnH10C12SN4O5
_chemical_formula_sum   'Zn4 H40 C48 S4 N16 O20'
_cell_volume   1626.63410131
_cell_formula_units_Z   4
loop_
 _symmetry_equiv_pos_site_id
 _symmetry_equiv_pos_as_xyz
  1  'x, y, z'
loop_
 _atom_site_type_symbol
 _atom_site_label
 _atom_site_symmetry_multiplicity
 _atom_site_fract_x
 _atom_site_fract_y
 _atom_site_fract_z
 _atom_site_occupancy
 _atom_site_hle17_bader_spin_density
 _atom_site_hle17_ddec_charge
 _atom_site_hle17_ddec_spin_density
 _atom_site_hle17_ddec_sum_bond_order
 _atom_site_hle17_magmom
 _atom_site_hse06_10hf_bader_spin_density
 _atom_site_hse06_10hf_ddec_charge
 _atom_site_hse06_10hf_ddec_spin_density
 _atom_site_hse06_10hf_ddec_sum_bond_order
 _atom_site_hse06_10hf_magmom
 _atom_site_hse06_bader_spin_density
 _atom_site_hse06_ddec_charge
 _atom_site_hse06_ddec_spin_density
 _atom_site_hse06_ddec_sum_bond_order
 _atom_site_hse06_magmom
 _atom_site_pbe_bader_spin_density
 _atom_site_pbe_cm5_charge
 _atom_site_pbe_ddec_charge
 _atom_site_pbe_ddec_spin_density
 _atom_site_pbe_ddec_sum_bond_order
 _atom_site_pbe_magmom
Zn  Zn0  1  0.13076409  0.17752998  0.58828761  1  0  0.971489  0  1.910554  0  0  0.780746  0  2.36553  0  0  0.82396  0  2.317316  0  0  0.71938  0.7506  0  2.398961  0
Zn  Zn1  1  0.63074779  0.32246850  0.08828413  1  0  0.971523  0  1.910513  0  0  0.780819  0  2.365394  0  0  0.824028  0  2.317186  0  0  0.71943  0.750677  0  2.398824  0
Zn  Zn2  1  0.86923443  0.82246989  0.41171351  1  0  0.971515  0  1.910475  0  0  0.780805  0  2.365379  0  0  0.824019  0  2.31717  0  0  0.719389  0.75066  0  2.398809  0
Zn  Zn3  1  0.36925072  0.67753541  0.91171699  1  0  0.971499  0  1.910516  0  0  0.780792  0  2.365425  0  0  0.824003  0  2.317217  0  0  0.719398  0.750647  0  2.398856  0
H  H4  1  0.00557318  0.34242349  0.47075196  1  0  0.089701  0  0.924613  0  0  0.099073  0  0.983587  0  0  0.101842  0  0.980986  0  0  0.122821  0.096962  0  0.985566  0
H  H5  1  0.50552672  0.15758250  0.97074562  1  0  0.089592  0  0.924625  0  0  0.098956  0  0.983633  0  0  0.101738  0  0.981012  0  0  0.122739  0.096845  0  0.985613  0
H  H6  1  0.99444194  0.65757974  0.52925189  1  0  0.089609  0  0.924549  0  0  0.098971  0  0.983556  0  0  0.101749  0  0.98094  0  0  0.122764  0.09686  0  0.985535  0
H  H7  1  0.49444615  0.84242410  0.02925772  1  0  0.089663  0  0.924555  0  0  0.099005  0  0.98358  0  0  0.101793  0  0.980951  0  0  0.122766  0.096893  0  0.98556  0
H  H8  1  0.00719326  0.37366990  0.32056722  1  0  0.112167  0  0.938731  0  0  0.122424  0  0.9941  0  0  0.125794  0  0.993437  0  0  0.111916  0.119964  0  0.994829  0
H  H9  1  0.50717298  0.12633001  0.82056451  1  0  0.112138  0  0.93882  0  0  0.122388  0  0.994205  0  0  0.125759  0  0.993538  0  0  0.111902  0.119927  0  0.994932  0
H  H10  1  0.99278865  0.62632863  0.67943359  1  0  0.112152  0  0.938784  0  0  0.122447  0  0.994106  0  0  0.125822  0  0.993439  0  0  0.111913  0.119988  0  0.994838  0
H  H11  1  0.49280895  0.87367323  0.17944054  1  0  0.112262  0  0.938738  0  0  0.122529  0  0.994088  0  0  0.125903  0  0.993421  0  0  0.11196  0.120071  0  0.99482  0
H  H12  1  0.10760376  0.25093969  0.23157668  1  0  0.120666  0  0.954176  0  0  0.12847  0  1.014426  0  0  0.131981  0  1.011814  0  0  0.112056  0.125779  0  1.016412  0
H  H13  1  0.60760702  0.24905392  0.73157316  1  0  0.120659  0  0.954092  0  0  0.128387  0  1.01444  0  0  0.131898  0  1.01183  0  0  0.112033  0.125699  0  1.016428  0
H  H14  1  0.89238721  0.74906355  0.76842403  1  0  0.120697  0  0.95407  0  0  0.128446  0  1.014402  0  0  0.131958  0  1.011792  0  0  0.112022  0.125751  0  1.016387  0
H  H15  1  0.39239752  0.75093989  0.26842527  1  0  0.120669  0  0.954214  0  0  0.12848  0  1.014452  0  0  0.131995  0  1.011834  0  0  0.112045  0.125784  0  1.016436  0
H  H16  1  0.20528522  0.10000126  0.29584039  1  0  0.10974  0  0.931186  0  0  0.123143  0  0.982827  0  0  0.125963  0  0.982922  0  0  0.11292  0.121086  0  0.982979  0
H  H17  1  0.70528428  0.39999620  0.79583777  1  0  0.109761  0  0.931132  0  0  0.123158  0  0.982781  0  0  0.125979  0  0.982873  0  0  0.112913  0.1211  0  0.982933  0
H  H18  1  0.79472535  0.90000467  0.70415898  1  0  0.109762  0  0.931076  0  0  0.123165  0  0.982718  0  0  0.125986  0  0.982808  0  0  0.112927  0.121106  0  0.982869  0
H  H19  1  0.29472177  0.59999896  0.20416135  1  0  0.109714  0  0.931187  0  0  0.123119  0  0.982832  0  0  0.12594  0  0.982922  0  0  0.112896  0.12106  0  0.982983  0
H  H20  1  0.25908057  0.00023082  0.42335866  1  0  0.123286  0  0.923268  0  0  0.13072  0  0.985362  0  0  0.134961  0  0.980166  0  0  0.128725  0.127502  0  0.989373  0
H  H21  1  0.75907530  0.49977015  0.92336079  1  0  0.123319  0  0.923313  0  0  0.130733  0  0.985405  0  0  0.134977  0  0.980199  0  0  0.128735  0.127518  0  0.989417  0
H  H22  1  0.74091943  0.99976502  0.57663830  1  0  0.123242  0  0.923427  0  0  0.130683  0  0.985497  0  0  0.134922  0  0.980305  0  0  0.128715  0.127465  0  0.989502  0
H  H23  1  0.24091568  0.50023645  0.07664234  1  0  0.1233  0  0.923363  0  0  0.130717  0  0.985433  0  0  0.134954  0  0.980243  0  0  0.128725  0.127502  0  0.989441  0
H  H24  1  0.42494742  0.83010043  0.64420062  1  0  0.136784  0  0.994637  0  0  0.144852  0  1.053208  0  0  0.148958  0  1.051064  0  0  0.115632  0.141844  0  1.054847  0
H  H25  1  0.92494588  0.66989869  0.14420225  1  0  0.136775  0  0.994663  0  0  0.144874  0  1.053196  0  0  0.148981  0  1.051051  0  0  0.115667  0.141868  0  1.054838  0
H  H26  1  0.57506163  0.16989877  0.35579564  1  0  0.136773  0  0.994547  0  0  0.144792  0  1.053177  0  0  0.148899  0  1.051032  0  0  0.115628  0.141783  0  1.054817  0
H  H27  1  0.07504962  0.33010186  0.85579992  1  0  0.13672  0  0.994702  0  0  0.144823  0  1.053242  0  0  0.14893  0  1.051098  0  0  0.115643  0.141816  0  1.054883  0
H  H28  1  0.47734261  0.71246019  0.75265554  1  0  0.09694  0  0.922475  0  0  0.105908  0  0.980906  0  0  0.108735  0  0.978489  0  0  0.127479  0.103764  0  0.982803  0
H  H29  1  0.97734030  0.78753889  0.25265560  1  0  0.096907  0  0.922485  0  0  0.10587  0  0.980925  0  0  0.108697  0  0.978507  0  0  0.127475  0.103727  0  0.982823  0
H  H30  1  0.52266496  0.28753699  0.24734608  1  0  0.09699  0  0.922416  0  0  0.105945  0  0.980868  0  0  0.10877  0  0.978445  0  0  0.127503  0.1038  0  0.982766  0
H  H31  1  0.02265672  0.21245829  0.74734908  1  0  0.096831  0  0.922564  0  0  0.105801  0  0.981004  0  0  0.108627  0  0.978579  0  0  0.127462  0.10366  0  0.9829  0
H  H32  1  0.17832527  0.86216561  0.90999685  1  0  0.094662  0  0.919778  0  0  0.103511  0  0.978498  0  0  0.106268  0  0.976282  0  0  0.127561  0.101394  0  0.980299  0
H  H33  1  0.67831965  0.63783587  0.40999257  1  0  0.094693  0  0.919724  0  0  0.103517  0  0.978488  0  0  0.106274  0  0.976273  0  0  0.127567  0.101399  0  0.98029  0
H  H34  1  0.82166569  0.13783560  0.09000325  1  0  0.094682  0  0.919789  0  0  0.103492  0  0.97854  0  0  0.106247  0  0.976325  0  0  0.127569  0.101376  0  0.98034  0
H  H35  1  0.32168944  0.36215996  0.59001095  1  0  0.094627  0  0.919862  0  0  0.103456  0  0.978602  0  0  0.106212  0  0.976385  0  0  0.127512  0.101338  0  0.980404  0
H  H36  1  0.14876564  0.99501704  0.81417377  1  0  0.122938  0  0.928229  0  0  0.134153  0  0.980247  0  0  0.137988  0  0.978683  0  0  0.119515  0.131373  0  0.981547  0
H  H37  1  0.64877691  0.50498070  0.31417366  1  0  0.122922  0  0.928158  0  0  0.134117  0  0.980187  0  0  0.137953  0  0.978622  0  0  0.119515  0.131338  0  0.981489  0
H  H38  1  0.85123136  0.00498082  0.18582545  1  0  0.122974  0  0.928217  0  0  0.134193  0  0.980216  0  0  0.138029  0  0.978651  0  0  0.119531  0.131415  0  0.981518  0
H  H39  1  0.35124576  0.49501715  0.68583000  1  0  0.122957  0  0.928158  0  0  0.134169  0  0.980171  0  0  0.138006  0  0.978604  0  0  0.119511  0.131388  0  0.981475  0
H  H40  1  0.30623260  0.92396074  0.55748731  1  0  0.31896  0  0.943346  0  0  0.290781  0  1.019293  0  0  0.301155  0  1.011479  0  0  0.306197  0.283454  0  1.024732  0
H  H41  1  0.80623107  0.57603959  0.05749066  1  0  0.319035  0  0.943169  0  0  0.290767  0  1.019256  0  0  0.301142  0  1.011441  0  0  0.306196  0.283442  0  1.024695  0
H  H42  1  0.69375834  0.07604250  0.44250795  1  0  0.319058  0  0.943162  0  0  0.290822  0  1.019193  0  0  0.3012  0  1.011369  0  0  0.306193  0.283495  0  1.024635  0
H  H43  1  0.19376293  0.42396163  0.94251385  1  0  0.318816  0  0.943553  0  0  0.290767  0  1.019285  0  0  0.301126  0  1.011499  0  0  0.306168  0.283439  0  1.024728  0
C  C44  1  0.05527127  0.29206716  0.42984500  1  0  0.154679  0  3.685162  0  0  0.121041  0  3.938063  0  0  0.128778  0  3.954374  0  0  0.063181  0.115912  0  3.927342  0
C  C45  1  0.55525813  0.20793269  0.92984208  1  0  0.154825  0  3.685181  0  0  0.121151  0  3.938099  0  0  0.12888  0  3.954399  0  0  0.063272  0.116021  0  3.927375  0
C  C46  1  0.94472423  0.70793204  0.57015656  1  0  0.155004  0  3.685238  0  0  0.121384  0  3.938151  0  0  0.129116  0  3.954456  0  0  0.063354  0.116254  0  3.927431  0
C  C47  1  0.44473133  0.79206853  0.07015976  1  0  0.154775  0  3.685208  0  0  0.121134  0  3.938123  0  0  0.128861  0  3.95442  0  0  0.06327  0.116005  0  3.927403  0
C  C48  1  0.05484033  0.30850184  0.34657582  1  0  -0.106685  0  3.69101  0  0  -0.119596  0  3.940502  0  0  -0.126434  0  3.961048  0  0  -0.074636  -0.115435  0  3.927018  0
C  C49  1  0.55483270  0.19149521  0.84657248  1  0  -0.106701  0  3.691095  0  0  -0.119615  0  3.940619  0  0  -0.12645  0  3.961162  0  0  -0.07464  -0.11545  0  3.927131  0
C  C50  1  0.94515213  0.69150072  0.65342195  1  0  -0.106867  0  3.691493  0  0  -0.119811  0  3.940977  0  0  -0.126652  0  3.961524  0  0  -0.074715  -0.115651  0  3.927496  0
C  C51  1  0.44516733  0.80850466  0.15342994  1  0  -0.106805  0  3.691126  0  0  -0.119751  0  3.940635  0  0  -0.126592  0  3.961184  0  0  -0.074685  -0.11559  0  3.927153  0
C  C52  1  0.11086988  0.23949453  0.29713433  1  0  0.004944  0  3.680304  0  0  -0.014577  0  3.933507  0  0  -0.010842  0  3.951664  0  0  -0.061383  -0.016803  0  3.921369  0
C  C53  1  0.61087655  0.26050038  0.79713350  1  0  0.004969  0  3.6804  0  0  -0.014512  0  3.933614  0  0  -0.010778  0  3.951764  0  0  -0.061357  -0.016745  0  3.921479  0
C  C54  1  0.88912559  0.76050736  0.70286300  1  0  0.004983  0  3.680446  0  0  -0.01453  0  3.933706  0  0  -0.010794  0  3.951855  0  0  -0.061334  -0.016752  0  3.921564  0
C  C55  1  0.38913556  0.73949277  0.20286897  1  0  0.004956  0  3.680277  0  0  -0.014551  0  3.933449  0  0  -0.010816  0  3.951602  0  0  -0.061326  -0.016767  0  3.921299  0
C  C56  1  0.16404160  0.15612374  0.33265650  1  0  -0.144772  0  3.704575  0  0  -0.166297  0  3.959797  0  0  -0.173802  0  3.982097  0  0  -0.076358  -0.161574  0  3.945047  0
C  C57  1  0.66404793  0.34387113  0.83265749  1  0  -0.144708  0  3.704584  0  0  -0.166239  0  3.959763  0  0  -0.173739  0  3.982056  0  0  -0.076291  -0.161515  0  3.945012  0
C  C58  1  0.83595992  0.84387815  0.66734236  1  0  -0.144776  0  3.704428  0  0  -0.1663  0  3.959615  0  0  -0.173802  0  3.981915  0  0  -0.07632  -0.161575  0  3.94486  0
C  C59  1  0.33595662  0.65612269  0.16734275  1  0  -0.144661  0  3.704597  0  0  -0.166249  0  3.95979  0  0  -0.173753  0  3.982092  0  0  -0.076323  -0.161525  0  3.945037  0
C  C60  1  0.16423460  0.14471231  0.41661655  1  0  0.214689  0  3.777988  0  0  0.208807  0  4.032534  0  0  0.214956  0  4.051831  0  0  0.119387  0.204718  0  4.019755  0
C  C61  1  0.66423072  0.35528805  0.91661525  1  0  0.214688  0  3.777998  0  0  0.208855  0  4.032407  0  0  0.215002  0  4.051706  0  0  0.119398  0.204764  0  4.019628  0
C  C62  1  0.83577145  0.85529160  0.58338317  1  0  0.21475  0  3.777861  0  0  0.208945  0  4.032313  0  0  0.215092  0  4.051609  0  0  0.11941  0.204852  0  4.019533  0
C  C63  1  0.33577685  0.64471048  0.08338637  1  0  0.214651  0  3.778112  0  0  0.208885  0  4.03243  0  0  0.215032  0  4.051726  0  0  0.119392  0.204792  0  4.019655  0
C  C64  1  0.22020241  0.05919498  0.45789819  1  0  0.061354  0  3.563368  0  0  0.011797  0  3.833328  0  0  0.021916  0  3.839298  0  0  0.075908  0.004658  0  3.830028  0
C  C65  1  0.72020427  0.44080608  0.95789482  1  0  0.061243  0  3.563201  0  0  0.011708  0  3.8331  0  0  0.021827  0  3.839065  0  0  0.075828  0.004568  0  3.829813  0
C  C66  1  0.77980061  0.94080422  0.54209773  1  0  0.061454  0  3.563687  0  0  0.011857  0  3.833624  0  0  0.021976  0  3.839595  0  0  0.07597  0.004724  0  3.830319  0
C  C67  1  0.27979423  0.55919783  0.04210388  1  0  0.061249  0  3.563536  0  0  0.011728  0  3.833375  0  0  0.021845  0  3.839337  0  0  0.07587  0.004588  0  3.830081  0
C  C68  1  0.25102847  0.00122512  0.66518790  1  0  0.504429  0  3.79039  0  0  0.456437  0  4.072573  0  0  0.485587  0  4.072978  0  0  0.248663  0.436762  0  4.071803  0
C  C69  1  0.75102840  0.49877342  0.16518603  1  0  0.504358  0  3.790514  0  0  0.456333  0  4.072737  0  0  0.485482  0  4.07315  0  0  0.248739  0.43666  0  4.071966  0
C  C70  1  0.74897003  0.99877610  0.33481201  1  0  0.504384  0  3.790354  0  0  0.456338  0  4.072623  0  0  0.485488  0  4.073034  0  0  0.248733  0.436662  0  4.07186  0
C  C71  1  0.24896559  0.50121905  0.83481545  1  0  0.504369  0  3.790354  0  0  0.456375  0  4.072572  0  0  0.485529  0  4.072981  0  0  0.248886  0.43672  0  4.071769  0
C  C72  1  0.28761281  0.92365864  0.72236029  1  0  -0.000309  0  3.763539  0  0  0.014737  0  4.001345  0  0  0.012921  0  4.022578  0  0  0.005754  0.015982  0  3.98704  0
C  C73  1  0.78760525  0.57633973  0.22236028  1  0  -0.000315  0  3.763482  0  0  0.014682  0  4.001374  0  0  0.012868  0  4.022602  0  0  0.005744  0.015926  0  3.98707  0
C  C74  1  0.71239624  0.07634056  0.27763536  1  0  -0.000138  0  3.763428  0  0  0.014902  0  4.00125  0  0  0.013087  0  4.022484  0  0  0.005774  0.016148  0  3.986945  0
C  C75  1  0.21239929  0.42366216  0.77763875  1  0  -0.000205  0  3.763542  0  0  0.0148  0  4.001397  0  0  0.012984  0  4.022626  0  0  0.005749  0.016042  0  3.987088  0
C  C76  1  0.37795628  0.84289724  0.70373407  1  0  -0.138467  0  3.686179  0  0  -0.162161  0  3.935237  0  0  -0.167748  0  3.955745  0  0  -0.077753  -0.158534  0  3.921676  0
C  C77  1  0.87794978  0.65710081  0.20373291  1  0  -0.138477  0  3.686078  0  0  -0.162195  0  3.935163  0  0  -0.167782  0  3.955669  0  0  -0.077837  -0.158569  0  3.9216  0
C  C78  1  0.62205278  0.15710129  0.29626219  1  0  -0.138491  0  3.686081  0  0  -0.162162  0  3.935183  0  0  -0.167751  0  3.955692  0  0  -0.077771  -0.158531  0  3.921622  0
C  C79  1  0.12205023  0.34289838  0.79626709  1  0  -0.138422  0  3.685966  0  0  -0.162154  0  3.935052  0  0  -0.16774  0  3.955562  0  0  -0.077817  -0.158524  0  3.921481  0
C  C80  1  0.40305096  0.77582965  0.76289311  1  0  0.150153  0  3.645203  0  0  0.116932  0  3.897399  0  0  0.123611  0  3.913904  0  0  0.063266  0.112471  0  3.886397  0
C  C81  1  0.90304510  0.72417178  0.26289067  1  0  0.150228  0  3.645012  0  0  0.117027  0  3.897189  0  0  0.123705  0  3.913696  0  0  0.06331  0.112565  0  3.886193  0
C  C82  1  0.59694905  0.22416887  0.23710507  1  0  0.149996  0  3.645156  0  0  0.116798  0  3.897347  0  0  0.123482  0  3.913853  0  0  0.063189  0.112337  0  3.886344  0
C  C83  1  0.09695491  0.27582540  0.73710932  1  0  0.150245  0  3.645121  0  0  0.117033  0  3.897321  0  0  0.123713  0  3.91383  0  0  0.063332  0.112569  0  3.886324  0
C  C84  1  0.24173796  0.86075243  0.85263091  1  0  0.142134  0  3.672927  0  0  0.109368  0  3.924401  0  0  0.115415  0  3.942031  0  0  0.061762  0.105267  0  3.912725  0
C  C85  1  0.74173541  0.63924957  0.35262862  1  0  0.142156  0  3.673004  0  0  0.109361  0  3.924513  0  0  0.115406  0  3.942144  0  0  0.061757  0.105262  0  3.912833  0
C  C86  1  0.75825601  0.13924610  0.14736694  1  0  0.142105  0  3.672973  0  0  0.109361  0  3.924416  0  0  0.115408  0  3.942046  0  0  0.061765  0.105262  0  3.91274  0
C  C87  1  0.25827367  0.36075031  0.64737368  1  0  0.142103  0  3.67304  0  0  0.109356  0  3.924474  0  0  0.115401  0  3.942104  0  0  0.0618  0.105258  0  3.912795  0
C  C88  1  0.22123203  0.93286079  0.79889403  1  0  -0.123771  0  3.702686  0  0  -0.145027  0  3.947927  0  0  -0.150447  0  3.9685  0  0  -0.069822  -0.141568  0  3.934274  0
C  C89  1  0.72123473  0.56714261  0.29889451  1  0  -0.123781  0  3.702668  0  0  -0.144931  0  3.947856  0  0  -0.150349  0  3.968426  0  0  -0.06982  -0.141475  0  3.934204  0
C  C90  1  0.77877099  0.06714042  0.20110250  1  0  -0.123875  0  3.702754  0  0  -0.145086  0  3.947933  0  0  -0.150504  0  3.9685  0  0  -0.069852  -0.141631  0  3.934288  0
C  C91  1  0.27878492  0.43285794  0.70110777  1  0  -0.12372  0  3.702607  0  0  -0.144913  0  3.947761  0  0  -0.150329  0  3.968329  0  0  -0.069761  -0.141458  0  3.934113  0
S  S92  1  0.66424543  0.20173922  0.56053467  1  0  1.55899  0  5.852911  0  0  1.444643  0  6.398326  0  0  1.500665  0  6.361781  0  0  0.530554  1.405287  0  6.421996  0
S  S93  1  0.16423914  0.29826526  0.06053535  1  0  1.558991  0  5.852566  0  0  1.444693  0  6.397968  0  0  1.500717  0  6.361428  0  0  0.530691  1.40534  0  6.421635  0
S  S94  1  0.33575307  0.79826469  0.43946343  1  0  1.559031  0  5.852611  0  0  1.444696  0  6.398033  0  0  1.500716  0  6.361493  0  0  0.530572  1.405343  0  6.421704  0
S  S95  1  0.83575485  0.70173461  0.93946673  1  0  1.558788  0  5.85271  0  0  1.444516  0  6.398087  0  0  1.500538  0  6.361547  0  0  0.5305  1.405165  0  6.421753  0
N  N96  1  0.11061341  0.21273919  0.46392361  1  0  -0.346976  0  3.258618  0  0  -0.274669  0  3.528524  0  0  -0.291717  0  3.542417  0  0  -0.316554  -0.263487  0  3.519519  0
N  N97  1  0.61060130  0.28725995  0.96392013  1  0  -0.347048  0  3.258903  0  0  -0.27467  0  3.528642  0  0  -0.291724  0  3.542547  0  0  -0.316603  -0.263487  0  3.519634  0
N  N98  1  0.88939568  0.78726203  0.53607931  1  0  -0.347094  0  3.258597  0  0  -0.27484  0  3.528515  0  0  -0.29189  0  3.54241  0  0  -0.316635  -0.263659  0  3.519513  0
N  N99  1  0.38940023  0.71273925  0.03608116  1  0  -0.347064  0  3.258828  0  0  -0.274738  0  3.528586  0  0  -0.291791  0  3.542489  0  0  -0.316632  -0.263557  0  3.519583  0
N  N100  1  0.21356168  0.05811194  0.53556414  1  0  -0.126515  0  3.369468  0  0  -0.069995  0  3.65075  0  0  -0.078002  0  3.665777  0  0  -0.218662  -0.065161  0  3.641278  0
N  N101  1  0.71356432  0.44188654  0.03556380  1  0  -0.126491  0  3.369401  0  0  -0.070045  0  3.65066  0  0  -0.078046  0  3.665683  0  0  -0.21864  -0.065218  0  3.641207  0
N  N102  1  0.78643683  0.94188995  0.46443578  1  0  -0.126582  0  3.369665  0  0  -0.070045  0  3.650902  0  0  -0.078053  0  3.66593  0  0  -0.218676  -0.065214  0  3.641434  0
N  N103  1  0.28643571  0.55811333  0.96443801  1  0  -0.12644  0  3.369353  0  0  -0.069997  0  3.650645  0  0  -0.077989  0  3.665656  0  0  -0.218633  -0.065164  0  3.641183  0
N  N104  1  0.26101216  0.98622612  0.58383074  1  0  -0.289639  0  3.322535  0  0  -0.238802  0  3.56526  0  0  -0.262896  0  3.582041  0  0  -0.265069  -0.222387  0  3.553774  0
N  N105  1  0.76101466  0.51376880  0.08383142  1  0  -0.289608  0  3.322922  0  0  -0.238587  0  3.565553  0  0  -0.262686  0  3.582346  0  0  -0.264979  -0.22217  0  3.554064  0
N  N106  1  0.73898633  0.01377308  0.41616494  1  0  -0.289626  0  3.322712  0  0  -0.23873  0  3.565458  0  0  -0.262817  0  3.58223  0  0  -0.265047  -0.222316  0  3.553977  0
N  N107  1  0.23899742  0.48623040  0.91616621  1  0  -0.289505  0  3.323179  0  0  -0.238661  0  3.565749  0  0  -0.262757  0  3.582562  0  0  -0.265032  -0.222257  0  3.554263  0
N  N108  1  0.33442443  0.78418594  0.83510725  1  0  -0.285955  0  3.310781  0  0  -0.199928  0  3.576772  0  0  -0.217205  0  3.592077  0  0  -0.318616  -0.188353  0  3.566558  0
N  N109  1  0.83441528  0.71581643  0.33510396  1  0  -0.286002  0  3.310696  0  0  -0.199973  0  3.576705  0  0  -0.21725  0  3.592008  0  0  -0.31862  -0.188399  0  3.566489  0
N  N110  1  0.66557557  0.21581326  0.16489033  1  0  -0.28586  0  3.310635  0  0  -0.199834  0  3.576577  0  0  -0.217114  0  3.591884  0  0  -0.318578  -0.188258  0  3.56636  0
N  N111  1  0.16558171  0.28418479  0.66489526  1  0  -0.285923  0  3.310692  0  0  -0.199919  0  3.576695  0  0  -0.217194  0  3.591998  0  0  -0.318633  -0.188343  0  3.566477  0
O  O112  1  0.20694739  0.07615730  0.69180397  1  0  -0.51294  0  2.017773  0  0  -0.456772  0  2.25541  0  0  -0.479842  0  2.247454  0  0  -0.264468  -0.440975  0  2.260471  0
O  O113  1  0.70695096  0.42383315  0.19180416  1  0  -0.512954  0  2.017637  0  0  -0.45686  0  2.255375  0  0  -0.479935  0  2.247425  0  0  -0.264625  -0.441059  0  2.260435  0
O  O114  1  0.79306317  0.92383719  0.30819237  1  0  -0.513059  0  2.017505  0  0  -0.456942  0  2.255274  0  0  -0.480019  0  2.247322  0  0  -0.264639  -0.441138  0  2.260333  0
O  O115  1  0.29305962  0.57617008  0.80819521  1  0  -0.513121  0  2.017109  0  0  -0.457048  0  2.254888  0  0  -0.480132  0  2.246942  0  0  -0.264775  -0.441244  0  2.259932  0
O  O116  1  0.49462622  0.19116018  0.60910194  1  0  -0.748612  0  1.986407  0  0  -0.695684  0  2.257916  0  0  -0.719948  0  2.24131  0  0  -0.36703  -0.677522  0  2.268358  0
O  O117  1  0.99461556  0.30884060  0.10910412  1  0  -0.748662  0  1.986365  0  0  -0.695768  0  2.257884  0  0  -0.720011  0  2.241238  0  0  -0.367148  -0.677609  0  2.268339  0
O  O118  1  0.50537227  0.80884642  0.39089494  1  0  -0.74867  0  1.98631  0  0  -0.695754  0  2.257825  0  0  -0.720014  0  2.241208  0  0  -0.36711  -0.677591  0  2.268262  0
O  O119  1  0.00537694  0.69115658  0.89090031  1  0  -0.748595  0  1.986357  0  0  -0.695659  0  2.257799  0  0  -0.719914  0  2.241177  0  0  -0.367041  -0.677492  0  2.268235  0
O  O120  1  0.83948928  0.14572045  0.60293423  1  0  -0.772489  0  2.003413  0  0  -0.706935  0  2.289464  0  0  -0.730981  0  2.268126  0  0  -0.387654  -0.68922  0  2.303232  0
O  O121  1  0.33949083  0.35428611  0.10293516  1  0  -0.772502  0  2.003392  0  0  -0.706944  0  2.289415  0  0  -0.730987  0  2.268068  0  0  -0.387665  -0.689225  0  2.303179  0
O  O122  1  0.16050922  0.85428481  0.39706447  1  0  -0.772468  0  2.003357  0  0  -0.706893  0  2.289388  0  0  -0.730935  0  2.268041  0  0  -0.38763  -0.689172  0  2.303147  0
O  O123  1  0.66050467  0.64571174  0.89706640  1  0  -0.772397  0  2.00338  0  0  -0.706863  0  2.289405  0  0  -0.73091  0  2.268066  0  0  -0.387637  -0.689147  0  2.303178  0
O  O124  1  0.72559578  0.29589044  0.55436488  1  0  -0.734297  0  1.843258  0  0  -0.695852  0  2.070402  0  0  -0.716787  0  2.054691  0  0  -0.396543  -0.680158  0  2.080345  0
O  O125  1  0.22558193  0.20411232  0.05436263  1  0  -0.734277  0  1.843215  0  0  -0.695837  0  2.070344  0  0  -0.716776  0  2.054633  0  0  -0.396519  -0.680146  0  2.080289  0
O  O126  1  0.27440423  0.70411280  0.44563209  1  0  -0.734339  0  1.843248  0  0  -0.695902  0  2.070408  0  0  -0.716838  0  2.054695  0  0  -0.396511  -0.680212  0  2.080352  0
O  O127  1  0.77439996  0.79588621  0.94563274  1  0  -0.734281  0  1.843284  0  0  -0.695844  0  2.07042  0  0  -0.71678  0  2.054708  0  0  -0.396494  -0.680151  0  2.080362  0
O  O128  1  0.60503159  0.16112202  0.47704930  1  0  -0.75732  0  2.013167  0  0  -0.70122  0  2.264903  0  0  -0.724789  0  2.250586  0  0  -0.378117  -0.683583  0  2.27389  0
O  O129  1  0.10502739  0.33888461  0.97704863  1  0  -0.757144  0  2.013085  0  0  -0.701211  0  2.264831  0  0  -0.724774  0  2.25052  0  0  -0.378147  -0.683576  0  2.273819  0
O  O130  1  0.39496692  0.83887987  0.52295122  1  0  -0.757269  0  2.01311  0  0  -0.701215  0  2.264848  0  0  -0.724782  0  2.250531  0  0  -0.378126  -0.683582  0  2.273835  0
O  O131  1  0.89496208  0.66112132  0.02295502  1  0  -0.757173  0  2.013014  0  0  -0.701174  0  2.26482  0  0  -0.72474  0  2.2505  0  0  -0.378104  -0.683537  0  2.273804  0
