# generated using pymatgen
data_CuH24C25N4O5
_symmetry_space_group_name_H-M   'P 1'
_cell_length_a   7.56496103
_cell_length_b   12.75973780
_cell_length_c   14.53736629
_cell_angle_alpha   78.29075840
_cell_angle_beta   84.40467651
_cell_angle_gamma   76.82444578
_symmetry_Int_Tables_number   1
_chemical_formula_structural   CuH24C25N4O5
_chemical_formula_sum   'Cu2 H48 C50 N8 O10'
_cell_volume   1335.94189138
_cell_formula_units_Z   2
loop_
 _symmetry_equiv_pos_site_id
 _symmetry_equiv_pos_as_xyz
  1  'x, y, z'
loop_
 _atom_site_type_symbol
 _atom_site_label
 _atom_site_symmetry_multiplicity
 _atom_site_fract_x
 _atom_site_fract_y
 _atom_site_fract_z
 _atom_site_occupancy
 _atom_site_pbe_bader_charge
 _atom_site_pbe_bader_spin_density
 _atom_site_pbe_cm5_charge
 _atom_site_pbe_ddec_charge
 _atom_site_pbe_ddec_spin_density
 _atom_site_pbe_ddec_sum_bond_order
 _atom_site_pbe_magmom
Cu  Cu0  1  0.49999169  0.49999827  0.00000243  1  1.049258  0.554464  0.748196  0.796662  0.74555  2.174786  0.555
Cu  Cu1  1  0.99999094  0.99999622  0.50000093  1  1.054678  -0.564406  0.735298  0.783153  -0.753115  2.163697  -0.565
H  H2  1  0.73066105  0.19329571  0.78504273  1  0.104698  6e-06  0.104839  0.116541  -1e-06  1.008282  0.0
H  H3  1  0.26932488  0.80670747  0.21495888  1  0.104681  6e-06  0.104857  0.116516  -0.0  1.00827  0.0
H  H4  1  0.83209759  0.34583257  0.49871273  1  0.111962  -0.000645  0.10409  0.11446  -0.000553  1.048241  0.0
H  H5  1  0.16791627  0.65416691  0.50129051  1  0.111917  -0.000645  0.104146  0.114516  -0.000553  1.048318  0.0
H  H6  1  0.61150150  0.54524721  0.70762955  1  0.097218  0.000412  0.102607  0.119801  0.000345  1.036907  0.0
H  H7  1  0.38850936  0.45475420  0.29236664  1  0.09727  0.000411  0.102578  0.119805  0.000345  1.036587  0.0
H  H8  1  0.67484404  0.50942761  0.40608196  1  0.055348  1.9e-05  0.096423  0.066034  1.4e-05  0.991074  0.0
H  H9  1  0.32516024  0.49056828  0.59390762  1  0.055448  1.9e-05  0.096394  0.066026  1.4e-05  0.991208  0.0
H  H10  1  0.90273462  0.50822122  0.43116135  1  0.03985  -4e-06  0.094758  0.057145  1.2e-05  1.002707  0.0
H  H11  1  0.09727692  0.49176747  0.56884413  1  0.039092  -4e-06  0.094804  0.057173  1.2e-05  1.002748  0.0
H  H12  1  0.82279803  0.70966275  0.41993896  1  0.024206  1e-05  0.087418  0.079459  -1.7e-05  1.016623  0.0
H  H13  1  0.17722901  0.29032374  0.58006629  1  0.024394  1e-05  0.087431  0.079536  -1.7e-05  1.016566  0.0
H  H14  1  0.59647715  0.71316592  0.39395471  1  0.033945  6e-06  0.089366  0.087751  1e-05  0.990397  0.0
H  H15  1  0.40354845  0.28683364  0.60605087  1  0.033972  6e-06  0.089335  0.087685  1e-05  0.990358  0.0
H  H16  1  0.94268950  0.63961524  0.27221731  1  0.029326  3e-06  0.076756  0.099341  -2e-06  1.053686  0.0
H  H17  1  0.05732984  0.36038788  0.72778042  1  0.029475  3e-06  0.076748  0.099372  -2e-06  1.053683  0.0
H  H18  1  0.78368726  0.76594576  0.24704411  1  0.00971  -4e-06  0.087621  0.121527  -3e-06  0.991478  0.0
H  H19  1  0.21632248  0.23405677  0.75296230  1  0.009748  -4e-06  0.087625  0.121589  -3e-06  0.991381  0.0
H  H20  1  0.71728929  0.64199950  0.24450702  1  0.031555  3e-06  0.079806  0.108507  -3e-06  1.039358  0.0
H  H21  1  0.28272075  0.35800337  0.75549243  1  0.031414  3e-06  0.079819  0.108521  -3e-06  1.039606  0.0
H  H22  1  0.14610983  0.77227554  0.97033704  1  0.077283  -0.000222  0.106957  0.163599  -9.8e-05  0.966577  0.0
H  H23  1  0.85388734  0.22772294  0.02966414  1  0.077221  -0.000222  0.106959  0.163629  -9.8e-05  0.966537  0.0
H  H24  1  0.14531832  0.80236476  0.84519144  1  0.05573  -0.000153  0.100829  0.149018  -5.8e-05  0.995865  0.0
H  H25  1  0.85468334  0.19763652  0.15480439  1  0.055721  -0.000153  0.100846  0.14906  -5.8e-05  0.995873  0.0
H  H26  1  0.34959742  0.73475645  0.90437142  1  0.093933  -0.000323  0.103603  0.154274  -0.000221  1.008248  0.0
H  H27  1  0.65040800  0.26523806  0.09563003  1  0.093897  -0.000323  0.103633  0.15433  -0.000221  1.008349  0.0
H  H28  1  0.24229976  0.36921199  0.94526637  1  0.135375  0.000981  0.121778  0.122877  0.000437  1.012671  0.001
H  H29  1  0.75767594  0.63077906  0.05474552  1  0.13583  0.000981  0.121779  0.122844  0.000437  1.012683  0.001
H  H30  1  0.92222284  0.47349953  0.85286471  1  0.197556  0.000971  0.125072  0.135533  0.000627  1.032135  0.001
H  H31  1  0.07775200  0.52650403  0.14714206  1  0.198037  0.00097  0.125061  0.135631  0.000627  1.031864  0.001
H  H32  1  0.80805394  0.80158998  0.91341866  1  0.071958  3.2e-05  0.118089  0.126351  2.5e-05  0.977644  0.0
H  H33  1  0.19192864  0.19839161  0.08658809  1  0.072323  3.2e-05  0.118072  0.126267  2.5e-05  0.977627  0.0
H  H34  1  0.56805100  0.93177422  0.81697888  1  0.113003  -0.0  0.12141  0.131122  0.0  0.964327  0.0
H  H35  1  0.43193588  0.06821206  0.18303397  1  0.113062  -0.0  0.121389  0.131163  0.0  0.964093  0.0
H  H36  1  0.68531112  0.73137973  0.60346052  1  0.106346  6e-06  0.113103  0.120368  -4e-06  1.016365  0.0
H  H37  1  0.31470326  0.26864678  0.39652591  1  0.106147  6e-06  0.113158  0.120459  -4e-06  1.016229  0.0
H  H38  1  0.92934629  0.60447368  0.69773560  1  0.099619  2.3e-05  0.1125  0.118283  9e-06  0.999508  0.0
H  H39  1  0.07067432  0.39554171  0.30224595  1  0.099405  2.3e-05  0.112506  0.118381  9e-06  0.999688  0.0
H  H40  1  0.14520133  0.77627674  0.63663076  1  0.112449  0.000151  0.102351  0.158485  9.3e-05  1.009865  0.0
H  H41  1  0.85480675  0.22372445  0.36336900  1  0.113087  0.000151  0.102351  0.158471  9.3e-05  1.009751  0.0
H  H42  1  0.33910829  0.72876058  0.70733244  1  0.089063  0.000154  0.097124  0.143138  6.9e-05  1.005964  0.0
H  H43  1  0.66088728  0.27124536  0.29266640  1  0.089059  0.000154  0.097129  0.143117  6.9e-05  1.005874  0.0
H  H44  1  0.36065435  0.72215566  0.58588425  1  0.070865  0.000262  0.099573  0.149277  0.000122  1.001356  0.0
H  H45  1  0.63934954  0.27785180  0.41411961  1  0.070886  0.000262  0.099585  0.149222  0.000122  1.00123  0.0
H  H46  1  0.25061846  0.14294578  0.53650623  1  0.118586  -0.000584  0.114352  0.105482  -0.000223  1.054884  -0.001
H  H47  1  0.74938646  0.85704965  0.46347651  1  0.119291  -0.000583  0.114296  0.105394  -0.000223  1.054956  -0.001
H  H48  1  0.56178115  0.06066448  0.64213530  1  0.196801  -0.000741  0.122435  0.137201  -0.000368  1.050667  -0.001
H  H49  1  0.43820875  0.93934661  0.35785684  1  0.196705  -0.00074  0.122439  0.137162  -0.000368  1.050687  -0.001
C  C50  1  0.61087232  0.38188050  0.85719206  1  1.55893  -0.001411  0.191377  0.555201  0.000136  4.224429  -0.003
C  C51  1  0.38911310  0.61811790  0.14280678  1  1.558811  -0.001412  0.191518  0.555501  0.000135  4.224534  -0.003
C  C52  1  0.66810198  0.37067083  0.75687808  1  -0.036437  0.008762  -0.01841  -0.007562  0.006291  3.992414  0.007
C  C53  1  0.33189115  0.62933739  0.24312329  1  -0.03655  0.008763  -0.018512  -0.007736  0.006292  3.99285  0.007
C  C54  1  0.72846480  0.26732531  0.73217776  1  0.039886  0.000683  -0.086307  -0.13207  0.000459  3.936659  0.0
C  C55  1  0.27154064  0.73267583  0.26782210  1  0.039968  0.000682  -0.086266  -0.131933  0.000459  3.93699  0.0
C  C56  1  0.78796649  0.25978950  0.63926984  1  -0.053321  -0.008591  -0.017281  -0.002297  -0.006136  3.980551  -0.007
C  C57  1  0.21204783  0.74021593  0.36072912  1  -0.053266  -0.008587  -0.017243  -0.002345  -0.006134  3.980505  -0.007
C  C58  1  0.85477977  0.14872363  0.61269641  1  1.55711  0.00179  0.193659  0.552239  0.000254  4.221089  0.004
C  C59  1  0.14522702  0.85127308  0.38731089  1  1.557771  0.00179  0.193605  0.552247  0.000254  4.221242  0.004
C  C60  1  0.78351599  0.35484332  0.57016954  1  -0.046795  -0.000219  -0.103866  -0.238761  -0.000324  3.970489  0.0
C  C61  1  0.21649009  0.64516278  0.42982962  1  -0.046606  -0.00022  -0.103923  -0.238828  -0.000325  3.970368  0.0
C  C62  1  0.71668504  0.45765117  0.59462640  1  0.389016  9e-06  0.075136  0.244679  0.0  4.101354  0.0
C  C63  1  0.28331474  0.54234732  0.40537539  1  0.389007  9e-06  0.075094  0.24457  0.0  4.101091  0.0
C  C64  1  0.66071750  0.46526388  0.68818074  1  -0.036351  0.001243  -0.101481  -0.226228  0.001  3.966037  0.001
C  C65  1  0.33929682  0.53474485  0.31181777  1  -0.036446  0.001242  -0.101416  -0.22607  0.000999  3.965777  0.001
C  C66  1  0.75960291  0.55282210  0.43582236  1  0.381684  2e-06  -0.070325  0.031958  2.7e-05  3.891346  0.0
C  C67  1  0.24039971  0.44717999  0.56417402  1  0.382365  2e-06  -0.07038  0.031934  2.7e-05  3.891619  0.0
C  C68  1  0.73925014  0.67060053  0.38537546  1  -0.011293  3.5e-05  -0.172262  -0.132957  2.3e-05  3.97996  0.0
C  C69  1  0.26076979  0.32940417  0.61462341  1  -0.011204  3.5e-05  -0.172215  -0.132891  2.3e-05  3.979761  0.0
C  C70  1  0.79888676  0.67965697  0.28143638  1  -0.038497  4e-06  -0.24948  -0.349855  5e-06  3.951187  0.0
C  C71  1  0.20112748  0.32034506  0.71856512  1  -0.038757  4e-06  -0.249509  -0.350031  5e-06  3.951401  0.0
C  C72  1  0.20229889  0.74174707  0.90573502  1  -0.053764  0.000411  -0.230638  -0.47573  0.000113  3.96535  0.0
C  C73  1  0.79769779  0.25824333  0.09426384  1  -0.053758  0.000412  -0.230702  -0.475864  0.000113  3.965315  0.0
C  C74  1  0.16266912  0.63311256  0.90549520  1  0.961351  -0.000877  0.221819  0.341736  0.000177  3.925959  0.0
C  C75  1  0.83731811  0.36688522  0.09450022  1  0.961248  -0.000879  0.221785  0.341688  0.000176  3.925833  0.0
C  C76  1  0.18178493  0.45524141  0.92376842  1  0.456407  0.000342  -0.004606  -0.032245  0.000712  4.017197  0.0
C  C77  1  0.81819649  0.54475235  0.07624015  1  0.45633  0.000341  -0.00447  -0.031995  0.000713  4.017347  0.0
C  C78  1  0.02935283  0.50438409  0.87566290  1  0.190396  0.00342  0.000306  -0.091084  0.002308  3.916045  0.002
C  C79  1  0.97062298  0.49561819  0.12433712  1  0.189916  0.00342  0.000199  -0.091432  0.002307  3.916502  0.002
C  C80  1  0.88309178  0.69522216  0.81102531  1  0.335409  0.000845  0.09935  0.169011  0.000686  4.013642  0.001
C  C81  1  0.11689888  0.30478290  0.18897314  1  0.335593  0.000845  0.099449  0.169201  0.000686  4.013481  0.001
C  C82  1  0.78325947  0.78746580  0.84485077  1  0.040066  1.1e-05  -0.074116  -0.13826  -6e-06  3.956117  0.0
C  C83  1  0.21673004  0.21253161  0.15515289  1  0.039746  1.1e-05  -0.074078  -0.138142  -6e-06  3.95596  0.0
C  C84  1  0.64734747  0.85970946  0.79147404  1  -0.01947  -0.000364  -0.068726  -0.117097  -0.000271  3.942689  0.0
C  C85  1  0.35264122  0.14028942  0.20853289  1  -0.01973  -0.000364  -0.068739  -0.117261  -0.000271  3.942702  0.0
C  C86  1  0.61044988  0.83850711  0.70548571  1  0.300216  -0.000784  0.100375  0.172552  -0.000642  4.007409  -0.001
C  C87  1  0.38954829  0.16150544  0.29451284  1  0.301179  -0.000784  0.100433  0.172587  -0.000641  4.007483  -0.001
C  C88  1  0.71201861  0.74718033  0.67108432  1  -0.01508  9.1e-05  -0.077884  -0.141809  7.5e-05  3.968266  0.0
C  C89  1  0.28799513  0.25283672  0.32891101  1  -0.015609  9.1e-05  -0.077938  -0.141872  7.5e-05  3.967928  0.0
C  C90  1  0.84873492  0.67585250  0.72385787  1  -0.011428  0.000369  -0.078902  -0.138267  0.000286  3.974351  0.0
C  C91  1  0.15127480  0.32416561  0.27613125  1  -0.010954  0.000369  -0.07903  -0.13858  0.000286  3.974623  0.0
C  C92  1  0.29119463  0.77154391  0.63789496  1  -0.113743  -0.000301  -0.233278  -0.469506  -5.9e-05  3.943867  0.0
C  C93  1  0.70880542  0.22845370  0.36210831  1  -0.11394  -0.000302  -0.2333  -0.469445  -5.9e-05  3.943538  0.0
C  C94  1  0.32773320  0.88374729  0.61670065  1  0.964185  0.000585  0.221928  0.350749  -0.000385  3.903227  0.0
C  C95  1  0.67225872  0.11625323  0.38330733  1  0.963722  0.000584  0.22192  0.350652  -0.000386  3.903524  0.0
C  C96  1  0.30836680  0.06083083  0.57139927  1  0.453429  -0.000241  -0.009592  -0.031759  -0.000562  4.031013  0.0
C  C97  1  0.69163579  0.93917242  0.42859005  1  0.453323  -0.000238  -0.00971  -0.03198  -0.000561  4.03102  0.0
C  C98  1  0.45797100  0.02320823  0.62386834  1  0.2278  -0.003051  -0.000808  -0.094467  -0.002082  3.904394  -0.002
C  C99  1  0.54202384  0.97680377  0.37612350  1  0.227652  -0.00305  -0.000822  -0.094386  -0.002082  3.904374  -0.002
N  N100  1  0.26292597  0.53550056  0.94140291  1  -1.189744  0.078672  -0.374807  -0.342535  0.054609  3.597273  0.068
N  N101  1  0.73705892  0.46449512  0.05860114  1  -1.189943  0.078681  -0.374852  -0.342595  0.054614  3.597333  0.068
N  N102  1  0.01744738  0.61641897  0.86455804  1  -1.23803  0.002963  -0.227255  -0.056146  0.001913  3.757474  0.002
N  N103  1  0.98253951  0.38358622  0.13543639  1  -1.238101  0.002964  -0.227198  -0.055975  0.001914  3.757042  0.002
N  N104  1  0.46985167  0.91131614  0.65161459  1  -1.289802  -0.002779  -0.226285  -0.056785  -0.001741  3.762198  -0.002
N  N105  1  0.53014302  0.08869569  0.34838072  1  -1.289921  -0.002778  -0.226211  -0.056622  -0.001741  3.76246  -0.002
N  N106  1  0.22822280  0.97459095  0.56770815  1  -1.170405  -0.079221  -0.369186  -0.347077  -0.05491  3.570651  -0.069
N  N107  1  0.77178183  0.02540955  0.43228768  1  -1.170915  -0.079216  -0.369083  -0.346787  -0.054905  3.570812  -0.069
O  O108  1  0.61574880  0.47706993  0.87544041  1  -1.107991  0.119356  -0.339003  -0.561117  0.079145  2.331878  0.108
O  O109  1  0.38425113  0.52292424  0.12456609  1  -1.108043  0.119345  -0.339107  -0.561286  0.079137  2.332162  0.108
O  O110  1  0.56398025  0.30504835  0.91503838  1  -1.175435  0.00101  -0.336191  -0.568843  0.000406  2.10233  0.001
O  O111  1  0.43599652  0.69494934  0.08495534  1  -1.175231  0.001011  -0.336282  -0.569077  0.000406  2.10241  0.001
O  O112  1  0.83108958  0.06399451  0.66861727  1  -1.177059  -0.001028  -0.335793  -0.57158  -0.00042  2.136734  -0.002
O  O113  1  0.16891885  0.93600349  0.33139737  1  -1.177662  -0.001028  -0.335692  -0.571506  -0.00042  2.136918  -0.002
O  O114  1  0.93274426  0.14997138  0.52875683  1  -1.120246  -0.117156  -0.332632  -0.545927  -0.07752  2.352899  -0.106
O  O115  1  0.06724654  0.85002273  0.47124793  1  -1.120423  -0.117159  -0.332711  -0.545956  -0.07752  2.353041  -0.106
O  O116  1  0.70238929  0.55537712  0.53292314  1  -1.079456  2.7e-05  -0.18941  -0.223639  2e-06  2.562693  0.0
O  O117  1  0.29760236  0.44462219  0.46707606  1  -1.079516  2.7e-05  -0.189329  -0.22356  2e-06  2.56269  0.0
