# generated using pymatgen
data_ZnH20C24NO4
_symmetry_space_group_name_H-M   'P 1'
_cell_length_a   11.03612054
_cell_length_b   13.86018088
_cell_length_c   15.30153873
_cell_angle_alpha   90.02155057
_cell_angle_beta   91.18892187
_cell_angle_gamma   90.00564719
_symmetry_Int_Tables_number   1
_chemical_formula_structural   ZnH20C24NO4
_chemical_formula_sum   'Zn2 H40 C48 N2 O8'
_cell_volume   2340.05949003
_cell_formula_units_Z   2
loop_
 _symmetry_equiv_pos_site_id
 _symmetry_equiv_pos_as_xyz
  1  'x, y, z'
loop_
 _atom_site_type_symbol
 _atom_site_label
 _atom_site_symmetry_multiplicity
 _atom_site_fract_x
 _atom_site_fract_y
 _atom_site_fract_z
 _atom_site_occupancy
 _atom_site_pbe_bader_charge
 _atom_site_pbe_bader_spin_density
 _atom_site_pbe_cm5_charge
 _atom_site_pbe_ddec_charge
 _atom_site_pbe_ddec_spin_density
 _atom_site_pbe_ddec_sum_bond_order
 _atom_site_pbe_magmom
Zn  Zn0  1  0.49998825  0.39959512  0.49991440  1  1.27271  0  0.666038  0.801546  0  2.454473  0
Zn  Zn1  1  0.50004272  0.59397356  0.50001634  1  1.281007  0  0.667771  0.79917  0  2.432269  0
H  H2  1  0.20589761  0.32107782  0.43993183  1  0.090223  0  0.098807  0.111733  0  1.034168  0
H  H3  1  0.78334207  0.68111004  0.53616034  1  0.145391  0  0.096345  0.113472  0  1.080995  0
H  H4  1  0.79421877  0.32103443  0.56013940  1  0.090782  0  0.098871  0.111871  0  1.034067  0
H  H5  1  0.21658053  0.68124318  0.46392809  1  0.146649  0  0.096251  0.113231  0  1.081146  0
H  H6  1  0.43547397  0.35773538  0.05895938  1  0.042205  0  0.09899  0.096718  0  1.008684  0
H  H7  1  0.42757529  0.64853395  0.93969673  1  0.059135  0  0.098611  0.097351  0  1.007637  0
H  H8  1  0.56514699  0.35772941  0.94078820  1  0.045268  0  0.09904  0.096898  0  1.008655  0
H  H9  1  0.57382493  0.64836278  0.06046491  1  0.057919  0  0.098298  0.096756  0  1.007922  0
H  H10  1  0.44631762  0.35573180  0.22185501  1  0.085747  0  0.100617  0.103135  0  1.007193  0
H  H11  1  0.41731206  0.64523815  0.77659935  1  0.084835  0  0.100729  0.102791  0  1.005227  0
H  H12  1  0.55383770  0.35576116  0.77791454  1  0.085094  0  0.100616  0.102855  0  1.007297  0
H  H13  1  0.58357825  0.64505834  0.22353970  1  0.082224  0  0.100979  0.103086  0  1.006151  0
H  H14  1  0.45009584  0.92803681  0.36250044  1  0.079511  0  0.117424  0.12246  0  0.982151  0
H  H15  1  0.41438626  0.06567793  0.62591120  1  0.12868  0  0.117169  0.124104  0  0.987407  0
H  H16  1  0.54982426  0.92827606  0.63756048  1  0.078603  0  0.117772  0.123159  0  0.981668  0
H  H17  1  0.58549714  0.06545465  0.37406459  1  0.126441  0  0.117083  0.123979  0  0.987538  0
H  H18  1  0.45459528  0.74695117  0.36845034  1  0.135108  0  0.133742  0.109978  0  0.968143  0
H  H19  1  0.41875014  0.24668686  0.62022324  1  0.133774  0  0.134877  0.112667  0  0.962376  0
H  H20  1  0.54539045  0.74715936  0.63167263  1  0.13521  0  0.133664  0.109992  0  0.96821  0
H  H21  1  0.58106863  0.24649219  0.37957153  1  0.131281  0  0.134848  0.112822  0  0.962504  0
H  H22  1  0.12482467  0.91246827  0.60998125  1  0.000138  0  0.084514  0.112228  0  1.01417  0
H  H23  1  0.25594066  0.84437175  0.58615788  1  0.029232  0  0.08217  0.113068  0  1.016752  0
H  H24  1  0.24159274  0.96545741  0.54784762  1  0.006431  0  0.074454  0.093577  0  1.053697  0
H  H25  1  0.20150273  0.84780309  0.42625531  1  0.002198  0  0.085704  0.076805  0  0.999539  0
H  H26  1  0.07137566  0.91681829  0.44744128  1  0.028471  0  0.088797  0.080649  0  1.017077  0
H  H27  1  0.03602674  0.09868034  0.63840551  1  -0.014568  0  0.082621  0.107858  0  1.019072  0
H  H28  1  0.92359703  0.16767115  0.69088847  1  0.039078  0  0.087464  0.118424  0  0.997616  0
H  H29  1  0.89522098  0.04441761  0.66429567  1  0.024709  0  0.080515  0.104225  0  1.017351  0
H  H30  1  0.78651120  0.15433808  0.55800962  1  0.031939  0  0.085331  0.078174  0  0.993913  0
H  H31  1  0.89642863  0.08440902  0.50488764  1  0.003174  0  0.086986  0.077695  0  1.023657  0
H  H32  1  0.87510434  0.91244026  0.39017638  1  0.002956  0  0.084591  0.112266  0  1.014167  0
H  H33  1  0.74388982  0.84438267  0.41384916  1  0.036824  0  0.082209  0.113147  0  1.016521  0
H  H34  1  0.75828526  0.96544108  0.45230861  1  0.005653  0  0.074561  0.093443  0  1.054067  0
H  H35  1  0.79822981  0.84770233  0.57378679  1  0.002114  0  0.085779  0.076977  0  0.999671  0
H  H36  1  0.92837394  0.91673660  0.55275045  1  0.031047  0  0.088473  0.08021  0  1.017489  0
H  H37  1  0.96403609  0.09867797  0.36166126  1  -0.014315  0  0.082763  0.108085  0  1.019085  0
H  H38  1  0.07646150  0.16762907  0.30916633  1  0.039727  0  0.08765  0.118643  0  0.997518  0
H  H39  1  0.10479375  0.04436417  0.33569419  1  0.024049  0  0.080643  0.104482  0  1.017275  0
H  H40  1  0.21359550  0.15433767  0.44201947  1  0.034742  0  0.085401  0.078139  0  0.994385  0
H  H41  1  0.10368014  0.08445398  0.49513087  1  0.003062  0  0.087041  0.077482  0  1.023963  0
C  C42  1  0.51714941  0.49832686  0.33041762  1  1.571438  0  0.213099  0.594311  0  4.161202  0
C  C43  1  0.48300714  0.49837815  0.66953878  1  1.569969  0  0.213076  0.594607  0  4.162005  0
C  C44  1  0.50370180  0.50326414  0.04816018  1  -0.008559  0  -0.004994  0.074737  0  4.003237  0
C  C45  1  0.49726671  0.50330441  0.95176542  1  -0.098576  0  -0.004962  0.074804  0  4.003729  0
C  C46  1  0.47333634  0.89123879  0.42349001  1  -0.000616  0  -0.070379  -0.167942  0  3.93667  0
C  C47  1  0.45372535  0.10241883  0.57034677  1  -0.018213  0  -0.075341  -0.177843  0  3.949869  0
C  C48  1  0.52658846  0.89137446  0.57658069  1  0.010509  0  -0.070892  -0.169003  0  3.937043  0
C  C49  1  0.54618560  0.10230659  0.42959332  1  -0.018059  0  -0.075254  -0.177581  0  3.950056  0
C  C50  1  0.47425240  0.79105526  0.42610203  1  0.537593  0  0.06865  0.109302  0  3.907598  0
C  C51  1  0.45466528  0.20264861  0.56768333  1  0.447044  0  0.067891  0.112242  0  3.906269  0
C  C52  1  0.52573474  0.79118327  0.57400777  1  0.540805  0  0.068815  0.10924  0  3.908074  0
C  C53  1  0.54521703  0.20253810  0.43216630  1  0.449705  0  0.067342  0.111479  0  3.907146  0
C  C54  1  0.49996836  0.94353754  0.50002006  1  -0.168923  0  0.021356  0.108484  0  3.981534  0
C  C55  1  0.49997408  0.05002609  0.49999237  1  0.006701  0  0.017431  0.099727  0  3.99671  0
C  C56  1  0.26510757  0.49783203  0.48301473  1  1.517686  0  0.217226  0.598865  0  4.12017  0
C  C57  1  0.73490394  0.49768756  0.51694234  1  1.514624  0  0.217149  0.599359  0  4.119794  0
C  C58  1  0.11607411  0.32159220  0.46761438  1  0.010924  0  -0.100481  -0.191509  0  3.974228  0
C  C59  1  0.87821172  0.68133692  0.51900877  1  -0.080436  0  -0.106389  -0.201728  0  3.961541  0
C  C60  1  0.88403740  0.32156260  0.53242954  1  0.014044  0  -0.100354  -0.1913  0  3.973216  0
C  C61  1  0.12168841  0.68140589  0.48102727  1  -0.082182  0  -0.106121  -0.201132  0  3.96099  0
C  C62  1  0.05816605  0.23502088  0.47975457  1  -0.08215  0  -0.018107  0.062399  0  3.955226  0
C  C63  1  0.93759350  0.76813006  0.51150234  1  -0.004808  0  -0.017338  0.066248  0  3.963694  0
C  C64  1  0.94197377  0.23499477  0.52032691  1  -0.02805  0  -0.017885  0.062777  0  3.954848  0
C  C65  1  0.06222989  0.76816027  0.48853048  1  -0.064304  0  -0.017362  0.066235  0  3.962955  0
C  C66  1  0.93687573  0.41264544  0.51131848  1  -0.103752  0  -0.001855  0.067831  0  3.974267  0
C  C67  1  0.06456210  0.58985456  0.49164903  1  -0.06231  0  -0.00236  0.066406  0  3.961358  0
C  C68  1  0.06319653  0.41266788  0.48871611  1  -0.055575  0  -0.001273  0.068754  0  3.974257  0
C  C69  1  0.93541962  0.58982210  0.50838278  1  -0.008084  0  -0.002431  0.066445  0  3.961219  0
C  C70  1  0.87169137  0.50085409  0.51548237  1  0.08961  0  -0.00542  -0.114857  0  3.831909  0
C  C71  1  0.12832249  0.50091075  0.48455355  1  0.089771  0  -0.005595  -0.11511  0  3.831809  0
C  C72  1  0.46947376  0.42053089  0.09480138  1  0.02029  0  -0.093975  -0.138518  0  4.000169  0
C  C73  1  0.45678438  0.58449563  0.90438398  1  0.016589  0  -0.094247  -0.140245  0  3.995957  0
C  C74  1  0.53117717  0.42054700  0.90502782  1  -0.003456  0  -0.09473  -0.139719  0  4.001278  0
C  C75  1  0.54437881  0.58434790  0.09567250  1  0.023324  0  -0.09399  -0.139493  0  3.996072  0
C  C76  1  0.47494991  0.41908770  0.18556869  1  -0.108104  0  -0.087166  -0.087323  0  3.996553  0
C  C77  1  0.45036818  0.58289981  0.81341237  1  -0.077507  0  -0.08646  -0.088924  0  3.994074  0
C  C78  1  0.52550808  0.41916266  0.81427491  1  -0.113367  0  -0.086955  -0.086014  0  3.9972  0
C  C79  1  0.55045142  0.58276265  0.18664427  1  -0.119883  0  -0.086986  -0.089928  0  3.9966  0
C  C80  1  0.51525420  0.50021750  0.23255537  1  0.045872  0  -0.019642  -0.033478  0  3.962004  0
C  C81  1  0.48526942  0.50030277  0.76739332  1  0.005483  0  -0.020133  -0.034947  0  3.964405  0
C  C82  1  0.13141185  0.86076135  0.47500085  1  -0.00243  0  -0.163672  -0.140609  0  3.986134  0
C  C83  1  0.19199924  0.89810045  0.55957770  1  -0.036056  0  -0.248714  -0.356904  0  3.972806  0
C  C84  1  0.88484127  0.14304823  0.55244755  1  -0.011985  0  -0.163301  -0.140739  0  3.988796  0
C  C85  1  0.93781819  0.11138015  0.64158542  1  -0.043487  0  -0.243712  -0.351988  0  3.969765  0
C  C86  1  0.86835716  0.86068675  0.52509427  1  -0.006478  0  -0.163462  -0.140376  0  3.986872  0
C  C87  1  0.80784607  0.89807468  0.44052804  1  -0.045968  0  -0.248925  -0.357058  0  3.972614  0
C  C88  1  0.11527513  0.14306071  0.44757649  1  -0.014358  0  -0.163215  -0.140239  0  3.988237  0
C  C89  1  0.06223707  0.11135082  0.35843592  1  -0.044038  0  -0.244305  -0.352834  0  3.969317  0
N  N90  1  0.50004607  0.74218448  0.50006041  1  -1.237533  0  -0.315038  -0.192946  0  3.510061  0
N  N91  1  0.49994648  0.25157035  0.49990798  1  -1.229749  0  -0.315041  -0.19246  0  3.516041  0
O  O92  1  0.48519732  0.41956404  0.36653066  1  -1.169619  0  -0.319974  -0.553672  0  2.327403  0
O  O93  1  0.45148067  0.57541915  0.62939283  1  -1.172983  0  -0.320706  -0.552993  0  2.303262  0
O  O94  1  0.51463431  0.41954127  0.63335937  1  -1.169373  0  -0.319828  -0.553643  0  2.327417  0
O  O95  1  0.54861666  0.57536324  0.37064803  1  -1.173026  0  -0.32085  -0.553201  0  2.303638  0
O  O96  1  0.31663584  0.42258163  0.51430962  1  -1.157554  0  -0.312853  -0.539953  0  2.355567  0
O  O97  1  0.67520139  0.56994644  0.54507754  1  -1.171  0  -0.316146  -0.541337  0  2.361331  0
O  O98  1  0.68340949  0.42243341  0.48554968  1  -1.153644  0  -0.313052  -0.540568  0  2.354237  0
O  O99  1  0.32477095  0.57012251  0.45494095  1  -1.170246  0  -0.316368  -0.541493  0  2.360346  0
