# generated using pymatgen
data_KH25C14N2O7
_symmetry_space_group_name_H-M   'P 1'
_cell_length_a   8.01869603
_cell_length_b   8.15614478
_cell_length_c   13.97666664
_cell_angle_alpha   89.99976423
_cell_angle_beta   90.00004170
_cell_angle_gamma   98.16395295
_symmetry_Int_Tables_number   1
_chemical_formula_structural   KH25C14N2O7
_chemical_formula_sum   'K2 H50 C28 N4 O14'
_cell_volume   904.83333028
_cell_formula_units_Z   2
loop_
 _symmetry_equiv_pos_site_id
 _symmetry_equiv_pos_as_xyz
  1  'x, y, z'
loop_
 _atom_site_type_symbol
 _atom_site_label
 _atom_site_symmetry_multiplicity
 _atom_site_fract_x
 _atom_site_fract_y
 _atom_site_fract_z
 _atom_site_occupancy
 _atom_site_hle17_bader_spin_density
 _atom_site_hle17_ddec_charge
 _atom_site_hle17_ddec_spin_density
 _atom_site_hle17_ddec_sum_bond_order
 _atom_site_hle17_magmom
 _atom_site_hse06_10hf_bader_spin_density
 _atom_site_hse06_10hf_ddec_charge
 _atom_site_hse06_10hf_ddec_spin_density
 _atom_site_hse06_10hf_ddec_sum_bond_order
 _atom_site_hse06_10hf_magmom
 _atom_site_hse06_bader_spin_density
 _atom_site_hse06_ddec_charge
 _atom_site_hse06_ddec_spin_density
 _atom_site_hse06_ddec_sum_bond_order
 _atom_site_hse06_magmom
 _atom_site_pbe_bader_spin_density
 _atom_site_pbe_cm5_charge
 _atom_site_pbe_ddec_charge
 _atom_site_pbe_ddec_spin_density
 _atom_site_pbe_ddec_sum_bond_order
 _atom_site_pbe_magmom
K  K0  1  0.40070690  0.83792003  0.75061082  1  0  0.892027  0  0.528152  0  0  0.814067  0  0.740384  0  0  0.831726  0  0.717449  0  0  0.837173  0.801124  0  0.756554  0
K  K1  1  0.90071606  0.83791672  0.24938555  1  0  0.892008  0  0.528186  0  0  0.814066  0  0.740388  0  0  0.831723  0  0.717457  0  0  0.837187  0.801125  0  0.756558  0
H  H2  1  0.35237003  0.56621985  0.53118328  1  0  0.051684  0  0.924422  0  0  0.068633  0  0.987318  0  0  0.06902  0  0.986942  0  0  0.101392  0.068236  0  0.98772  0
H  H3  1  0.85237150  0.56622129  0.46881873  1  0  0.051762  0  0.924475  0  0  0.068708  0  0.987349  0  0  0.069099  0  0.986968  0  0  0.101426  0.068313  0  0.987754  0
H  H4  1  0.15961111  0.59407112  0.47325380  1  0  0.05444  0  0.94991  0  0  0.06564  0  1.022795  0  0  0.06607  0  1.022207  0  0  0.09933  0.065206  0  1.023412  0
H  H5  1  0.65961240  0.59407092  0.52674735  1  0  0.054438  0  0.9499  0  0  0.065634  0  1.022784  0  0  0.066063  0  1.022198  0  0  0.099324  0.065203  0  1.023396  0
H  H6  1  0.01521880  0.56433157  0.63602938  1  0  0.05589  0  0.944374  0  0  0.067819  0  1.013771  0  0  0.068096  0  1.014172  0  0  0.10077  0.067482  0  1.013666  0
H  H7  1  0.51522005  0.56433252  0.36397177  1  0  0.055907  0  0.944388  0  0  0.067842  0  1.013773  0  0  0.068119  0  1.014173  0  0  0.100775  0.067509  0  1.013669  0
H  H8  1  0.09688038  0.38266644  0.59579327  1  0  0.033767  0  0.935562  0  0  0.046101  0  1.009096  0  0  0.046516  0  1.007704  0  0  0.090012  0.045665  0  1.010254  0
H  H9  1  0.59688288  0.38266709  0.40420907  1  0  0.033778  0  0.93556  0  0  0.046109  0  1.009095  0  0  0.046522  0  1.007703  0  0  0.090009  0.045676  0  1.010256  0
H  H10  1  0.10395783  0.30639935  0.76729420  1  0  0.056806  0  0.962328  0  0  0.068099  0  1.033197  0  0  0.068484  0  1.032949  0  0  0.096398  0.067677  0  1.0335  0
H  H11  1  0.60396240  0.30639871  0.23270833  1  0  0.056767  0  0.962351  0  0  0.068035  0  1.033284  0  0  0.068417  0  1.033034  0  0  0.096399  0.067615  0  1.033583  0
H  H12  1  0.04312704  0.50284126  0.80375472  1  0  0.054765  0  0.94344  0  0  0.063555  0  1.01752  0  0  0.064917  0  1.016096  0  0  0.097861  0.062483  0  1.018644  0
H  H13  1  0.54312787  0.50284092  0.19624874  1  0  0.054736  0  0.943452  0  0  0.063538  0  1.017539  0  0  0.064899  0  1.016115  0  0  0.097862  0.062467  0  1.018661  0
H  H14  1  0.21425260  0.36042772  0.92373847  1  0  0.035677  0  0.942237  0  0  0.051365  0  1.01073  0  0  0.051048  0  1.010711  0  0  0.093997  0.051444  0  1.010916  0
H  H15  1  0.71425417  0.36043318  0.07626397  1  0  0.035668  0  0.942279  0  0  0.051317  0  1.010783  0  0  0.051001  0  1.010761  0  0  0.093985  0.051395  0  1.010969  0
H  H16  1  0.38653241  0.38958212  0.84149640  1  0  0.065265  0  0.926665  0  0  0.079007  0  0.99107  0  0  0.07983  0  0.990308  0  0  0.107632  0.078253  0  0.99182  0
H  H17  1  0.88653427  0.38958079  0.15850461  1  0  0.065236  0  0.926663  0  0  0.078973  0  0.991059  0  0  0.079795  0  0.990298  0  0  0.10763  0.078219  0  0.991814  0
H  H18  1  0.56280806  0.58137308  0.93906740  1  0  0.053918  0  0.918884  0  0  0.067484  0  0.985994  0  0  0.068185  0  0.985147  0  0  0.102544  0.066848  0  0.986749  0
H  H19  1  0.06280859  0.58137245  0.06093159  1  0  0.053942  0  0.918846  0  0  0.067497  0  0.98598  0  0  0.068201  0  0.985133  0  0  0.102544  0.066862  0  0.986738  0
H  H20  1  0.40796107  0.53836062  0.03158852  1  0  0.040996  0  0.926349  0  0  0.057201  0  0.993322  0  0  0.057409  0  0.992353  0  0  0.096612  0.05689  0  0.994221  0
H  H21  1  0.90795452  0.53836235  0.96841358  1  0  0.040954  0  0.926423  0  0  0.057191  0  0.993368  0  0  0.057399  0  0.9924  0  0  0.096596  0.056886  0  0.994263  0
H  H22  1  0.36324406  0.83890854  0.02679660  1  0  0.062748  0  0.933259  0  0  0.075865  0  0.997549  0  0  0.07665  0  0.997185  0  0  0.103293  0.07513  0  0.998028  0
H  H23  1  0.86324392  0.83891140  0.97320548  1  0  0.062785  0  0.933265  0  0  0.075859  0  0.99758  0  0  0.076648  0  0.997216  0  0  0.103282  0.075122  0  0.998062  0
H  H24  1  0.56442229  0.80045272  0.06875948  1  0  0.068402  0  0.955655  0  0  0.073642  0  1.03232  0  0  0.075165  0  1.031134  0  0  0.105256  0.072481  0  1.033231  0
H  H25  1  0.06441920  0.80045343  0.93124042  1  0  0.068426  0  0.955715  0  0  0.07367  0  1.032354  0  0  0.075192  0  1.03117  0  0  0.105283  0.072509  0  1.033262  0
H  H26  1  0.65679627  0.08811777  0.02591895  1  0  0.055761  0  0.939527  0  0  0.068189  0  1.009198  0  0  0.068867  0  1.00842  0  0  0.101406  0.067589  0  1.009903  0
H  H27  1  0.15680275  0.08811558  0.97407983  1  0  0.055801  0  0.939482  0  0  0.068254  0  1.00913  0  0  0.068935  0  1.008349  0  0  0.10143  0.067661  0  1.00983  0
H  H28  1  0.46183082  0.11214835  0.96908869  1  0  0.04734  0  0.924646  0  0  0.06412  0  0.988719  0  0  0.064766  0  0.98788  0  0  0.099996  0.063466  0  0.989554  0
H  H29  1  0.96183496  0.11214665  0.03090944  1  0  0.047382  0  0.92449  0  0  0.064091  0  0.988636  0  0  0.064734  0  0.987801  0  0  0.099976  0.063442  0  0.989466  0
H  H30  1  0.70458588  0.30296816  0.90206752  1  0  0.039173  0  0.935159  0  0  0.051912  0  1.008816  0  0  0.052684  0  1.00724  0  0  0.094573  0.051202  0  1.010121  0
H  H31  1  0.20458996  0.30296599  0.09793076  1  0  0.039183  0  0.935199  0  0  0.051941  0  1.008853  0  0  0.052713  0  1.007278  0  0  0.094579  0.051228  0  1.010155  0
H  H32  1  0.80261583  0.12897471  0.86599477  1  0  0.047195  0  0.93552  0  0  0.061251  0  1.004087  0  0  0.061302  0  1.003925  0  0  0.098059  0.061058  0  1.004334  0
H  H33  1  0.30261599  0.12897108  0.13400683  1  0  0.047151  0  0.935541  0  0  0.061253  0  1.004079  0  0  0.061301  0  1.003921  0  0  0.098051  0.061061  0  1.004323  0
H  H34  1  0.76670051  0.21322562  0.69274234  1  0  0.034694  0  0.947831  0  0  0.046211  0  1.022065  0  0  0.046986  0  1.020059  0  0  0.090005  0.045462  0  1.023728  0
H  H35  1  0.26669985  0.21322326  0.30725404  1  0  0.034608  0  0.947911  0  0  0.046188  0  1.022087  0  0  0.046957  0  1.020089  0  0  0.090011  0.045447  0  1.023745  0
H  H36  1  0.67800177  0.38690783  0.73937984  1  0  0.067667  0  0.963511  0  0  0.081268  0  1.029008  0  0  0.081586  0  1.029505  0  0  0.10064  0.080976  0  1.02871  0
H  H37  1  0.17800254  0.38690702  0.26061823  1  0  0.067654  0  0.963487  0  0  0.08126  0  1.029003  0  0  0.081576  0  1.029501  0  0  0.100646  0.080975  0  1.028705  0
H  H38  1  0.56885540  0.33476143  0.58170709  1  0  0.041378  0  0.938759  0  0  0.057607  0  1.005301  0  0  0.057407  0  1.005171  0  0  0.095957  0.057591  0  1.005584  0
H  H39  1  0.06885947  0.33476443  0.41829105  1  0  0.041336  0  0.938659  0  0  0.057561  0  1.005259  0  0  0.057356  0  1.005132  0  0  0.095938  0.057551  0  1.00554  0
H  H40  1  0.40199788  0.27930572  0.66529000  1  0  0.06842  0  0.934565  0  0  0.079623  0  1.001534  0  0  0.081093  0  1.000167  0  0  0.108012  0.078454  0  1.002638  0
H  H41  1  0.90200017  0.27930562  0.33470985  1  0  0.068435  0  0.934607  0  0  0.079662  0  1.00158  0  0  0.081133  0  1.000213  0  0  0.108033  0.078498  0  1.002686  0
H  H42  1  0.40261489  0.14538066  0.46754487  1  0  0.03512  0  0.935359  0  0  0.048253  0  1.00849  0  0  0.048645  0  1.006951  0  0  0.092155  0.047811  0  1.009777  0
H  H43  1  0.90261599  0.14537918  0.53245530  1  0  0.035111  0  0.935393  0  0  0.048254  0  1.008525  0  0  0.048648  0  1.006985  0  0  0.092153  0.047809  0  1.009813  0
H  H44  1  0.24783966  0.09650288  0.55913755  1  0  0.055919  0  0.919511  0  0  0.069867  0  0.984818  0  0  0.07064  0  0.983995  0  0  0.102931  0.069078  0  0.985688  0
H  H45  1  0.74784112  0.09650453  0.44086196  1  0  0.055931  0  0.919491  0  0  0.069887  0  0.984804  0  0  0.070661  0  0.983982  0  0  0.102937  0.069096  0  0.985671  0
H  H46  1  0.25367411  0.87893012  0.43007723  1  0  0.057772  0  0.952039  0  0  0.067391  0  1.024753  0  0  0.067728  0  1.024762  0  0  0.102706  0.067039  0  1.024892  0
H  H47  1  0.75367167  0.87892966  0.56992256  1  0  0.057829  0  0.951892  0  0  0.067443  0  1.024611  0  0  0.067782  0  1.024615  0  0  0.102722  0.067086  0  1.02475  0
H  H48  1  0.45646931  0.84491300  0.47279709  1  0  0.063656  0  0.932958  0  0  0.077098  0  0.996725  0  0  0.07799  0  0.996326  0  0  0.104314  0.07633  0  0.997177  0
H  H49  1  0.95646811  0.84491283  0.52720502  1  0  0.063674  0  0.932927  0  0  0.077113  0  0.996694  0  0  0.078005  0  0.996293  0  0  0.104324  0.076341  0  0.997148  0
H  H50  1  0.91559968  0.03357599  0.72072351  1  0  -0.014936  0  0.955185  0  0  -0.002626  0  1.029199  0  0  -0.001038  0  1.023501  0  0  0.096332  -0.004101  0  1.033603  0
H  H51  1  0.41560975  0.03357867  0.27926835  1  0  -0.014849  0  0.955269  0  0  -0.002567  0  1.029285  0  0  -0.000941  0  1.023551  0  0  0.096402  -0.00404  0  1.033688  0
C  C52  1  0.22956833  0.61090569  0.54153832  1  0  0.051743  0  3.677271  0  0  -0.007968  0  3.9513  0  0  -0.001833  0  3.957126  0  0  -0.074957  -0.012089  0  3.947312  0
C  C53  1  0.72957104  0.61090720  0.45846425  1  0  0.05165  0  3.677321  0  0  -0.008056  0  3.951363  0  0  -0.001923  0  3.957187  0  0  -0.074985  -0.01218  0  3.947379  0
C  C54  1  0.13211751  0.51247654  0.62010436  1  0  0.055252  0  3.698252  0  0  -0.004756  0  3.974366  0  0  0.001811  0  3.980381  0  0  -0.075505  -0.009123  0  3.970209  0
C  C55  1  0.63211857  0.51247614  0.37989697  1  0  0.055182  0  3.698234  0  0  -0.004832  0  3.974333  0  0  0.001737  0  3.980347  0  0  -0.075518  -0.009206  0  3.970186  0
C  C56  1  0.14970309  0.43747710  0.78390745  1  0  0.041677  0  3.668085  0  0  -0.01831  0  3.940957  0  0  -0.012307  0  3.946483  0  0  -0.081163  -0.022238  0  3.937067  0
C  C57  1  0.64970536  0.43747784  0.21609549  1  0  0.041818  0  3.668222  0  0  -0.018254  0  3.941239  0  0  -0.012245  0  3.94676  0  0  -0.081144  -0.022179  0  3.937344  0
C  C58  1  0.27311214  0.44055532  0.86550275  1  0  0.068276  0  3.666159  0  0  0.010307  0  3.936887  0  0  0.016872  0  3.94282  0  0  -0.072237  0.00594  0  3.932749  0
C  C59  1  0.77311335  0.44055790  0.13449952  1  0  0.068309  0  3.666336  0  0  0.010441  0  3.936996  0  0  0.017007  0  3.942931  0  0  -0.072216  0.006076  0  3.932852  0
C  C60  1  0.44736708  0.61993837  0.96987010  1  0  0.073087  0  3.673102  0  0  0.011822  0  3.948712  0  0  0.018649  0  3.954521  0  0  -0.071308  0.007256  0  3.944689  0
C  C61  1  0.94736662  0.61993922  0.03013183  1  0  0.073097  0  3.673047  0  0  0.011806  0  3.948668  0  0  0.018629  0  3.954484  0  0  -0.071307  0.007227  0  3.944651  0
C  C62  1  0.48247962  0.79590476  0.00532088  1  0  0.0388  0  3.656855  0  0  -0.017763  0  3.928631  0  0  -0.012126  0  3.93389  0  0  -0.078516  -0.021454  0  3.924918  0
C  C63  1  0.98247767  0.79590377  0.99467849  1  0  0.038748  0  3.656847  0  0  -0.017749  0  3.928587  0  0  -0.012108  0  3.933851  0  0  -0.078496  -0.02143  0  3.924865  0
C  C64  1  0.58579236  0.07006903  0.95794805  1  0  0.051078  0  3.689841  0  0  -0.009533  0  3.96788  0  0  -0.003479  0  3.973629  0  0  -0.074405  -0.013557  0  3.963905  0
C  C65  1  0.08579662  0.07006848  0.04205216  1  0  0.051009  0  3.689827  0  0  -0.009562  0  3.967894  0  0  -0.003499  0  3.973641  0  0  -0.074418  -0.013592  0  3.963919  0
C  C66  1  0.67978608  0.17154263  0.87938845  1  0  0.05964  0  3.698857  0  0  -0.004259  0  3.9801  0  0  0.002352  0  3.986146  0  0  -0.073939  -0.008579  0  3.975864  0
C  C67  1  0.17978643  0.17154034  0.12061228  1  0  0.059599  0  3.698979  0  0  -0.004358  0  3.980258  0  0  0.002255  0  3.986301  0  0  -0.073935  -0.008662  0  3.976009  0
C  C68  1  0.64898924  0.25584947  0.71769814  1  0  0.053582  0  3.670362  0  0  -0.007456  0  3.942229  0  0  -0.00131  0  3.948391  0  0  -0.077219  -0.011462  0  3.937892  0
C  C69  1  0.14898877  0.25584853  0.28230023  1  0  0.053668  0  3.670279  0  0  -0.007436  0  3.942304  0  0  -0.001285  0  3.948458  0  0  -0.077245  -0.011446  0  3.937976  0
C  C70  1  0.52144722  0.24489645  0.63807041  1  0  0.061969  0  3.664505  0  0  0.00435  0  3.935702  0  0  0.010628  0  3.941357  0  0  -0.07304  0.000191  0  3.931718  0
C  C71  1  0.02144820  0.24489617  0.36192721  1  0  0.062035  0  3.664339  0  0  0.004335  0  3.935707  0  0  0.010616  0  3.941356  0  0  -0.073033  0.000165  0  3.931735  0
C  C72  1  0.36554768  0.06208409  0.52893514  1  0  0.066065  0  3.688875  0  0  0.005382  0  3.965519  0  0  0.012201  0  3.9712  0  0  -0.072866  0.000847  0  3.961597  0
C  C73  1  0.86554752  0.06208306  0.47106522  1  0  0.066033  0  3.688942  0  0  0.005313  0  3.965624  0  0  0.012128  0  3.971309  0  0  -0.072906  0.000784  0  3.96169  0
C  C74  1  0.33583288  0.88576121  0.49362101  1  0  0.043645  0  3.663179  0  0  -0.013667  0  3.934455  0  0  -0.00798  0  3.940322  0  0  -0.077086  -0.01741  0  3.930341  0
C  C75  1  0.83583292  0.88576117  0.50637952  1  0  0.043647  0  3.663071  0  0  -0.013636  0  3.934356  0  0  -0.007952  0  3.940231  0  0  -0.077071  -0.017372  0  3.93023  0
C  C76  1  0.00791014  0.95963983  0.75347751  1  0  0.454446  0  3.94148  0  0  0.396963  0  4.240645  0  0  0.424906  0  4.239509  0  0  0.154902  0.378296  0  4.240672  0
C  C77  1  0.50790293  0.95963551  0.24651912  1  0  0.454401  0  3.941262  0  0  0.396935  0  4.240408  0  0  0.424856  0  4.239273  0  0  0.154922  0.378267  0  4.240441  0
C  C78  1  0.80633612  0.73220000  0.73631435  1  0  0.435535  0  4.064716  0  0  0.409082  0  4.35628  0  0  0.432237  0  4.370415  0  0  0.264219  0.393249  0  4.346508  0
C  C79  1  0.30634160  0.73220532  0.26368295  1  0  0.435371  0  4.064658  0  0  0.408919  0  4.356222  0  0  0.432077  0  4.370363  0  0  0.264149  0.39309  0  4.34645  0
N  N80  1  0.95747625  0.79560008  0.76267324  1  0  -0.503253  0  3.198178  0  0  -0.455864  0  3.474655  0  0  -0.481959  0  3.483344  0  0  -0.350943  -0.437802  0  3.467991  0
N  N81  1  0.45747759  0.79560316  0.23732398  1  0  -0.503002  0  3.198396  0  0  -0.455615  0  3.474862  0  0  -0.481714  0  3.483568  0  0  -0.350847  -0.437559  0  3.468202  0
N  N82  1  0.67240192  0.66160614  0.71399292  1  0  -0.62974  0  2.630938  0  0  -0.600754  0  2.873059  0  0  -0.617703  0  2.879707  0  0  -0.464056  -0.589076  0  2.868589  0
N  N83  1  0.17239464  0.66160153  0.28600736  1  0  -0.629695  0  2.630854  0  0  -0.600707  0  2.872951  0  0  -0.61766  0  2.879603  0  0  -0.46403  -0.589028  0  2.868482  0
O  O84  1  0.25575097  0.78189221  0.56792352  1  0  -0.327934  0  2.269422  0  0  -0.258012  0  2.522854  0  0  -0.273522  0  2.524433  0  0  -0.2802  -0.246989  0  2.521402  0
O  O85  1  0.75574955  0.78189147  0.43207650  1  0  -0.327954  0  2.269402  0  0  -0.25805  0  2.522842  0  0  -0.27356  0  2.524421  0  0  -0.280209  -0.247028  0  2.521387  0
O  O86  1  0.23567941  0.51744142  0.70303759  1  0  -0.323812  0  2.289348  0  0  -0.25123  0  2.542519  0  0  -0.267376  0  2.544767  0  0  -0.272853  -0.239796  0  2.540559  0
O  O87  1  0.73568189  0.51744283  0.29696448  1  0  -0.323789  0  2.28939  0  0  -0.251142  0  2.542542  0  0  -0.267289  0  2.544788  0  0  -0.272832  -0.239714  0  2.54059  0
O  O88  1  0.31702476  0.60642386  0.89945058  1  0  -0.337927  0  2.277004  0  0  -0.264867  0  2.529849  0  0  -0.281235  0  2.532274  0  0  -0.278003  -0.253277  0  2.527762  0
O  O89  1  0.81702825  0.60642541  0.10055347  1  0  -0.337958  0  2.277021  0  0  -0.264912  0  2.529845  0  0  -0.28128  0  2.532273  0  0  -0.27803  -0.253318  0  2.527758  0
O  O90  1  0.56271578  0.89992591  0.93083187  1  0  -0.327653  0  2.266594  0  0  -0.257046  0  2.51855  0  0  -0.272899  0  2.520377  0  0  -0.275523  -0.245785  0  2.516874  0
O  O91  1  0.06271900  0.89992643  0.06916851  1  0  -0.327616  0  2.266526  0  0  -0.257059  0  2.518489  0  0  -0.272927  0  2.520322  0  0  -0.275548  -0.245798  0  2.516812  0
O  O92  1  0.57829070  0.15531568  0.79551795  1  0  -0.32606  0  2.291345  0  0  -0.252211  0  2.544704  0  0  -0.268026  0  2.546325  0  0  -0.273129  -0.241081  0  2.543178  0
O  O93  1  0.07828916  0.15531655  0.20448063  1  0  -0.326006  0  2.291246  0  0  -0.252136  0  2.544649  0  0  -0.267952  0  2.546267  0  0  -0.273106  -0.241015  0  2.54313  0
O  O94  1  0.49497997  0.08039359  0.59986693  1  0  -0.335435  0  2.263483  0  0  -0.26352  0  2.514364  0  0  -0.279818  0  2.516978  0  0  -0.268202  -0.251924  0  2.512077  0
O  O95  1  0.99498247  0.08039427  0.40013343  1  0  -0.335478  0  2.263482  0  0  -0.263514  0  2.514398  0  0  -0.27981  0  2.517012  0  0  -0.268195  -0.251921  0  2.512115  0
O  O96  1  0.14857782  0.03122952  0.77922084  1  0  -0.568549  0  1.965312  0  0  -0.519348  0  2.196936  0  0  -0.539871  0  2.19046  0  0  -0.373344  -0.50504  0  2.200819  0
O  O97  1  0.64858659  0.03122395  0.22076948  1  0  -0.568697  0  1.96472  0  0  -0.519493  0  2.196315  0  0  -0.540021  0  2.189853  0  0  -0.373488  -0.505187  0  2.2002  0
