# generated using pymatgen
data_CdH28C38N2O5
_symmetry_space_group_name_H-M   'P 1'
_cell_length_a   9.96826445
_cell_length_b   10.26190015
_cell_length_c   15.83660000
_cell_angle_alpha   76.20375728
_cell_angle_beta   74.07952321
_cell_angle_gamma   75.24399230
_symmetry_Int_Tables_number   1
_chemical_formula_structural   CdH28C38N2O5
_chemical_formula_sum   'Cd2 H56 C76 N4 O10'
_cell_volume   1481.49509755
_cell_formula_units_Z   2
loop_
 _symmetry_equiv_pos_site_id
 _symmetry_equiv_pos_as_xyz
  1  'x, y, z'
loop_
 _atom_site_type_symbol
 _atom_site_label
 _atom_site_symmetry_multiplicity
 _atom_site_fract_x
 _atom_site_fract_y
 _atom_site_fract_z
 _atom_site_occupancy
 _atom_site_hle17_bader_spin_density
 _atom_site_hle17_ddec_charge
 _atom_site_hle17_ddec_spin_density
 _atom_site_hle17_ddec_sum_bond_order
 _atom_site_hle17_magmom
 _atom_site_hse06_10hf_bader_spin_density
 _atom_site_hse06_10hf_ddec_charge
 _atom_site_hse06_10hf_ddec_spin_density
 _atom_site_hse06_10hf_ddec_sum_bond_order
 _atom_site_hse06_10hf_magmom
 _atom_site_hse06_bader_spin_density
 _atom_site_hse06_ddec_charge
 _atom_site_hse06_ddec_spin_density
 _atom_site_hse06_ddec_sum_bond_order
 _atom_site_hse06_magmom
 _atom_site_pbe_bader_charge
 _atom_site_pbe_bader_spin_density
 _atom_site_pbe_cm5_charge
 _atom_site_pbe_ddec_charge
 _atom_site_pbe_ddec_spin_density
 _atom_site_pbe_ddec_sum_bond_order
 _atom_site_pbe_magmom
Cd  Cd0  1  0.30877997  0.19948999  0.48055283  1  0  1.182164  0  1.644143  0  0  0.991715  0  2.098552  0  0  1.04703  0  2.044314  0  1.312597  0  0.788254  0.952188  0  2.135709  0
Cd  Cd1  1  0.69121736  0.80050633  0.51944776  1  0  1.182109  0  1.644244  0  0  0.991681  0  2.098659  0  0  1.046991  0  2.044421  0  1.312502  0  0.788233  0.952154  0  2.135816  0
H  H2  1  0.15422541  0.01532126  0.65806892  1  0  0.078418  0  0.927182  0  0  0.089988  0  0.986563  0  0  0.091684  0  0.985459  0  0.088445  0  0.117904  0.089086  0  0.986817  0
H  H3  1  0.84577354  0.98468222  0.34193217  1  0  0.078475  0  0.927204  0  0  0.090013  0  0.986618  0  0  0.091707  0  0.985517  0  0.088451  0  0.117906  0.089111  0  0.986873  0
H  H4  1  0.56256653  0.14176780  0.31073926  1  0  0.083634  0  0.974639  0  0  0.0912  0  1.041236  0  0  0.093096  0  1.040225  0  0.1255  0  0.112746  0.089946  0  1.041568  0
H  H5  1  0.43742954  0.85822954  0.68926265  1  0  0.08363  0  0.974631  0  0  0.091166  0  1.041263  0  0  0.093062  0  1.040244  0  0.125544  0  0.112739  0.089912  0  1.041596  0
H  H6  1  0.13970963  0.95379479  0.82014175  1  0  0.099023  0  0.964934  0  0  0.109171  0  1.027771  0  0  0.11155  0  1.028568  0  0.090711  0  0.102371  0.107443  0  1.027253  0
H  H7  1  0.86029079  0.04620665  0.17985815  1  0  0.099055  0  0.964899  0  0  0.10918  0  1.027753  0  0  0.111561  0  1.02855  0  0.090682  0  0.102385  0.107445  0  1.027241  0
H  H8  1  0.57532967  0.34146683  0.86761746  1  0  0.088424  0  0.969442  0  0  0.098566  0  1.033338  0  0  0.100653  0  1.033626  0  0.079171  0  0.098624  0.097129  0  1.033156  0
H  H9  1  0.42466971  0.65853461  0.13238198  1  0  0.088447  0  0.969416  0  0  0.098565  0  1.03334  0  0  0.100652  0  1.033627  0  0.079135  0  0.098614  0.097127  0  1.033161  0
H  H10  1  0.41708620  0.28774711  0.62232613  1  0  0.078814  0  0.955567  0  0  0.08711  0  1.02104  0  0  0.0881  0  1.021322  0  0.094604  0  0.115311  0.08644  0  1.020519  0
H  H11  1  0.58291505  0.71225535  0.37767346  1  0  0.078848  0  0.955566  0  0  0.087148  0  1.021035  0  0  0.088137  0  1.021318  0  0.09463  0  0.115327  0.086478  0  1.020513  0
H  H12  1  0.42647230  0.57673615  0.63639954  1  0  0.112649  0  0.96359  0  0  0.119577  0  1.030418  0  0  0.122208  0  1.029517  0  0.130544  0  0.105036  0.117576  0  1.03144  0
H  H13  1  0.57352165  0.42326631  0.36360068  1  0  0.112639  0  0.963603  0  0  0.119596  0  1.030393  0  0  0.122208  0  1.029513  0  0.130535  0  0.105027  0.117595  0  1.031413  0
H  H14  1  0.41640798  0.23627147  0.78403402  1  0  0.096636  0  0.999069  0  0  0.106016  0  1.06309  0  0  0.108016  0  1.065144  0  0.100814  0  0.099297  0.104095  0  1.062902  0
H  H15  1  0.58359453  0.76372997  0.21596551  1  0  0.096662  0  0.999077  0  0  0.106047  0  1.063088  0  0  0.108048  0  1.06514  0  0.100734  0  0.099323  0.104126  0  1.062903  0
H  H16  1  0.23063026  0.85544749  0.32507491  1  0  0.098372  0  0.961182  0  0  0.106529  0  1.027455  0  0  0.108998  0  1.02664  0  0.113013  0  0.100706  0.104923  0  1.027839  0
H  H17  1  0.76937164  0.14455190  0.67492631  1  0  0.098361  0  0.961188  0  0  0.106545  0  1.027438  0  0  0.109014  0  1.026621  0  0.113052  0  0.100709  0.104938  0  1.027823  0
H  H18  1  0.14591053  0.35225689  0.32758590  1  0  0.076112  0  0.956207  0  0  0.084923  0  1.021695  0  0  0.08732  0  1.019313  0  0.096588  0  0.11485  0.083154  0  1.02352  0
H  H19  1  0.85408860  0.64775070  0.67241201  1  0  0.076152  0  0.956241  0  0  0.084944  0  1.021735  0  0  0.087338  0  1.019359  0  0.096916  0  0.114874  0.083175  0  1.02356  0
H  H20  1  0.94330954  0.60651998  0.14130109  1  0  0.079385  0  0.97141  0  0  0.089993  0  1.034415  0  0  0.091745  0  1.035212  0  0.052937  0  0.092625  0.088897  0  1.033439  0
H  H21  1  0.05669067  0.39348248  0.85869868  1  0  0.0794  0  0.971374  0  0  0.090003  0  1.034387  0  0  0.091767  0  1.035173  0  0.052915  0  0.092627  0.088908  0  1.033411  0
H  H22  1  0.61574476  0.41899538  0.70445099  1  0  0.093088  0  0.957194  0  0  0.102488  0  1.020952  0  0  0.10426  0  1.021652  0  0.098004  0  0.100345  0.10142  0  1.020306  0
H  H23  1  0.38425110  0.58100299  0.29554701  1  0  0.09306  0  0.957242  0  0  0.10246  0  1.021001  0  0  0.104229  0  1.021705  0  0.097963  0  0.100319  0.101392  0  1.020355  0
H  H24  1  0.34834544  0.11801738  0.92803784  1  0  0.090143  0  0.957132  0  0  0.103488  0  1.016305  0  0  0.106236  0  1.015577  0  0.05369  0  0.099638  0.101577  0  1.016672  0
H  H25  1  0.65165958  0.88198201  0.07196157  1  0  0.090155  0  0.957092  0  0  0.103455  0  1.016319  0  0  0.106203  0  1.015591  0  0.053746  0  0.099634  0.101548  0  1.016687  0
H  H26  1  0.06606796  0.77687170  0.03418694  1  0  0.077472  0  1.001048  0  0  0.088744  0  1.066044  0  0  0.090821  0  1.066125  0  0.028288  0  0.091858  0.087238  0  1.065989  0
H  H27  1  0.93393455  0.22312974  0.96581449  1  0  0.077484  0  1.001036  0  0  0.088739  0  1.066039  0  0  0.090846  0  1.06609  0  0.028256  0  0.091868  0.087234  0  1.065984  0
H  H28  1  0.18257609  0.41958355  0.16424691  1  0  0.093509  0  0.994546  0  0  0.104316  0  1.057165  0  0  0.106623  0  1.057848  0  0.082568  0  0.099678  0.102321  0  1.057673  0
H  H29  1  0.81742203  0.58041891  0.83575259  1  0  0.093549  0  0.994541  0  0  0.10436  0  1.057158  0  0  0.106668  0  1.057824  0  0.082587  0  0.099709  0.102368  0  1.057657  0
H  H30  1  0.61771233  0.19741600  0.14385835  1  0  0.095797  0  0.979009  0  0  0.105673  0  1.04393  0  0  0.107804  0  1.045009  0  0.07644  0  0.099901  0.104098  0  1.043406  0
H  H31  1  0.38228539  0.80258339  0.85614296  1  0  0.095812  0  0.979002  0  0  0.105696  0  1.043914  0  0  0.107832  0  1.044979  0  0.076402  0  0.099914  0.104121  0  1.043391  0
H  H32  1  0.15382163  0.91526108  0.95635098  1  0  0.081335  0  0.975514  0  0  0.095421  0  1.036129  0  0  0.097876  0  1.034584  0  0.054385  0  0.098529  0.0935  0  1.037493  0
H  H33  1  0.84618257  0.08473729  0.04364937  1  0  0.081301  0  0.975466  0  0  0.095394  0  1.03608  0  0  0.097843  0  1.03454  0  0.054439  0  0.098515  0.093474  0  1.037442  0
H  H34  1  0.91571597  0.75126043  0.91327410  1  0  0.086473  0  0.959853  0  0  0.098713  0  1.019849  0  0  0.100807  0  1.020253  0  0.057724  0  0.096805  0.097259  0  1.019566  0
H  H35  1  0.08428132  0.24874101  0.08672633  1  0  0.086515  0  0.959827  0  0  0.098759  0  1.019815  0  0  0.100855  0  1.020214  0  0.057754  0  0.096808  0.097305  0  1.019532  0
H  H36  1  0.18665306  0.71741573  0.65237892  1  0  0.090325  0  0.98056  0  0  0.101438  0  1.042826  0  0  0.102993  0  1.043231  0  0.084288  0  0.098858  0.100364  0  1.042654  0
H  H37  1  0.81334484  0.28258776  0.34762046  1  0  0.090268  0  0.980493  0  0  0.101369  0  1.042813  0  0  0.102925  0  1.043215  0  0.084279  0  0.098794  0.100297  0  1.042642  0
H  H38  1  0.09334571  0.58121305  0.98301942  1  0  0.082789  0  0.994804  0  0  0.093922  0  1.059985  0  0  0.0963  0  1.05935  0  0.024512  0  0.094542  0.092367  0  1.060207  0
H  H39  1  0.90665158  0.41878839  0.01698102  1  0  0.082787  0  0.994818  0  0  0.093946  0  1.059957  0  0  0.096323  0  1.059326  0  0.024634  0  0.094553  0.092392  0  1.060178  0
H  H40  1  0.35290624  0.08052681  0.06011446  1  0  0.084125  0  0.97141  0  0  0.095497  0  1.034458  0  0  0.098036  0  1.033989  0  0.061045  0  0.095874  0.093877  0  1.034296  0
H  H41  1  0.64709796  0.91947156  0.93988589  1  0  0.084079  0  0.971481  0  0  0.095477  0  1.034487  0  0  0.098019  0  1.034013  0  0.061063  0  0.095885  0.093856  0  1.034328  0
H  H42  1  0.94870562  0.56123864  0.30315627  1  0  0.099012  0  0.963666  0  0  0.107319  0  1.028001  0  0  0.109975  0  1.027417  0  0.083335  0  0.100392  0.105411  0  1.028509  0
H  H43  1  0.05129063  0.43876280  0.69684497  1  0  0.098984  0  0.96373  0  0  0.107277  0  1.02808  0  0  0.109935  0  1.027489  0  0.08346  0  0.100377  0.105369  0  1.028587  0
H  H44  1  0.08035638  0.68799976  0.35494544  1  0  0.10459  0  0.958091  0  0  0.114669  0  1.021031  0  0  0.117348  0  1.019797  0  0.114446  0  0.103826  0.112643  0  1.022179  0
H  H45  1  0.91964261  0.31199860  0.64505644  1  0  0.104597  0  0.958014  0  0  0.114645  0  1.021002  0  0  0.117321  0  1.019774  0  0.114513  0  0.103809  0.112632  0  1.022132  0
H  H46  1  0.22853637  0.44174672  0.03099755  1  0  0.075877  0  0.993434  0  0  0.088786  0  1.057338  0  0  0.090846  0  1.056409  0  0.057188  0  0.09701  0.087389  0  1.057769  0
H  H47  1  0.77146384  0.55825575  0.96900349  1  0  0.07589  0  0.993432  0  0  0.088798  0  1.057333  0  0  0.090859  0  1.056404  0  0.057187  0  0.097037  0.087402  0  1.057764  0
H  H48  1  0.95922625  0.82159561  0.74786662  1  0  0.089593  0  0.958839  0  0  0.101469  0  1.016346  0  0  0.103722  0  1.016746  0  0.090912  0  0.099192  0.099583  0  1.016923  0
H  H49  1  0.04076978  0.17840686  0.25213388  1  0  0.089609  0  0.958883  0  0  0.101489  0  1.016379  0  0  0.103738  0  1.016778  0  0.090928  0  0.099196  0.099603  0  1.016956  0
H  H50  1  0.54743277  0.31454907  0.00723904  1  0  0.092673  0  0.952817  0  0  0.104861  0  1.012898  0  0  0.107563  0  1.012346  0  0.073944  0  0.099733  0.102934  0  1.013334  0
H  H51  1  0.45256621  0.68544929  0.99275969  1  0  0.092657  0  0.952854  0  0  0.104868  0  1.012907  0  0  0.107572  0  1.012349  0  0.073963  0  0.099747  0.102951  0  1.013315  0
H  H52  1  0.35844981  0.02882267  0.21906082  1  0  0.089607  0  0.974937  0  0  0.09943  0  1.036691  0  0  0.10122  0  1.038307  0  0.076033  0  0.096127  0.097677  0  1.036724  0
H  H53  1  0.64154853  0.97117877  0.78094133  1  0  0.089599  0  0.974986  0  0  0.099413  0  1.036739  0  0  0.101216  0  1.038341  0  0.076079  0  0.096093  0.097659  0  1.036771  0
H  H54  1  0.01905761  0.18440748  0.47897194  1  0  0.419065  0  0.830949  0  0  0.401943  0  0.88609  0  0  0.410137  0  0.87662  0  0.606205  0  0.312736  0.395826  0  0.893372  0
H  H55  1  0.98094389  0.81558884  0.52102856  1  0  0.418903  0  0.831108  0  0  0.401802  0  0.886211  0  0  0.409992  0  0.876752  0  0.606248  0  0.312677  0.395689  0  0.893485  0
H  H56  1  0.99212990  0.34516906  0.47821590  1  0  0.425041  0  0.883095  0  0  0.38884  0  0.956177  0  0  0.400535  0  0.939208  0  0.657961  0  0.282578  0.380466  0  0.968357  0
H  H57  1  0.00786825  0.65482828  0.52178502  1  0  0.424984  0  0.883181  0  0  0.388805  0  0.956228  0  0  0.4005  0  0.939262  0  0.657899  0  0.282575  0.38043  0  0.968409  0
C  C58  1  0.21071390  0.06227081  0.68890568  1  0  0.133449  0  3.726892  0  0  0.101187  0  3.984061  0  0  0.109072  0  4.002342  0  0.485466  0  0.047168  0.096009  0  3.971589  0
C  C59  1  0.78928400  0.93773267  0.31109623  1  0  0.133471  0  3.726728  0  0  0.101215  0  3.983905  0  0  0.109104  0  4.002181  0  0.485822  0  0.047209  0.096038  0  3.971432  0
C  C60  1  0.48136865  0.20103933  0.27477856  1  0  0.129139  0  3.719427  0  0  0.09773  0  3.970828  0  0  0.105992  0  3.988482  0  0.458551  0  0.043166  0.093151  0  3.958481  0
C  C61  1  0.51862573  0.79896108  0.72522254  1  0  0.129226  0  3.719459  0  0  0.097847  0  3.970858  0  0  0.10611  0  3.988512  0  0.458424  0  0.043203  0.093268  0  3.958509  0
C  C62  1  0.20367408  0.02813305  0.77997886  1  0  -0.163765  0  3.6935  0  0  -0.179082  0  3.939637  0  0  -0.186829  0  3.960897  0  -0.042082  0  -0.082418  -0.174131  0  3.925756  0
C  C63  1  0.79632570  0.97187147  0.22002130  1  0  -0.163803  0  3.693383  0  0  -0.179108  0  3.939514  0  0  -0.186856  0  3.960768  0  -0.041785  0  -0.082456  -0.174151  0  3.925634  0
C  C64  1  0.48964741  0.41234100  0.83980929  1  0  -0.101915  0  3.725484  0  0  -0.1218  0  3.974449  0  0  -0.12242  0  3.994171  0  -0.047946  0  -0.085655  -0.120479  0  3.961281  0
C  C65  1  0.51034988  0.58766044  0.16018988  1  0  -0.101971  0  3.725516  0  0  -0.121834  0  3.974487  0  0  -0.122454  0  3.994209  0  -0.047996  0  -0.085656  -0.120514  0  3.961322  0
C  C66  1  0.35773972  0.21372098  0.66868935  1  0  0.133327  0  3.715597  0  0  0.104133  0  3.961534  0  0  0.111603  0  3.981158  0  0.493839  0  0.046434  0.099874  0  3.947454  0
C  C67  1  0.64226070  0.78628046  0.33131181  1  0  0.133224  0  3.715499  0  0  0.104015  0  3.961441  0  0  0.111487  0  3.981062  0  0.493397  0  0.046389  0.099757  0  3.94736  0
C  C68  1  0.29036711  0.64470428  0.48831708  1  0  -0.148906  0  3.696535  0  0  -0.149123  0  3.962709  0  0  -0.149685  0  3.974996  0  -0.111948  0  -0.035961  -0.148401  0  3.954192  0
C  C69  1  0.70963831  0.35529819  0.51167232  1  0  -0.148909  0  3.696212  0  0  -0.14911  0  3.962375  0  0  -0.149677  0  3.974654  0  -0.074297  0  -0.03583  -0.148386  0  3.953858  0
C  C70  1  0.27338915  0.59319790  0.76320419  1  0  0.053831  0  3.780064  0  0  0.071571  0  4.003062  0  0  0.070759  0  4.028605  0  -0.038336  0  -0.005732  0.072748  0  3.985841  0
C  C71  1  0.72660814  0.40680354  0.23679498  1  0  0.053867  0  3.780045  0  0  0.071575  0  4.003147  0  0  0.070765  0  4.028686  0  -0.038331  0  -0.005713  0.07275  0  3.985929  0
C  C72  1  0.15382570  0.80465532  0.22387167  1  0  0.046301  0  3.797465  0  0  0.063718  0  4.022038  0  0  0.063189  0  4.047618  0  -0.065168  0  -0.009231  0.063642  0  4.005428  0
C  C73  1  0.84617411  0.19534407  0.77612991  1  0  0.046266  0  3.797441  0  0  0.063665  0  4.022075  0  0  0.063136  0  4.047652  0  -0.065088  0  -0.009235  0.063591  0  4.005468  0
C  C74  1  0.40649360  0.54284636  0.70858686  1  0  -0.089826  0  3.683532  0  0  -0.111163  0  3.932104  0  0  -0.113491  0  3.953358  0  -0.042829  0  -0.077303  -0.110052  0  3.918529  0
C  C75  1  0.59350264  0.45715508  0.29141439  1  0  -0.089843  0  3.68348  0  0  -0.111188  0  3.932067  0  0  -0.113502  0  3.95333  0  -0.042877  0  -0.077324  -0.110077  0  3.918491  0
C  C76  1  0.31619952  0.75448515  0.48890718  1  0  -0.158027  0  3.719276  0  0  -0.154719  0  3.985034  0  0  -0.155917  0  3.997064  0  -0.242141  0  -0.039811  -0.153583  0  3.976493  0
C  C77  1  0.68380371  0.24550297  0.51108923  1  0  -0.157887  0  3.718731  0  0  -0.154562  0  3.984504  0  0  -0.155755  0  3.996533  0  -0.242111  0  -0.039761  -0.153427  0  3.975962  0
C  C78  1  0.24975430  0.51385052  0.49911029  1  0  0.704622  0  4.017057  0  0  0.65189  0  4.31157  0  0  0.689098  0  4.297582  0  1.717389  0  0.209484  0.626322  0  4.320308  0
C  C79  1  0.75025432  0.48614170  0.50088393  1  0  0.704539  0  4.017234  0  0  0.651805  0  4.311754  0  0  0.689029  0  4.297745  0  1.679879  0  0.20948  0.626237  0  4.320493  0
C  C80  1  0.35670740  0.18460934  0.75897346  1  0  -0.164217  0  3.697004  0  0  -0.178792  0  3.93761  0  0  -0.187063  0  3.959239  0  -0.068231  0  -0.085274  -0.174007  0  3.92479  0
C  C81  1  0.64329489  0.81539312  0.24102659  1  0  -0.164207  0  3.697126  0  0  -0.17879  0  3.937724  0  0  -0.187058  0  3.95935  0  -0.06807  0  -0.085315  -0.174005  0  3.924903  0
C  C82  1  0.27900944  0.08951135  0.81785041  1  0  0.136513  0  3.813441  0  0  0.150843  0  4.041612  0  0  0.157161  0  4.062451  0  0.02387  0  0.006531  0.146432  0  4.028471  0
C  C83  1  0.72099098  0.91049009  0.18214948  1  0  0.136487  0  3.813806  0  0  0.150847  0  4.041896  0  0  0.157154  0  4.06277  0  0.023634  0  0.006574  0.146433  0  4.028763  0
C  C84  1  0.33957884  0.88259068  0.50093751  1  0  0.713278  0  4.019845  0  0  0.659422  0  4.316558  0  0  0.69737  0  4.301459  0  1.67666  0  0.20357  0.63332  0  4.325966  0
C  C85  1  0.66042226  0.11740257  0.49905785  1  0  0.713323  0  4.019835  0  0  0.65942  0  4.316594  0  0  0.697367  0  4.301496  0  1.676848  0  0.203522  0.633319  0  4.326  0
C  C86  1  0.22918841  0.87718130  0.25439474  1  0  -0.099369  0  3.717294  0  0  -0.118292  0  3.962559  0  0  -0.120683  0  3.983582  0  -0.155387  0  -0.081389  -0.117531  0  3.949509  0
C  C87  1  0.77081370  0.12281706  0.74560723  1  0  -0.099372  0  3.717344  0  0  -0.118317  0  3.962613  0  0  -0.120706  0  3.983641  0  -0.155594  0  -0.081444  -0.117555  0  3.949564  0
C  C88  1  0.24894872  0.31902085  0.28429781  1  0  0.119258  0  3.744635  0  0  0.089342  0  3.993803  0  0  0.096529  0  4.012867  0  0.532503  0  0.042153  0.085636  0  3.980907  0
C  C89  1  0.75104710  0.68098264  0.71570193  1  0  0.119135  0  3.744809  0  0  0.089245  0  3.993981  0  0  0.096427  0  4.01305  0  0.532018  0  0.042063  0.085539  0  3.981081  0
C  C90  1  0.36028609  0.45715713  0.89688744  1  0  0.030372  0  3.797291  0  0  0.045107  0  4.030962  0  0  0.04322  0  4.05515  0  -0.065187  0  -0.016189  0.045695  0  4.014703  0
C  C91  1  0.63971247  0.54284329  0.10311293  1  0  0.030463  0  3.797245  0  0  0.045201  0  4.030934  0  0  0.043315  0  4.055123  0  -0.065206  0  -0.016165  0.045789  0  4.014675  0
C  C92  1  0.00352974  0.66132281  0.16391968  1  0  -0.067881  0  3.78851  0  0  -0.079801  0  4.039494  0  0  -0.080778  0  4.061041  0  -0.035974  0  -0.095412  -0.078257  0  4.023962  0
C  C93  1  0.99646964  0.33867863  0.83608039  1  0  -0.067902  0  3.788539  0  0  -0.079827  0  4.039523  0  0  -0.080816  0  4.061078  0  -0.035907  0  -0.095383  -0.078282  0  4.023992  0
C  C94  1  0.24878231  0.55151837  0.85857499  1  0  0.012355  0  3.735565  0  0  0.027174  0  3.955705  0  0  0.026612  0  3.980283  0  -0.046118  0  -0.005582  0.028591  0  3.938438  0
C  C95  1  0.75121498  0.44848307  0.14142481  1  0  0.012357  0  3.735576  0  0  0.027143  0  3.955805  0  0  0.026579  0  3.980382  0  -0.046097  0  -0.005609  0.028561  0  3.938536  0
C  C96  1  0.51291120  0.45514155  0.74681394  1  0  -0.060904  0  3.77497  0  0  -0.075666  0  4.030512  0  0  -0.078267  0  4.052804  0  -0.056534  0  -0.088219  -0.074109  0  4.01598  0
C  C97  1  0.48708505  0.54485989  0.25318415  1  0  -0.060885  0  3.774952  0  0  -0.075643  0  4.030485  0  0  -0.078243  0  4.052773  0  -0.056461  0  -0.088167  -0.074086  0  4.015951  0
C  C98  1  0.15001232  0.83306914  0.13081912  1  0  0.009632  0  3.735665  0  0  0.023913  0  3.958576  0  0  0.023379  0  3.983242  0  0.030115  0  -0.007123  0.024357  0  3.941628  0
C  C99  1  0.84998832  0.16693128  0.86918279  1  0  0.009696  0  3.735536  0  0  0.023981  0  3.958545  0  0  0.023447  0  3.983214  0  0.030121  0  -0.007107  0.024424  0  3.941595  0
C  C100  1  0.28327360  0.06058211  0.91165935  1  0  -0.127128  0  3.727573  0  0  -0.144111  0  3.976464  0  0  -0.14799  0  3.995574  0  -0.052069  0  -0.0915  -0.141148  0  3.963266  0
C  C101  1  0.71673121  0.93941830  0.08834121  1  0  -0.127097  0  3.727762  0  0  -0.144048  0  3.976634  0  0  -0.147922  0  3.995738  0  -0.052197  0  -0.091495  -0.141089  0  3.963437  0
C  C102  1  0.07303107  0.75777340  0.10357223  1  0  -0.134352  0  3.77694  0  0  -0.155982  0  4.028279  0  0  -0.159862  0  4.051093  0  -0.097065  0  -0.103548  -0.152872  0  4.012054  0
C  C103  1  0.92697166  0.24222701  0.89642806  1  0  -0.134408  0  3.776926  0  0  -0.155992  0  4.028261  0  0  -0.159903  0  4.051074  0  -0.097156  0  -0.10361  -0.152884  0  4.012037  0
C  C104  1  0.27037175  0.35518035  0.19239075  1  0  -0.163654  0  3.706799  0  0  -0.17898  0  3.947111  0  0  -0.18733  0  3.969747  0  -0.050363  0  -0.087238  -0.174601  0  3.934486  0
C  C105  1  0.72962889  0.64482007  0.80760674  1  0  -0.163692  0  3.706732  0  0  -0.179021  0  3.947035  0  0  -0.187362  0  3.969679  0  -0.050528  0  -0.087223  -0.174626  0  3.934426  0
C  C106  1  0.51114586  0.23267274  0.18215373  1  0  -0.169377  0  3.712493  0  0  -0.186879  0  3.960044  0  0  -0.195009  0  3.981538  0  -0.024797  0  -0.086837  -0.182035  0  3.94648  0
C  C107  1  0.48885165  0.76732767  0.81784682  1  0  -0.169429  0  3.712542  0  0  -0.186931  0  3.960072  0  0  -0.195063  0  3.981573  0  -0.024619  0  -0.086846  -0.182074  0  3.946527  0
C  C108  1  0.40447009  0.31114708  0.13786881  1  0  0.134608  0  3.811538  0  0  0.150493  0  4.038282  0  0  0.156481  0  4.059934  0  -0.016285  0  0.004806  0.146782  0  4.024173  0
C  C109  1  0.59552846  0.68885333  0.86213093  1  0  0.134707  0  3.811285  0  0  0.150585  0  4.038044  0  0  0.156571  0  4.059701  0  -0.016372  0  0.004842  0.146824  0  4.024003  0
C  C110  1  0.21757537  0.96960484  0.97638932  1  0  -0.083836  0  3.741334  0  0  -0.106133  0  3.994142  0  0  -0.105253  0  4.012803  0  -0.051325  0  -0.083784  -0.106704  0  3.981192  0
C  C111  1  0.78242800  0.03039250  0.02361070  1  0  -0.083816  0  3.741285  0  0  -0.106068  0  3.994109  0  0  -0.105181  0  4.012762  0  -0.051399  0  -0.083759  -0.106637  0  3.981155  0
C  C112  1  0.01534369  0.70595859  0.87151704  1  0  -0.081019  0  3.801956  0  0  -0.09558  0  4.057505  0  0  -0.096573  0  4.078041  0  -0.087561  0  -0.099479  -0.094063  0  4.043687  0
C  C113  1  0.98465443  0.29404387  0.12848183  1  0  -0.08108  0  3.802066  0  0  -0.095644  0  4.057612  0  0  -0.096637  0  4.078146  0  -0.08757  0  -0.099519  -0.094127  0  4.043793  0
C  C114  1  0.16591600  0.68915459  0.72490845  1  0  -0.098088  0  3.715313  0  0  -0.114113  0  3.95446  0  0  -0.116211  0  3.976513  0  -0.041356  0  -0.084455  -0.11394  0  3.940279  0
C  C115  1  0.83408190  0.31084890  0.27509156  1  0  -0.097949  0  3.715286  0  0  -0.113986  0  3.95448  0  0  -0.11608  0  3.97652  0  -0.041314  0  -0.084366  -0.113818  0  3.940307  0
C  C116  1  0.11628914  0.61020684  0.91063349  1  0  -0.138645  0  3.781197  0  0  -0.158603  0  4.032802  0  0  -0.161197  0  4.05324  0  -0.037193  0  -0.101569  -0.15724  0  4.018505  0
C  C117  1  0.88371027  0.38978947  0.08936737  1  0  -0.138631  0  3.781325  0  0  -0.158586  0  4.032919  0  0  -0.161179  0  4.053357  0  -0.037276  0  -0.101535  -0.157222  0  4.018619  0
C  C118  1  0.22285781  0.93608086  0.07035484  1  0  0.024354  0  3.799603  0  0  0.038779  0  4.035669  0  0  0.037173  0  4.060395  0  -0.098842  0  -0.017862  0.040069  0  4.018453  0
C  C119  1  0.77714513  0.06391853  0.92964620  1  0  0.024448  0  3.799498  0  0  0.03875  0  4.035747  0  0  0.037146  0  4.060471  0  -0.098787  0  -0.017804  0.040044  0  4.018526  0
C  C120  1  0.29689568  0.00254125  0.10451184  1  0  -0.108686  0  3.737126  0  0  -0.128629  0  3.985461  0  0  -0.130496  0  4.006409  0  -0.049534  0  -0.091455  -0.126571  0  3.970414  0
C  C121  1  0.70310769  0.99745609  0.89549007  1  0  -0.108728  0  3.737098  0  0  -0.128647  0  3.985469  0  0  -0.130516  0  4.006421  0  -0.049664  0  -0.091559  -0.126589  0  3.970421  0
C  C122  1  0.00644374  0.63486514  0.25514054  1  0  -0.060948  0  3.758972  0  0  -0.077148  0  4.011829  0  0  -0.079288  0  4.033679  0  0.004649  0  -0.090495  -0.075797  0  3.997152  0
C  C123  1  0.99355438  0.36513732  0.74486023  1  0  -0.060895  0  3.759094  0  0  -0.077081  0  4.011943  0  0  -0.079218  0  4.033795  0  0.004498  0  -0.090496  -0.075732  0  3.997272  0
C  C124  1  0.08051559  0.70527922  0.28424461  1  0  -0.101557  0  3.706631  0  0  -0.119707  0  3.951976  0  0  -0.122498  0  3.973452  0  -0.051107  0  -0.084028  -0.117876  0  3.937892  0
C  C125  1  0.91948379  0.29472222  0.71575673  1  0  -0.101567  0  3.706611  0  0  -0.119695  0  3.951991  0  0  -0.122484  0  3.973455  0  -0.051149  0  -0.084002  -0.117875  0  3.93791  0
C  C126  1  0.33744050  0.41366900  0.99306335  1  0  -0.083924  0  3.745328  0  0  -0.106015  0  3.995362  0  0  -0.105411  0  4.015109  0  0.01562  0  -0.084877  -0.106269  0  3.981662  0
C  C127  1  0.66256075  0.58633346  0.00693688  1  0  -0.083929  0  3.745249  0  0  -0.106022  0  3.995304  0  0  -0.105417  0  4.01505  0  0.015617  0  -0.084891  -0.106274  0  3.981601  0
C  C128  1  0.04005298  0.74608264  0.77765643  1  0  -0.081608  0  3.796563  0  0  -0.093816  0  4.044924  0  0  -0.096437  0  4.06694  0  -0.056157  0  -0.096568  -0.09186  0  4.031399  0
C  C129  1  0.95994640  0.25391880  0.22234491  1  0  -0.081736  0  3.796579  0  0  -0.093926  0  4.044941  0  0  -0.096541  0  4.06695  0  -0.056138  0  -0.096618  -0.09197  0  4.031414  0
C  C130  1  0.43594271  0.34524489  0.04090299  1  0  -0.125869  0  3.728859  0  0  -0.1418  0  3.977484  0  0  -0.146131  0  3.99768  0  -0.121465  0  -0.091522  -0.138982  0  3.963899  0
C  C131  1  0.56405875  0.65475655  0.95909672  1  0  -0.125919  0  3.728819  0  0  -0.141865  0  3.977452  0  0  -0.146196  0  3.997651  0  -0.121521  0  -0.091559  -0.139028  0  3.963882  0
C  C132  1  0.30000904  0.97385631  0.19533250  1  0  -0.073481  0  3.801311  0  0  -0.086757  0  4.05477  0  0  -0.089188  0  4.077252  0  0.050172  0  -0.097034  -0.085211  0  4.041024  0
C  C133  1  0.69999494  0.02614309  0.80466962  1  0  -0.073455  0  3.801367  0  0  -0.086717  0  4.054827  0  0  -0.089162  0  4.077302  0  0.050375  0  -0.096912  -0.08517  0  4.04108  0
N  N134  1  0.28687660  0.15289191  0.63335921  1  0  -0.342132  0  3.261092  0  0  -0.263002  0  3.528076  0  0  -0.283978  0  3.54682  0  -1.21275  0  -0.328956  -0.248626  0  3.515239  0
N  N135  1  0.71312152  0.84711055  0.36664218  1  0  -0.342164  0  3.260987  0  0  -0.263008  0  3.527963  0  0  -0.283983  0  3.546704  0  -1.212746  0  -0.328974  -0.248632  0  3.515125  0
N  N136  1  0.35198600  0.24254569  0.32564059  1  0  -0.335483  0  3.256681  0  0  -0.253792  0  3.515262  0  0  -0.274545  0  3.53379  0  -1.239445  0  -0.331593  -0.240382  0  3.501793  0
N  N137  1  0.64801047  0.75745472  0.67436014  1  0  -0.335525  0  3.256747  0  0  -0.253851  0  3.515331  0  0  -0.2746  0  3.533856  0  -1.239018  0  -0.331636  -0.240442  0  3.501864  0
O  O138  1  0.34695906  0.41780570  0.46911882  1  0  -0.631173  0  1.989768  0  0  -0.567754  0  2.240341  0  0  -0.597255  0  2.228454  0  -1.154594  0  -0.314558  -0.547284  0  2.247873  0
O  O139  1  0.65304540  0.58218651  0.53087865  1  0  -0.631161  0  1.989462  0  0  -0.567783  0  2.240074  0  0  -0.597291  0  2.228189  0  -1.154523  0  -0.314619  -0.547313  0  2.247607  0
O  O140  1  0.43278179  0.87496898  0.54332820  1  0  -0.642488  0  1.983419  0  0  -0.586197  0  2.24004  0  0  -0.613836  0  2.227142  0  -1.153487  0  -0.318109  -0.566093  0  2.248016  0
O  O141  1  0.56721842  0.12503348  0.45666399  1  0  -0.642605  0  1.983365  0  0  -0.586271  0  2.23996  0  0  -0.613922  0  2.227089  0  -1.1537  0  -0.318135  -0.566166  0  2.247933  0
O  O142  1  0.25865641  0.99159073  0.47075542  1  0  -0.644292  0  1.922886  0  0  -0.582876  0  2.158034  0  0  -0.610985  0  2.144119  0  -1.147746  0  -0.332814  -0.563188  0  2.166653  0
O  O143  1  0.74134009  0.00840456  0.52923978  1  0  -0.644315  0  1.923062  0  0  -0.582886  0  2.158225  0  0  -0.610993  0  2.144309  0  -1.147714  0  -0.332813  -0.563198  0  2.166844  0
O  O144  1  0.12202613  0.50791548  0.53893918  1  0  -0.59971  0  1.919855  0  0  -0.542375  0  2.131209  0  0  -0.568229  0  2.121136  0  -1.143356  0  -0.301651  -0.5239  0  2.137594  0
O  O145  1  0.87797642  0.49208084  0.46105799  1  0  -0.599663  0  1.920075  0  0  -0.542329  0  2.131469  0  0  -0.568188  0  2.121388  0  -1.14354  0  -0.301682  -0.523855  0  2.137857  0
O  O146  1  0.05767304  0.25385732  0.49144422  1  0  -0.842917  0  1.879337  0  0  -0.788409  0  2.083301  0  0  -0.808303  0  2.052381  0  -1.250359  0  -0.583416  -0.774261  0  2.105496  0
O  O147  1  0.94232159  0.74613695  0.50856157  1  0  -0.842683  0  1.879572  0  0  -0.788215  0  2.083541  0  0  -0.808095  0  2.052601  0  -1.250368  0  -0.583352  -0.774065  0  2.105727  0
