# generated using pymatgen
data_NaBH11(CO2)4
_symmetry_space_group_name_H-M   'P 1'
_cell_length_a   7.64783335
_cell_length_b   10.99698538
_cell_length_c   10.99707252
_cell_angle_alpha   76.38847657
_cell_angle_beta   94.27208146
_cell_angle_gamma   94.27257013
_symmetry_Int_Tables_number   1
_chemical_formula_structural   NaBH11(CO2)4
_chemical_formula_sum   'Na4 B4 H44 C16 O32'
_cell_volume   894.86380896
_cell_formula_units_Z   4
loop_
 _symmetry_equiv_pos_site_id
 _symmetry_equiv_pos_as_xyz
  1  'x, y, z'
loop_
 _atom_site_type_symbol
 _atom_site_label
 _atom_site_symmetry_multiplicity
 _atom_site_fract_x
 _atom_site_fract_y
 _atom_site_fract_z
 _atom_site_occupancy
 _atom_site_hle17_bader_spin_density
 _atom_site_hle17_ddec_charge
 _atom_site_hle17_ddec_spin_density
 _atom_site_hle17_ddec_sum_bond_order
 _atom_site_hle17_magmom
 _atom_site_hse06_10hf_bader_spin_density
 _atom_site_hse06_10hf_ddec_charge
 _atom_site_hse06_10hf_ddec_spin_density
 _atom_site_hse06_10hf_ddec_sum_bond_order
 _atom_site_hse06_10hf_magmom
 _atom_site_hse06_bader_spin_density
 _atom_site_hse06_ddec_charge
 _atom_site_hse06_ddec_spin_density
 _atom_site_hse06_ddec_sum_bond_order
 _atom_site_hse06_magmom
 _atom_site_pbe_bader_spin_density
 _atom_site_pbe_cm5_charge
 _atom_site_pbe_ddec_charge
 _atom_site_pbe_ddec_spin_density
 _atom_site_pbe_ddec_sum_bond_order
 _atom_site_pbe_magmom
Na  Na0  1  0.56887886  0.91131505  0.39711064  1  0  0.900356  0  0.348357  0  0  0.85627  0  0.495413  0  0  0.867057  0  0.473061  0  0  0.632611  0.848254  0  0.511483  0
Na  Na1  1  0.93112197  0.60289063  0.08868684  1  0  0.900371  0  0.348348  0  0  0.856298  0  0.49539  0  0  0.867079  0  0.473037  0  0  0.632574  0.848237  0  0.511464  0
Na  Na2  1  0.43112672  0.08868574  0.60288501  1  0  0.900351  0  0.348355  0  0  0.856288  0  0.495373  0  0  0.867075  0  0.47302  0  0  0.63262  0.848273  0  0.511443  0
Na  Na3  1  0.06888181  0.39711966  0.91131452  1  0  0.900336  0  0.348359  0  0  0.856262  0  0.495396  0  0  0.867048  0  0.473036  0  0  0.632563  0.848198  0  0.511469  0
B  B4  1  0.59373046  0.16628531  0.14241229  1  0  1.19538  0  2.844194  0  0  1.041326  0  3.17276  0  0  1.082433  0  3.131352  0  0  0.098551  1.012401  0  3.201678  0
B  B5  1  0.90627883  0.85758403  0.83371036  1  0  1.195193  0  2.844348  0  0  1.041088  0  3.173111  0  0  1.082107  0  3.13188  0  0  0.098489  1.012222  0  3.20181  0
B  B6  1  0.40627143  0.83372010  0.85758299  1  0  1.195197  0  2.844459  0  0  1.041104  0  3.173141  0  0  1.082174  0  3.131814  0  0  0.098477  1.012202  0  3.201968  0
B  B7  1  0.09372321  0.14242053  0.16628877  1  0  1.195167  0  2.844444  0  0  1.041033  0  3.173249  0  0  1.082038  0  3.132054  0  0  0.098461  1.01217  0  3.20192  0
H  H8  1  0.67919676  0.69386853  0.42781617  1  0  0.084339  0  0.993504  0  0  0.093922  0  1.060604  0  0  0.0976  0  1.057647  0  0  0.105496  0.091256  0  1.062843  0
H  H9  1  0.82076148  0.57217664  0.30612662  1  0  0.084346  0  0.993369  0  0  0.093985  0  1.060433  0  0  0.097667  0  1.05747  0  0  0.105451  0.091315  0  1.062662  0
H  H10  1  0.32078411  0.30611385  0.57217711  1  0  0.084272  0  0.993586  0  0  0.093844  0  1.060714  0  0  0.097522  0  1.057761  0  0  0.105444  0.091182  0  1.062951  0
H  H11  1  0.17921704  0.42780673  0.69387090  1  0  0.084324  0  0.993456  0  0  0.09398  0  1.060468  0  0  0.097659  0  1.057516  0  0  0.105487  0.091314  0  1.062692  0
H  H12  1  0.68464937  0.37866576  0.74552617  1  0  0.094743  0  0.968545  0  0  0.105237  0  1.031138  0  0  0.108515  0  1.028763  0  0  0.11079  0.102805  0  1.033025  0
H  H13  1  0.81534273  0.25448951  0.62135998  1  0  0.094745  0  0.968556  0  0  0.105232  0  1.031136  0  0  0.10851  0  1.028765  0  0  0.110789  0.102813  0  1.03304  0
H  H14  1  0.31534499  0.62133321  0.25448237  1  0  0.09479  0  0.968469  0  0  0.105285  0  1.031056  0  0  0.108565  0  1.028679  0  0  0.110807  0.102854  0  1.032949  0
H  H15  1  0.18466215  0.74550692  0.37865223  1  0  0.09483  0  0.968509  0  0  0.105314  0  1.031082  0  0  0.108593  0  1.028707  0  0  0.110799  0.102894  0  1.032979  0
H  H16  1  0.52995713  0.17613761  0.31283832  1  0  0.424773  0  0.883941  0  0  0.392364  0  0.94917  0  0  0.404504  0  0.931887  0  0  0.312804  0.383853  0  0.961256  0
H  H17  1  0.97004829  0.68715396  0.82385644  1  0  0.424744  0  0.883965  0  0  0.392366  0  0.949152  0  0  0.404512  0  0.931861  0  0  0.312798  0.383848  0  0.961245  0
H  H18  1  0.47004848  0.82386502  0.68715594  1  0  0.424812  0  0.883888  0  0  0.392378  0  0.949156  0  0  0.404521  0  0.931865  0  0  0.312793  0.383863  0  0.961251  0
H  H19  1  0.02994699  0.31284578  0.17614374  1  0  0.424746  0  0.883956  0  0  0.39235  0  0.949174  0  0  0.404495  0  0.931884  0  0  0.312777  0.383832  0  0.961262  0
H  H20  1  0.51433494  0.33916636  0.14566360  1  0  0.42716  0  0.88358  0  0  0.386487  0  0.96023  0  0  0.399732  0  0.941339  0  0  0.311642  0.37724  0  0.973379  0
H  H21  1  0.98566654  0.85433053  0.66082775  1  0  0.427104  0  0.883656  0  0  0.386479  0  0.960235  0  0  0.39974  0  0.941323  0  0  0.311609  0.377238  0  0.973382  0
H  H22  1  0.48566450  0.66084182  0.85433180  1  0  0.42708  0  0.8837  0  0  0.386418  0  0.960323  0  0  0.399664  0  0.941431  0  0  0.311651  0.377169  0  0.973477  0
H  H23  1  0.01433789  0.14566846  0.33917287  1  0  0.427125  0  0.883619  0  0  0.386502  0  0.960209  0  0  0.399747  0  0.941318  0  0  0.311626  0.37726  0  0.973357  0
H  H24  1  0.62761144  0.11926016  0.97978734  1  0  0.430759  0  0.850818  0  0  0.400604  0  0.920577  0  0  0.411506  0  0.904745  0  0  0.320429  0.39288  0  0.931767  0
H  H25  1  0.87239574  0.02020774  0.88074165  1  0  0.430816  0  0.850791  0  0  0.400635  0  0.920556  0  0  0.411547  0  0.90471  0  0  0.320443  0.39291  0  0.931751  0
H  H26  1  0.37239164  0.88074338  0.02020753  1  0  0.430767  0  0.850838  0  0  0.400592  0  0.920602  0  0  0.411499  0  0.904763  0  0  0.320426  0.392862  0  0.931797  0
H  H27  1  0.12761022  0.97979872  0.11925528  1  0  0.430817  0  0.850803  0  0  0.400624  0  0.920571  0  0  0.411533  0  0.904727  0  0  0.320451  0.392886  0  0.931781  0
H  H28  1  0.22435923  0.89235657  0.50556521  1  0  0.417167  0  0.888467  0  0  0.386822  0  0.952174  0  0  0.396685  0  0.937659  0  0  0.292427  0.379876  0  0.962375  0
H  H29  1  0.27564781  0.49443085  0.10763845  1  0  0.417153  0  0.888502  0  0  0.38675  0  0.952291  0  0  0.396623  0  0.937778  0  0  0.292367  0.379785  0  0.962517  0
H  H30  1  0.77564364  0.10763769  0.49443566  1  0  0.417296  0  0.888282  0  0  0.386896  0  0.952071  0  0  0.396764  0  0.937562  0  0  0.29246  0.379947  0  0.962276  0
H  H31  1  0.72436130  0.50557681  0.89236737  1  0  0.417292  0  0.888301  0  0  0.386898  0  0.952058  0  0  0.396768  0  0.937553  0  0  0.292466  0.379936  0  0.962278  0
H  H32  1  0.22451824  0.00815159  0.39168732  1  0  0.42209  0  0.880759  0  0  0.394205  0  0.938992  0  0  0.404064  0  0.924347  0  0  0.296538  0.387259  0  0.949301  0
H  H33  1  0.27548631  0.60831877  0.99185015  1  0  0.422102  0  0.880729  0  0  0.394198  0  0.939001  0  0  0.404063  0  0.924349  0  0  0.296518  0.387238  0  0.949328  0
H  H34  1  0.77548065  0.99184165  0.60831371  1  0  0.422088  0  0.880765  0  0  0.394208  0  0.938986  0  0  0.404068  0  0.924341  0  0  0.296557  0.387259  0  0.949301  0
H  H35  1  0.72451487  0.39168964  0.00815344  1  0  0.422148  0  0.880685  0  0  0.394258  0  0.938922  0  0  0.404121  0  0.924272  0  0  0.29656  0.387297  0  0.949251  0
H  H36  1  0.55957748  0.78394845  0.17242494  1  0  0.410318  0  0.893845  0  0  0.383863  0  0.951326  0  0  0.393789  0  0.936796  0  0  0.286783  0.376828  0  0.961606  0
H  H37  1  0.94041914  0.82756964  0.21605457  1  0  0.410312  0  0.893845  0  0  0.383855  0  0.95133  0  0  0.393781  0  0.936799  0  0  0.286785  0.37682  0  0.961611  0
H  H38  1  0.44042455  0.21605794  0.82757191  1  0  0.410248  0  0.893949  0  0  0.383789  0  0.951437  0  0  0.393712  0  0.936913  0  0  0.286764  0.376753  0  0.961718  0
H  H39  1  0.05958673  0.17243126  0.78394651  1  0  0.410303  0  0.893861  0  0  0.383853  0  0.951335  0  0  0.393781  0  0.936801  0  0  0.286764  0.376816  0  0.961619  0
H  H40  1  0.56736672  0.93264572  0.13960029  1  0  0.414715  0  0.889804  0  0  0.385058  0  0.951898  0  0  0.395087  0  0.937214  0  0  0.295825  0.377969  0  0.96226  0
H  H41  1  0.93264260  0.86039924  0.06735757  1  0  0.414752  0  0.889767  0  0  0.385076  0  0.951892  0  0  0.395107  0  0.937205  0  0  0.29581  0.377989  0  0.962248  0
H  H42  1  0.43263536  0.06735977  0.86039860  1  0  0.414766  0  0.889735  0  0  0.385098  0  0.951848  0  0  0.395128  0  0.937163  0  0  0.295838  0.378008  0  0.962211  0
H  H43  1  0.06736207  0.13960537  0.93264162  1  0  0.414757  0  0.889769  0  0  0.385077  0  0.951896  0  0  0.395105  0  0.937213  0  0  0.295817  0.377988  0  0.962253  0
H  H44  1  0.92241488  0.95274249  0.32755452  1  0  0.419219  0  0.886927  0  0  0.389135  0  0.94824  0  0  0.399371  0  0.933246  0  0  0.296634  0.381935  0  0.958779  0
H  H45  1  0.57758896  0.67244732  0.04725392  1  0  0.419233  0  0.886893  0  0  0.389157  0  0.948198  0  0  0.399396  0  0.933199  0  0  0.29662  0.381953  0  0.958738  0
H  H46  1  0.07759070  0.04725370  0.67244594  1  0  0.419225  0  0.886916  0  0  0.389144  0  0.948227  0  0  0.399377  0  0.933237  0  0  0.296628  0.381944  0  0.958765  0
H  H47  1  0.42241561  0.32755816  0.95274232  1  0  0.419281  0  0.886832  0  0  0.389141  0  0.948234  0  0  0.399381  0  0.933236  0  0  0.29661  0.381934  0  0.95878  0
H  H48  1  0.92624264  0.82682182  0.42959576  1  0  0.413821  0  0.892331  0  0  0.38072  0  0.960464  0  0  0.390812  0  0.945781  0  0  0.291463  0.373631  0  0.970767  0
H  H49  1  0.57376516  0.57040327  0.17317299  1  0  0.413893  0  0.892257  0  0  0.380796  0  0.960386  0  0  0.390873  0  0.945725  0  0  0.291461  0.373699  0  0.9707  0
H  H50  1  0.07375919  0.17317437  0.57040824  1  0  0.413904  0  0.892238  0  0  0.380802  0  0.960386  0  0  0.39088  0  0.945722  0  0  0.291471  0.373714  0  0.97069  0
H  H51  1  0.42623547  0.42960214  0.82682316  1  0  0.413791  0  0.892383  0  0  0.380678  0  0.960538  0  0  0.390757  0  0.945875  0  0  0.291407  0.373581  0  0.970851  0
C  C52  1  0.59081078  0.62559325  0.66603212  1  0  0.671258  0  3.854097  0  0  0.612646  0  4.158374  0  0  0.646467  0  4.150432  0  0  0.227324  0.589791  0  4.163009  0
C  C53  1  0.90916632  0.33395740  0.37442967  1  0  0.671366  0  3.853406  0  0  0.612716  0  4.157799  0  0  0.646504  0  4.149892  0  0  0.227252  0.589866  0  4.162421  0
C  C54  1  0.40920028  0.37440957  0.33396588  1  0  0.671447  0  3.853965  0  0  0.612819  0  4.158291  0  0  0.64665  0  4.15033  0  0  0.227379  0.589961  0  4.162928  0
C  C55  1  0.09082073  0.66602825  0.62557843  1  0  0.67107  0  3.853708  0  0  0.612497  0  4.158002  0  0  0.646314  0  4.150087  0  0  0.227279  0.589635  0  4.162632  0
C  C56  1  0.67304760  0.54622981  0.59516476  1  0  -0.067243  0  3.757455  0  0  -0.045983  0  3.993029  0  0  -0.052623  0  4.015959  0  0  -0.014082  -0.041631  0  3.977525  0
C  C57  1  0.82691533  0.40483288  0.45377641  1  0  -0.067112  0  3.757174  0  0  -0.045926  0  3.992894  0  0  -0.052556  0  4.015826  0  0  -0.014151  -0.041573  0  3.977392  0
C  C58  1  0.32695941  0.45376738  0.40483730  1  0  -0.067146  0  3.757224  0  0  -0.045933  0  3.992879  0  0  -0.052573  0  4.015806  0  0  -0.014122  -0.041582  0  3.977377  0
C  C59  1  0.17305565  0.59515047  0.54622727  1  0  -0.066984  0  3.757073  0  0  -0.045808  0  3.992767  0  0  -0.052419  0  4.01568  0  0  -0.014088  -0.041458  0  3.977266  0
C  C60  1  0.71078541  0.59829376  0.47070274  1  0  -0.064836  0  3.747327  0  0  -0.088785  0  3.994529  0  0  -0.090412  0  4.016327  0  0  -0.080638  -0.087593  0  3.979737  0
C  C61  1  0.78917890  0.52929189  0.40171381  1  0  -0.06496  0  3.747432  0  0  -0.088934  0  3.994633  0  0  -0.090565  0  4.016435  0  0  -0.080622  -0.087745  0  3.979878  0
C  C62  1  0.28920543  0.40169742  0.52929677  1  0  -0.064751  0  3.74731  0  0  -0.088668  0  3.994499  0  0  -0.0903  0  4.016309  0  0  -0.08055  -0.087477  0  3.979714  0
C  C63  1  0.21079587  0.47069240  0.59828610  1  0  -0.065  0  3.747596  0  0  -0.088971  0  3.994789  0  0  -0.090612  0  4.016603  0  0  -0.080703  -0.087784  0  3.980031  0
C  C64  1  0.71254049  0.42160028  0.64873620  1  0  -0.0687  0  3.717304  0  0  -0.092527  0  3.968434  0  0  -0.093452  0  3.98883  0  0  -0.074457  -0.091748  0  3.9545  0
C  C65  1  0.78742318  0.35126635  0.57841373  1  0  -0.068829  0  3.717033  0  0  -0.092595  0  3.968178  0  0  -0.093544  0  3.98863  0  0  -0.074448  -0.091839  0  3.954261  0
C  C66  1  0.28745627  0.57839589  0.35127130  1  0  -0.06874  0  3.717154  0  0  -0.092534  0  3.968274  0  0  -0.093466  0  3.988679  0  0  -0.074443  -0.091758  0  3.954342  0
C  C67  1  0.21256013  0.64872390  0.42159308  1  0  -0.068983  0  3.716913  0  0  -0.092753  0  3.968069  0  0  -0.093708  0  3.988523  0  0  -0.074473  -0.091988  0  3.954144  0
O  O68  1  0.56129097  0.73766887  0.61224332  1  0  -0.633793  0  1.961011  0  0  -0.580848  0  2.191082  0  0  -0.605201  0  2.181622  0  0  -0.315253  -0.563974  0  2.197081  0
O  O69  1  0.93869928  0.38775411  0.26234406  1  0  -0.633823  0  1.96028  0  0  -0.580861  0  2.190361  0  0  -0.605207  0  2.18092  0  0  -0.315178  -0.563969  0  2.196338  0
O  O70  1  0.43871708  0.26233373  0.38774737  1  0  -0.633817  0  1.961001  0  0  -0.580855  0  2.191055  0  0  -0.605208  0  2.181593  0  0  -0.315206  -0.564004  0  2.197105  0
O  O71  1  0.06129595  0.61223458  0.73766712  1  0  -0.633767  0  1.960534  0  0  -0.580853  0  2.190588  0  0  -0.605191  0  2.181129  0  0  -0.31529  -0.563964  0  2.196586  0
O  O72  1  0.55386172  0.57468904  0.78055770  1  0  -0.672022  0  2.065387  0  0  -0.591923  0  2.27868  0  0  -0.619357  0  2.267401  0  0  -0.306267  -0.572852  0  2.285948  0
O  O73  1  0.94612683  0.21944388  0.42532934  1  0  -0.672058  0  2.065469  0  0  -0.591963  0  2.278776  0  0  -0.619384  0  2.26751  0  0  -0.306231  -0.572923  0  2.286076  0
O  O74  1  0.44614456  0.42531940  0.21944330  1  0  -0.672166  0  2.065457  0  0  -0.592094  0  2.278804  0  0  -0.619531  0  2.267516  0  0  -0.306318  -0.573024  0  2.286085  0
O  O75  1  0.05387112  0.78054582  0.57468257  1  0  -0.67186  0  2.065367  0  0  -0.591846  0  2.278662  0  0  -0.619381  0  2.267482  0  0  -0.306225  -0.572811  0  2.285988  0
O  O76  1  0.57957712  0.11718649  0.26779816  1  0  -0.880714  0  1.964828  0  0  -0.801776  0  2.193769  0  0  -0.825971  0  2.162649  0  0  -0.428444  -0.784726  0  2.215038  0
O  O77  1  0.92044663  0.73219827  0.88281121  1  0  -0.880605  0  1.965067  0  0  -0.801664  0  2.19398  0  0  -0.825853  0  2.162882  0  0  -0.428379  -0.784615  0  2.215217  0
O  O78  1  0.42043265  0.88281816  0.73219844  1  0  -0.880623  0  1.964899  0  0  -0.801658  0  2.193855  0  0  -0.825847  0  2.162753  0  0  -0.428362  -0.784611  0  2.215107  0
O  O79  1  0.07955147  0.26780713  0.11718669  1  0  -0.880603  0  1.96501  0  0  -0.80166  0  2.19395  0  0  -0.825844  0  2.16286  0  0  -0.428407  -0.78461  0  2.215187  0
O  O80  1  0.55664690  0.28922076  0.08594590  1  0  -0.873898  0  2.06189  0  0  -0.770759  0  2.271686  0  0  -0.797509  0  2.240462  0  0  -0.359857  -0.752044  0  2.293055  0
O  O81  1  0.94335190  0.91404834  0.71077367  1  0  -0.873776  0  2.061898  0  0  -0.770715  0  2.27169  0  0  -0.797401  0  2.24042  0  0  -0.35981  -0.751997  0  2.293021  0
O  O82  1  0.44334975  0.71078363  0.91405040  1  0  -0.873722  0  2.062022  0  0  -0.770614  0  2.271846  0  0  -0.797357  0  2.240632  0  0  -0.359821  -0.751902  0  2.293203  0
O  O83  1  0.05664978  0.08595422  0.28922050  1  0  -0.873745  0  2.06194  0  0  -0.770709  0  2.271726  0  0  -0.797404  0  2.240502  0  0  -0.359798  -0.751996  0  2.293049  0
O  O84  1  0.64861578  0.08929068  0.07202701  1  0  -0.823072  0  1.965699  0  0  -0.73613  0  2.178353  0  0  -0.760286  0  2.148366  0  0  -0.360666  -0.719107  0  2.198975  0
O  O85  1  0.85138807  0.92796507  0.91070430  1  0  -0.823124  0  1.965655  0  0  -0.736167  0  2.178356  0  0  -0.76028  0  2.148315  0  0  -0.360676  -0.71913  0  2.198918  0
O  O86  1  0.35138213  0.91071463  0.92796727  1  0  -0.823096  0  1.96574  0  0  -0.736111  0  2.178361  0  0  -0.760258  0  2.148382  0  0  -0.36068  -0.719076  0  2.198984  0
O  O87  1  0.14862044  0.07204049  0.08929203  1  0  -0.823161  0  1.965763  0  0  -0.736101  0  2.178325  0  0  -0.760239  0  2.148365  0  0  -0.36065  -0.719066  0  2.198933  0
O  O88  1  0.30234064  0.96033343  0.45899974  1  0  -0.910326  0  1.782054  0  0  -0.869154  0  1.96307  0  0  -0.884976  0  1.930563  0  0  -0.69994  -0.857853  0  1.985726  0
O  O89  1  0.19765911  0.54100152  0.03967098  1  0  -0.910284  0  1.782001  0  0  -0.869079  0  1.963138  0  0  -0.884917  0  1.930526  0  0  -0.699893  -0.857784  0  1.985828  0
O  O90  1  0.69765674  0.03966062  0.54099649  1  0  -0.910441  0  1.78185  0  0  -0.869262  0  1.96299  0  0  -0.885095  0  1.930403  0  0  -0.700029  -0.857953  0  1.985656  0
O  O91  1  0.80234226  0.45900605  0.96033738  1  0  -0.910447  0  1.781841  0  0  -0.869252  0  1.963028  0  0  -0.885099  0  1.930424  0  0  -0.700027  -0.857962  0  1.985717  0
O  O92  1  0.49337255  0.85696698  0.17689244  1  0  -0.859388  0  1.776238  0  0  -0.810188  0  1.926824  0  0  -0.828887  0  1.896785  0  0  -0.608074  -0.796885  0  1.947759  0
O  O93  1  0.00663644  0.82311533  0.14303616  1  0  -0.859409  0  1.776229  0  0  -0.810205  0  1.926844  0  0  -0.828905  0  1.8968  0  0  -0.608048  -0.796903  0  1.947776  0
O  O94  1  0.50663197  0.14303848  0.82310289  1  0  -0.859376  0  1.776277  0  0  -0.810178  0  1.926868  0  0  -0.828879  0  1.896832  0  0  -0.608082  -0.796874  0  1.947805  0
O  O95  1  0.99336807  0.17688553  0.85696398  1  0  -0.859372  0  1.776255  0  0  -0.810174  0  1.926869  0  0  -0.828875  0  1.896828  0  0  -0.608031  -0.796871  0  1.947805  0
O  O96  1  0.86041057  0.86851148  0.35162716  1  0  -0.87213  0  1.832593  0  0  -0.820495  0  2.007961  0  0  -0.838821  0  1.976115  0  0  -0.631555  -0.807436  0  2.030015  0
O  O97  1  0.63959561  0.64837323  0.13148562  1  0  -0.872222  0  1.832459  0  0  -0.820623  0  2.007826  0  0  -0.838949  0  1.975992  0  0  -0.631603  -0.807572  0  2.029878  0
O  O98  1  0.13959867  0.13148283  0.64837024  1  0  -0.872215  0  1.832471  0  0  -0.82061  0  2.007819  0  0  -0.838942  0  1.976003  0  0  -0.631571  -0.807556  0  2.029875  0
O  O99  1  0.36040516  0.35163224  0.86851325  1  0  -0.872117  0  1.832511  0  0  -0.82048  0  2.007986  0  0  -0.838789  0  1.976116  0  0  -0.631521  -0.80742  0  2.030028  0
