# generated using pymatgen
data_CdH8C12(NO3)2
_symmetry_space_group_name_H-M   'P 1'
_cell_length_a   7.70267882
_cell_length_b   9.73606239
_cell_length_c   9.51872448
_cell_angle_alpha   84.94936211
_cell_angle_beta   113.86581565
_cell_angle_gamma   89.97027004
_symmetry_Int_Tables_number   1
_chemical_formula_structural   CdH8C12(NO3)2
_chemical_formula_sum   'Cd2 H16 C24 N4 O12'
_cell_volume   649.76144236
_cell_formula_units_Z   2
loop_
 _symmetry_equiv_pos_site_id
 _symmetry_equiv_pos_as_xyz
  1  'x, y, z'
loop_
 _atom_site_type_symbol
 _atom_site_label
 _atom_site_symmetry_multiplicity
 _atom_site_fract_x
 _atom_site_fract_y
 _atom_site_fract_z
 _atom_site_occupancy
 _atom_site_hle17_bader_spin_density
 _atom_site_hle17_ddec_charge
 _atom_site_hle17_ddec_spin_density
 _atom_site_hle17_ddec_sum_bond_order
 _atom_site_hle17_magmom
 _atom_site_hse06_10hf_bader_spin_density
 _atom_site_hse06_10hf_ddec_charge
 _atom_site_hse06_10hf_ddec_spin_density
 _atom_site_hse06_10hf_ddec_sum_bond_order
 _atom_site_hse06_10hf_magmom
 _atom_site_hse06_bader_spin_density
 _atom_site_hse06_ddec_charge
 _atom_site_hse06_ddec_spin_density
 _atom_site_hse06_ddec_sum_bond_order
 _atom_site_hse06_magmom
 _atom_site_pbe_bader_spin_density
 _atom_site_pbe_cm5_charge
 _atom_site_pbe_ddec_charge
 _atom_site_pbe_ddec_spin_density
 _atom_site_pbe_ddec_sum_bond_order
 _atom_site_pbe_magmom
Cd  Cd0  1  0.32673438  0.95529993  0.49253940  1  0  1.163329  0  1.593237  0  0  0.970271  0  2.016753  0  0  1.031961  0  1.964108  0  0  0.788742  0.926801  0  2.052593  0
Cd  Cd1  1  0.83404396  0.04476606  0.50720364  1  0  1.163781  0  1.592216  0  0  0.970531  0  2.016156  0  0  1.032359  0  1.96333  0  0  0.789002  0.927013  0  2.051859  0
H  H2  1  0.82875928  0.54093405  0.69686222  1  0  0.371576  0  0.914763  0  0  0.345328  0  0.988155  0  0  0.357272  0  0.975855  0  0  0.297807  0.336974  0  0.996565  0
H  H3  1  0.13073898  0.45952626  0.30326636  1  0  0.373078  0  0.914498  0  0  0.346186  0  0.98879  0  0  0.35814  0  0.97646  0  0  0.297967  0.337778  0  0.997342  0
H  H4  1  0.35604513  0.80784708  0.86749876  1  0  0.386773  0  0.836702  0  0  0.366307  0  0.903687  0  0  0.373937  0  0.895981  0  0  0.322603  0.360756  0  0.909297  0
H  H5  1  0.48822991  0.19216716  0.13253996  1  0  0.387612  0  0.835747  0  0  0.366996  0  0.902939  0  0  0.374712  0  0.89507  0  0  0.32291  0.361527  0  0.908434  0
H  H6  1  0.47865487  0.33569255  0.77225803  1  0  0.133874  0  0.948085  0  0  0.140792  0  1.011092  0  0  0.145199  0  1.007605  0  0  0.112509  0.13757  0  1.01388  0
H  H7  1  0.70514774  0.66457767  0.22845380  1  0  0.134275  0  0.947941  0  0  0.14068  0  1.011437  0  0  0.145077  0  1.007979  0  0  0.112624  0.137409  0  1.014304  0
H  H8  1  0.15906055  0.44909446  0.70342643  1  0  0.104338  0  0.933967  0  0  0.117241  0  0.987132  0  0  0.119915  0  0.986976  0  0  0.108501  0.115247  0  0.987495  0
H  H9  1  0.45421347  0.55081668  0.29668804  1  0  0.104844  0  0.933432  0  0  0.117348  0  0.987019  0  0  0.12  0  0.986943  0  0  0.108864  0.115235  0  0.987506  0
H  H10  1  0.09575761  0.69477901  0.58698689  1  0  0.100917  0  0.964822  0  0  0.106456  0  1.03287  0  0  0.109985  0  1.029247  0  0  0.113716  0.10355  0  1.036052  0
H  H11  1  0.50765772  0.30500567  0.41266099  1  0  0.100102  0  0.966018  0  0  0.106233  0  1.033187  0  0  0.109756  0  1.029597  0  0  0.113732  0.103324  0  1.036489  0
H  H12  1  0.05808627  0.75741262  0.83943809  1  0  0.124244  0  0.98562  0  0  0.130834  0  1.051704  0  0  0.134814  0  1.048621  0  0  0.108855  0.127924  0  1.05409  0
H  H13  1  0.21804092  0.24204747  0.16058720  1  0  0.124411  0  0.985025  0  0  0.131013  0  1.051186  0  0  0.134938  0  1.048201  0  0  0.10907  0.128293  0  1.05327  0
H  H14  1  0.82220124  0.77492165  0.95729550  1  0  0.108787  0  0.926766  0  0  0.12168  0  0.978294  0  0  0.124512  0  0.977279  0  0  0.112735  0.1195  0  0.97939  0
H  H15  1  0.86443040  0.22423631  0.04255621  1  0  0.108501  0  0.927282  0  0  0.121723  0  0.978416  0  0  0.124574  0  0.977406  0  0  0.112767  0.119627  0  0.979532  0
H  H16  1  0.93025038  0.85280595  0.22235679  1  0  0.097996  0  0.94657  0  0  0.107368  0  1.009489  0  0  0.110117  0  1.006484  0  0  0.119215  0.105223  0  1.011896  0
H  H17  1  0.70782841  0.14675874  0.77726614  1  0  0.098322  0  0.94669  0  0  0.107536  0  1.009835  0  0  0.110336  0  1.006762  0  0  0.119203  0.105511  0  1.01214  0
C  C18  1  0.54442732  0.66138630  0.64056701  1  0  -0.068229  0  3.781643  0  0  -0.066012  0  4.026121  0  0  -0.072045  0  4.048274  0  0  0.078484  -0.062242  0  4.011266  0
C  C19  1  0.90298009  0.33885038  0.35959329  1  0  -0.066937  0  3.78106  0  0  -0.064567  0  4.024987  0  0  -0.070607  0  4.047168  0  0  0.078607  -0.060897  0  4.010486  0
C  C20  1  0.58865995  0.52095912  0.69914855  1  0  0.298138  0  3.814574  0  0  0.286534  0  4.075201  0  0  0.29758  0  4.092325  0  0  0.096648  0.278964  0  4.063599  0
C  C21  1  0.88841721  0.47933877  0.30123656  1  0  0.297965  0  3.814993  0  0  0.286804  0  4.074838  0  0  0.297858  0  4.091929  0  0  0.097317  0.279196  0  4.062962  0
C  C22  1  0.44838986  0.44355747  0.72519673  1  0  -0.124018  0  3.655584  0  0  -0.149656  0  3.909888  0  0  -0.151258  0  3.925112  0  0  -0.078948  -0.148609  0  3.89977  0
C  C23  1  0.72198468  0.55666332  0.27530185  1  0  -0.123788  0  3.654268  0  0  -0.149059  0  3.908405  0  0  -0.150653  0  3.923568  0  0  -0.079005  -0.14801  0  3.898275  0
C  C24  1  0.27129452  0.50647297  0.68576279  1  0  -0.073585  0  3.726434  0  0  -0.091606  0  3.990411  0  0  -0.093199  0  4.007798  0  0  -0.079688  -0.090619  0  3.978634  0
C  C25  1  0.58429027  0.49355187  0.31441225  1  0  -0.074602  0  3.725203  0  0  -0.092638  0  3.989107  0  0  -0.094265  0  4.006544  0  0  -0.080739  -0.091555  0  3.977542  0
C  C26  1  0.23486908  0.64422154  0.62121698  1  0  0.093243  0  3.713126  0  0  0.051438  0  3.989175  0  0  0.058419  0  4.002655  0  0  0.025685  0.046907  0  3.979927  0
C  C27  1  0.61258068  0.35572098  0.37870203  1  0  0.095372  0  3.713129  0  0  0.054047  0  3.987314  0  0  0.060966  0  4.000942  0  0  0.026471  0.049204  0  3.978623  0
C  C28  1  0.69390649  0.75108286  0.62494244  1  0  0.634636  0  3.914064  0  0  0.575585  0  4.219236  0  0  0.611009  0  4.21173  0  0  0.204899  0.551596  0  4.223469  0
C  C29  1  0.06824529  0.24926260  0.37505753  1  0  0.633731  0  3.912573  0  0  0.574347  0  4.217748  0  0  0.609759  0  4.210362  0  0  0.204578  0.550228  0  4.222669  0
C  C30  1  0.33704752  0.87514296  0.18249425  1  0  -0.019471  0  3.70886  0  0  -0.018937  0  3.951421  0  0  -0.022868  0  3.973068  0  0  0.090631  -0.016419  0  3.937144  0
C  C31  1  0.15462019  0.12481992  0.81739310  1  0  -0.020268  0  3.711614  0  0  -0.019539  0  3.953841  0  0  -0.02345  0  3.975526  0  0  0.090618  -0.017062  0  3.939351  0
C  C32  1  0.28951077  0.82506695  0.03803960  1  0  0.281661  0  3.801964  0  0  0.267789  0  4.069724  0  0  0.276696  0  4.086727  0  0  0.091974  0.26149  0  4.058417  0
C  C33  1  0.25124837  0.17479834  0.96194071  1  0  0.281627  0  3.803106  0  0  0.26822  0  4.070172  0  0  0.277229  0  4.087088  0  0  0.092245  0.261992  0  4.058722  0
C  C34  1  0.10101729  0.78943235  0.95542798  1  0  -0.150196  0  3.699811  0  0  -0.178061  0  3.956843  0  0  -0.179393  0  3.973205  0  0  -0.086337  -0.177242  0  3.946318  0
C  C35  1  0.14520729  0.21013130  0.04454265  1  0  -0.150939  0  3.699402  0  0  -0.179205  0  3.956721  0  0  -0.180548  0  3.973139  0  0  -0.086818  -0.178179  0  3.945702  0
C  C36  1  0.96996634  0.80003103  0.01979384  1  0  -0.048058  0  3.703087  0  0  -0.064506  0  3.963077  0  0  -0.065789  0  3.979023  0  0  -0.070426  -0.063812  0  3.952634  0
C  C37  1  0.94983496  0.19939206  0.98007326  1  0  -0.048369  0  3.703063  0  0  -0.065001  0  3.962859  0  0  -0.066276  0  3.978811  0  0  -0.071081  -0.064379  0  3.952298  0
C  C38  1  0.02866080  0.84431746  0.16719797  1  0  0.128591  0  3.69645  0  0  0.087336  0  3.965076  0  0  0.094747  0  3.980706  0  0  0.044361  0.082296  0  3.954506  0
C  C39  1  0.86136840  0.15533435  0.83253780  1  0  0.127653  0  3.696012  0  0  0.086377  0  3.964745  0  0  0.093765  0  3.980363  0  0  0.044115  0.081512  0  3.954035  0
C  C40  1  0.52158578  0.93922124  0.27213055  1  0  0.620038  0  3.931061  0  0  0.565715  0  4.227091  0  0  0.600949  0  4.219998  0  0  0.194033  0.541643  0  4.230916  0
C  C41  1  0.24978778  0.06095761  0.72774984  1  0  0.620215  0  3.929578  0  0  0.565795  0  4.225948  0  0  0.600931  0  4.21895  0  0  0.193098  0.541577  0  4.230012  0
N  N42  1  0.37027167  0.71914297  0.60182907  1  0  -0.331822  0  3.330996  0  0  -0.26499  0  3.596015  0  0  -0.28098  0  3.616662  0  0  -0.329072  -0.25336  0  3.581356  0
N  N43  1  0.76756854  0.28091764  0.39810817  1  0  -0.333545  0  3.332061  0  0  -0.267069  0  3.597607  0  0  -0.283163  0  3.618285  0  0  -0.32955  -0.255783  0  3.583329  0
N  N44  1  0.20645750  0.88157129  0.24394184  1  0  -0.337651  0  3.310544  0  0  -0.268736  0  3.578361  0  0  -0.287926  0  3.601085  0  0  -0.327097  -0.25548  0  3.562518  0
N  N45  1  0.96261356  0.11826460  0.75584336  1  0  -0.336244  0  3.311611  0  0  -0.267347  0  3.579177  0  0  -0.286491  0  3.601905  0  0  -0.326276  -0.253935  0  3.563447  0
O  O46  1  0.66161173  0.88196105  0.60372928  1  0  -0.654212  0  2.091688  0  0  -0.576396  0  2.355998  0  0  -0.609185  0  2.344749  0  0  -0.321635  -0.553615  0  2.362726  0
O  O47  1  0.05750685  0.11835229  0.39624387  1  0  -0.654173  0  2.091423  0  0  -0.575929  0  2.355572  0  0  -0.60879  0  2.344447  0  0  -0.321964  -0.553345  0  2.362429  0
O  O48  1  0.84727318  0.69178326  0.63764082  1  0  -0.593823  0  2.00389  0  0  -0.537722  0  2.227355  0  0  -0.562263  0  2.218558  0  0  -0.300291  -0.520595  0  2.233068  0
O  O49  1  0.20863211  0.30861840  0.36208781  1  0  -0.593154  0  2.00214  0  0  -0.536699  0  2.225995  0  0  -0.561167  0  2.217071  0  0  -0.299826  -0.519904  0  2.232242  0
O  O50  1  0.76010155  0.46314468  0.73089731  1  0  -0.501773  0  2.116803  0  0  -0.453737  0  2.323153  0  0  -0.475943  0  2.31869  0  0  -0.342609  -0.438045  0  2.32589  0
O  O51  1  0.02798646  0.53730758  0.26957595  1  0  -0.503224  0  2.118629  0  0  -0.45499  0  2.325466  0  0  -0.477221  0  2.320993  0  0  -0.343045  -0.439166  0  2.32816  0
O  O52  1  0.50412789  0.04539129  0.33960456  1  0  -0.687814  0  2.069905  0  0  -0.612828  0  2.32748  0  0  -0.645201  0  2.316566  0  0  -0.336353  -0.589613  0  2.334018  0
O  O53  1  0.16525976  0.95466331  0.66037036  1  0  -0.688036  0  2.068331  0  0  -0.612978  0  2.325568  0  0  -0.645462  0  2.315002  0  0  -0.336214  -0.589902  0  2.332363  0
O  O54  1  0.67948192  0.89207272  0.28438918  1  0  -0.578441  0  1.931046  0  0  -0.523498  0  2.158353  0  0  -0.549657  0  2.148383  0  0  -0.300034  -0.504897  0  2.164349  0
O  O55  1  0.39511372  0.10842795  0.71534461  1  0  -0.577891  0  1.929486  0  0  -0.523157  0  2.157032  0  0  -0.549337  0  2.147169  0  0  -0.299657  -0.504898  0  2.163475  0
O  O56  1  0.42188616  0.81902407  0.97801196  1  0  -0.47945  0  2.093299  0  0  -0.434405  0  2.296237  0  0  -0.451755  0  2.289875  0  0  -0.338867  -0.42179  0  2.300463  0
O  O57  1  0.44360574  0.18095917  0.02204542  1  0  -0.479915  0  2.092479  0  0  -0.435243  0  2.295782  0  0  -0.452621  0  2.289122  0  0  -0.339057  -0.422511  0  2.299832  0
