# generated using pymatgen
data_Zn2H10C15N8O5
_symmetry_space_group_name_H-M   'P 1'
_cell_length_a   11.02289801
_cell_length_b   11.80601789
_cell_length_c   17.42059690
_cell_angle_alpha   100.00051448
_cell_angle_beta   89.97157451
_cell_angle_gamma   117.80778595
_symmetry_Int_Tables_number   1
_chemical_formula_structural   Zn2H10C15N8O5
_chemical_formula_sum   'Zn8 H40 C60 N32 O20'
_cell_volume   1966.32939107
_cell_formula_units_Z   4
loop_
 _symmetry_equiv_pos_site_id
 _symmetry_equiv_pos_as_xyz
  1  'x, y, z'
loop_
 _atom_site_type_symbol
 _atom_site_label
 _atom_site_symmetry_multiplicity
 _atom_site_fract_x
 _atom_site_fract_y
 _atom_site_fract_z
 _atom_site_occupancy
 _atom_site_pbe_bader_charge
 _atom_site_pbe_bader_spin_density
 _atom_site_pbe_cm5_charge
 _atom_site_pbe_ddec_charge
 _atom_site_pbe_ddec_spin_density
 _atom_site_pbe_ddec_sum_bond_order
 _atom_site_pbe_magmom
Zn  Zn0  1  0.08525558  0.90223362  0.64053519  1  1.306628  0  0.716159  0.836686  0  2.366534  0
Zn  Zn1  1  0.18343690  0.09807878  0.85921422  1  1.303866  0  0.716892  0.836388  0  2.368054  0
Zn  Zn2  1  0.91474632  0.09776397  0.35946484  1  1.306573  0  0.716131  0.836636  0  2.366564  0
Zn  Zn3  1  0.81656056  0.90192264  0.14078975  1  1.303841  0  0.716908  0.836335  0  2.368121  0
Zn  Zn4  1  0.82999099  0.53096845  0.32752333  1  1.252424  0  0.721211  0.725867  0  2.48886  0
Zn  Zn5  1  0.29897170  0.46857316  0.17256459  1  1.25145  0  0.721009  0.725242  0  2.491128  0
Zn  Zn6  1  0.17000596  0.46903014  0.67247625  1  1.252452  0  0.721221  0.725929  0  2.488827  0
Zn  Zn7  1  0.70102570  0.53142633  0.82743798  1  1.251376  0  0.721018  0.725266  0  2.491162  0
H  H8  1  0.10594376  0.54223888  0.46516888  1  0.087434  0  0.103925  0.102086  0  1.019742  0
H  H9  1  0.56401471  0.45744282  0.03451655  1  0.0872  0  0.103901  0.102142  0  1.019673  0
H  H10  1  0.89405941  0.45775582  0.53482964  1  0.0875  0  0.103943  0.102052  0  1.019759  0
H  H11  1  0.43597933  0.54254629  0.96547092  1  0.087277  0  0.103893  0.102107  0  1.019907  0
H  H12  1  0.34264404  0.59506830  0.43555917  1  0.101499  0  0.111874  0.119918  0  1.009808  0
H  H13  1  0.74800694  0.40476777  0.06415062  1  0.10749  0  0.111887  0.120395  0  1.009209  0
H  H14  1  0.65735608  0.40492936  0.56443857  1  0.101535  0  0.111865  0.119909  0  1.009825  0
H  H15  1  0.25198390  0.59522041  0.93583502  1  0.107336  0  0.111906  0.120401  0  1.00913  0
H  H16  1  0.42446421  0.98547088  0.41916522  1  0.058465  0  0.111182  0.119299  0  0.997577  0
H  H17  1  0.43983850  0.01447364  0.08084028  1  0.095874  0  0.111424  0.118946  0  0.998115  0
H  H18  1  0.57553212  0.01452284  0.58083317  1  0.058447  0  0.111217  0.119334  0  0.997488  0
H  H19  1  0.56015712  0.98552774  0.91916482  1  0.095967  0  0.11146  0.119001  0  0.998086  0
H  H20  1  0.18500894  0.92966130  0.44615862  1  0.113709  0  0.103891  0.113133  0  1.039549  0
H  H21  1  0.25611411  0.07011516  0.05384642  1  0.120932  0  0.103427  0.112433  0  1.039993  0
H  H22  1  0.81498927  0.07033436  0.55384059  1  0.113551  0  0.103871  0.113073  0  1.039559  0
H  H23  1  0.74387832  0.92988711  0.94616224  1  0.120915  0  0.10341  0.112424  0  1.039931  0
H  H24  1  0.57478656  0.70546357  0.48033491  1  0.151281  0  0.132819  0.135361  0  1.005655  0
H  H25  1  0.86999542  0.29407305  0.01950936  1  0.149082  0  0.132379  0.135073  0  1.005542  0
H  H26  1  0.42521807  0.29453404  0.51966455  1  0.151291  0  0.132793  0.135334  0  1.005733  0
H  H27  1  0.12999224  0.70591966  0.98049006  1  0.149102  0  0.132379  0.135041  0  1.005581  0
H  H28  1  0.59373579  0.98187349  0.34648216  1  0.189584  0  0.143974  0.122657  0  0.994309  0
H  H29  1  0.61222433  0.01837148  0.15369962  1  0.192447  0  0.144102  0.12243  0  0.995113  0
H  H30  1  0.40626745  0.01812315  0.65351717  1  0.190235  0  0.143981  0.122696  0  0.994192  0
H  H31  1  0.38777494  0.98162995  0.84630377  1  0.192464  0  0.144076  0.122419  0  0.995118  0
H  H32  1  0.13802308  0.64254482  0.23806837  1  0.128866  0  0.138692  0.105919  0  0.962934  0
H  H33  1  0.49530304  0.35694562  0.26180230  1  0.126733  0  0.138696  0.106416  0  0.963249  0
H  H34  1  0.86198395  0.35745761  0.76193400  1  0.12892  0  0.138709  0.105963  0  0.962881  0
H  H35  1  0.50470804  0.64305219  0.73818972  1  0.126757  0  0.138681  0.106385  0  0.96334  0
H  H36  1  0.84226337  0.85042418  0.44444267  1  0.114722  0  0.125757  0.13083  0  0.999705  0
H  H37  1  0.99233869  0.14907038  0.05574917  1  0.146971  0  0.125718  0.130797  0  0.998803  0
H  H38  1  0.15773731  0.14957824  0.55556027  1  0.114578  0  0.12579  0.130897  0  0.999627  0
H  H39  1  0.00765797  0.85093308  0.94425160  1  0.146912  0  0.12571  0.130787  0  0.998808  0
H  H40  1  0.97340372  0.08388774  0.65051109  1  0.644196  0  0.287009  0.376526  0  0.965586  0
H  H41  1  0.88922596  0.91667633  0.84930377  1  0.639417  0  0.286624  0.376243  0  0.966059  0
H  H42  1  0.02660145  0.91611278  0.34948932  1  0.644213  0  0.287036  0.376557  0  0.965552  0
H  H43  1  0.11076931  0.08332617  0.15069631  1  0.63939  0  0.286598  0.376224  0  0.966106  0
H  H44  1  0.87454724  0.93666103  0.64933701  1  0.615905  0  0.310469  0.393054  0  0.897724  0
H  H45  1  0.93793650  0.06396412  0.85051863  1  0.612529  0  0.310018  0.392659  0  0.898557  0
H  H46  1  0.12545800  0.06334143  0.35066422  1  0.615873  0  0.310483  0.393075  0  0.897677  0
H  H47  1  0.06205598  0.93603643  0.14948120  1  0.612165  0  0.310043  0.392697  0  0.898451  0
C  C48  1  0.99116422  0.70184920  0.48225619  1  0.984613  0  0.231413  0.265458  0  4.018564  0
C  C49  1  0.28974944  0.29787017  0.01771531  1  0.949752  0  0.230861  0.263769  0  4.019604  0
C  C50  1  0.00883446  0.29814739  0.51774487  1  0.984837  0  0.231457  0.265422  0  4.018599  0
C  C51  1  0.71024448  0.70213141  0.98228236  1  0.949436  0  0.230922  0.263725  0  4.019615  0
C  C52  1  0.12969469  0.73263739  0.45872998  1  0.00687  0  -0.005163  0.014633  0  4.002086  0
C  C53  1  0.39756382  0.26710491  0.04115577  1  0.004802  0  -0.004992  0.01489  0  4.003145  0
C  C54  1  0.87030139  0.26736126  0.54126732  1  0.006896  0  -0.00517  0.014607  0  4.002156  0
C  C55  1  0.60243193  0.73289855  0.95884501  1  0.005038  0  -0.005102  0.014838  0  4.003018  0
C  C56  1  0.17509158  0.63899712  0.45429016  1  -0.009244  0  -0.075607  -0.07402  0  3.945714  0
C  C57  1  0.53650129  0.36075213  0.04550243  1  -0.003305  0  -0.076291  -0.074989  0  3.947038  0
C  C58  1  0.82490712  0.36099951  0.54570918  1  -0.009063  0  -0.075634  -0.073923  0  3.945611  0
C  C59  1  0.46349263  0.63923494  0.95448823  1  -0.002972  0  -0.076239  -0.074942  0  3.947056  0
C  C60  1  0.30904900  0.66885043  0.43775119  1  0.038002  0  -0.082972  -0.148351  0  3.945353  0
C  C61  1  0.64071343  0.33103837  0.06206808  1  0.022687  0  -0.082515  -0.147334  0  3.944057  0
C  C62  1  0.69094602  0.33114430  0.56224618  1  0.037816  0  -0.082977  -0.148417  0  3.945315  0
C  C63  1  0.35928562  0.66895172  0.93791952  1  0.022559  0  -0.082692  -0.147533  0  3.944192  0
C  C64  1  0.39893639  0.79400759  0.42560952  1  0.273506  0  0.099864  0.173458  0  4.005558  0
C  C65  1  0.60560306  0.20595414  0.07431614  1  0.229423  0  0.099342  0.17075  0  4.008404  0
C  C66  1  0.60106583  0.20598521  0.57438646  1  0.273417  0  0.099929  0.173515  0  4.005489  0
C  C67  1  0.39439276  0.79403855  0.92568442  1  0.22949  0  0.099381  0.170879  0  4.008177  0
C  C68  1  0.35390130  0.88748611  0.42790632  1  -0.047118  0  -0.089519  -0.170444  0  3.980629  0
C  C69  1  0.46719527  0.11242262  0.07202958  1  -0.064604  0  -0.089249  -0.168625  0  3.980683  0
C  C70  1  0.64610190  0.11250863  0.57209048  1  -0.047179  0  -0.089527  -0.170512  0  3.980646  0
C  C71  1  0.53279944  0.88757691  0.92797127  1  -0.064656  0  -0.089272  -0.168801  0  3.980627  0
C  C72  1  0.21972546  0.85668751  0.44432666  1  0.02871  0  -0.081345  -0.088241  0  3.956991  0
C  C73  1  0.36374812  0.14310073  0.05559753  1  0.037951  0  -0.080681  -0.087657  0  3.956976  0
C  C74  1  0.78027600  0.14331102  0.55567522  1  0.028585  0  -0.081378  -0.088186  0  3.956989  0
C  C75  1  0.63624620  0.85690167  0.94440599  1  0.038013  0  -0.080522  -0.087423  0  3.956751  0
C  C76  1  0.61777450  0.78212289  0.44670840  1  0.279892  0  0.007514  -0.097858  0  3.883635  0
C  C77  1  0.83628874  0.21756746  0.05326988  1  0.32543  0  0.007821  -0.098689  0  3.882791  0
C  C78  1  0.38223004  0.21787090  0.55328713  1  0.279969  0  0.007615  -0.097787  0  3.883695  0
C  C79  1  0.16370304  0.78242622  0.94673023  1  0.325596  0  0.007846  -0.098667  0  3.882716  0
C  C80  1  0.62429023  0.92592892  0.37740373  1  0.977462  0  0.153131  0.117568  0  3.86777  0
C  C81  1  0.69885390  0.07416672  0.12277712  1  0.968583  0  0.152823  0.116704  0  3.868819  0
C  C82  1  0.37571362  0.07407258  0.62259680  1  0.976736  0  0.153053  0.117352  0  3.867799  0
C  C83  1  0.30114698  0.92584154  0.87722713  1  0.968713  0  0.152867  0.116653  0  3.868745  0
C  C84  1  0.81639047  0.28094758  0.31816020  1  1.587206  0  0.200776  0.565457  0  4.253724  0
C  C85  1  0.53510047  0.71876215  0.18199260  1  1.585442  0  0.199939  0.563784  0  4.252346  0
C  C86  1  0.18361209  0.71905678  0.68184356  1  1.587672  0  0.200858  0.565527  0  4.253704  0
C  C87  1  0.46489752  0.28124032  0.81800863  1  1.585568  0  0.19994  0.563792  0  4.252361  0
C  C88  1  0.94960205  0.36531430  0.28878045  1  0.403282  0  0.065054  -0.021978  0  3.978037  0
C  C89  1  0.58401893  0.63435378  0.21132333  1  0.424888  0  0.065011  -0.022551  0  3.976656  0
C  C90  1  0.05040376  0.63469111  0.71122057  1  0.403145  0  0.065087  -0.021924  0  3.978166  0
C  C91  1  0.41598784  0.36565357  0.78867851  1  0.42538  0  0.064989  -0.022535  0  3.976638  0
C  C92  1  0.05870830  0.34914501  0.25748147  1  0.411266  0  0.068122  -0.013452  0  3.98902  0
C  C93  1  0.70922339  0.65050959  0.24266126  1  0.394296  0  0.06859  -0.011809  0  3.988816  0
C  C94  1  0.94130024  0.65086042  0.74251840  1  0.411697  0  0.068207  -0.013368  0  3.988996  0
C  C95  1  0.29077682  0.34949188  0.75734042  1  0.393731  0  0.068623  -0.011923  0  3.988872  0
C  C96  1  0.09513777  0.24217322  0.24295765  1  1.574338  0  0.210742  0.568038  0  4.231814  0
C  C97  1  0.85247662  0.75756746  0.25725826  1  1.569509  0  0.210185  0.566121  0  4.234103  0
C  C98  1  0.90485877  0.75782818  0.75704688  1  1.57443  0  0.210706  0.567993  0  4.232  0
C  C99  1  0.14752759  0.24243113  0.74274132  1  1.569681  0  0.210297  0.566468  0  4.233877  0
C  C100  1  0.09145171  0.54419132  0.24964847  1  1.030197  0  0.147217  0.19009  0  3.95982  0
C  C101  1  0.54708180  0.45531737  0.25025815  1  1.016781  0  0.146977  0.188872  0  3.961677  0
C  C102  1  0.90855315  0.45581402  0.75035484  1  1.028209  0  0.147186  0.190087  0  3.959896  0
C  C103  1  0.45292754  0.54468057  0.74972872  1  1.016589  0  0.14694  0.188827  0  3.961766  0
C  C104  1  0.74953016  0.85391678  0.42846891  1  0.459954  0  0.00403  -0.015197  0  3.977166  0
C  C105  1  0.89612502  0.14573529  0.07168264  1  0.394298  0  0.005268  -0.013386  0  3.975044  0
C  C106  1  0.25047425  0.14608948  0.57153682  1  0.45977  0  0.003921  -0.015386  0  3.977108  0
C  C107  1  0.10387328  0.85426418  0.92832050  1  0.394209  0  0.005282  -0.01333  0  3.974986  0
N  N108  1  0.75210938  0.94276725  0.38528094  1  -1.237283  0  -0.357371  -0.288847  0  3.606283  0
N  N109  1  0.80975369  0.05714775  0.11498639  1  -1.248415  0  -0.358228  -0.289028  0  3.607786  0
N  N110  1  0.24789520  0.05722845  0.61471655  1  -1.23703  0  -0.35735  -0.288741  0  3.606355  0
N  N111  1  0.19023904  0.94284784  0.88501569  1  -1.248656  0  -0.35823  -0.289117  0  3.608185  0
N  N112  1  0.96489575  0.75611666  0.55021608  1  -0.773004  0  -0.241056  -0.27547  0  3.506727  0
N  N113  1  0.20933634  0.24387652  0.94975431  1  -0.757858  0  -0.240118  -0.273435  0  3.505379  0
N  N114  1  0.03510612  0.24388088  0.44978624  1  -0.772831  0  -0.241019  -0.275411  0  3.506699  0
N  N115  1  0.79065335  0.75612207  0.05024527  1  -0.757787  0  -0.240028  -0.2733  0  3.505236  0
N  N116  1  0.82587143  0.69637599  0.55202073  1  -0.115184  0  -0.096136  -0.07273  0  3.228902  0
N  N117  1  0.13008559  0.30371465  0.94809977  1  -0.117093  0  -0.096606  -0.073244  0  3.228154  0
N  N118  1  0.17412878  0.30362550  0.44798037  1  -0.115283  0  -0.096122  -0.07272  0  3.228945  0
N  N119  1  0.86991027  0.69629266  0.05190379  1  -0.116797  0  -0.096824  -0.073469  0  3.228047  0
N  N120  1  0.76945309  0.60994738  0.48761972  1  -0.110004  0  -0.092074  -0.077875  0  3.231718  0
N  N121  1  0.15998048  0.38996296  0.01258607  1  -0.090614  0  -0.091387  -0.077345  0  3.232146  0
N  N122  1  0.23054621  0.39005411  0.51238138  1  -0.110026  0  -0.092137  -0.077992  0  3.231893  0
N  N123  1  0.84002124  0.61004335  0.98741794  1  -0.090944  0  -0.091336  -0.077312  0  3.23196  0
N  N124  1  0.87051740  0.61104497  0.44255383  1  -0.777242  0  -0.241474  -0.255862  0  3.514909  0
N  N125  1  0.25984273  0.38865161  0.05755122  1  -0.77228  0  -0.242001  -0.256154  0  3.516728  0
N  N126  1  0.12948226  0.38895357  0.55744747  1  -0.777312  0  -0.241464  -0.255734  0  3.514872  0
N  N127  1  0.74015703  0.61135079  0.94245229  1  -0.772143  0  -0.241999  -0.256111  0  3.516682  0
N  N128  1  0.53913818  0.82923766  0.41427959  1  -1.276441  0  -0.219463  0.008145  0  3.787813  0
N  N129  1  0.71051583  0.17068650  0.08570606  1  -1.255135  0  -0.219271  0.010344  0  3.786483  0
N  N130  1  0.46086789  0.17076285  0.58572139  1  -1.276302  0  -0.219472  0.008262  0  3.78772  0
N  N131  1  0.28947350  0.82930047  0.91428861  1  -1.255425  0  -0.219274  0.010474  0  3.785866  0
N  N132  1  0.97346105  0.48892025  0.28305745  1  -1.253538  0  -0.368632  -0.322345  0  3.620331  0
N  N133  1  0.48438305  0.51068410  0.21694838  1  -1.255315  0  -0.368174  -0.320837  0  3.620273  0
N  N134  1  0.02654243  0.51108413  0.71694516  1  -1.253466  0  -0.368621  -0.322422  0  3.620496  0
N  N135  1  0.51562512  0.48932423  0.78305301  1  -1.255372  0  -0.368152  -0.320848  0  3.620412  0
N  N136  1  0.14539073  0.46271452  0.23266110  1  -1.246936  0  -0.365564  -0.311616  0  3.609511  0
N  N137  1  0.68237541  0.53686724  0.26738217  1  -1.223817  0  -0.365856  -0.312247  0  3.611244  0
N  N138  1  0.85461872  0.53729275  0.76734360  1  -1.245256  0  -0.365619  -0.311744  0  3.609582  0
N  N139  1  0.31763014  0.46313042  0.73261557  1  -1.223639  0  -0.365808  -0.312147  0  3.611292  0
O  O140  1  0.73590375  0.33014224  0.33355223  1  -1.160742  0  -0.332008  -0.530404  0  2.217282  0
O  O141  1  0.40547267  0.66951473  0.16660752  1  -1.162822  0  -0.331704  -0.53019  0  2.215862  0
O  O142  1  0.26409375  0.66985925  0.66644887  1  -1.161171  0  -0.332207  -0.530601  0  2.217214  0
O  O143  1  0.59453047  0.33049262  0.83339432  1  -1.162832  0  -0.331748  -0.530221  0  2.215831  0
O  O144  1  0.93921734  0.99489403  0.61789846  1  -1.244634  0  -0.575031  -0.742451  0  2.054678  0
O  O145  1  0.94392970  0.00557764  0.88198245  1  -1.238092  0  -0.575029  -0.743049  0  2.052366  0
O  O146  1  0.06078743  0.00510748  0.38210149  1  -1.244571  0  -0.575074  -0.742513  0  2.054611  0
O  O147  1  0.05606285  0.99442484  0.11801820  1  -1.237721  0  -0.575033  -0.743065  0  2.05225  0
O  O148  1  0.78555849  0.16514502  0.32514201  1  -1.197657  0  -0.330254  -0.565061  0  2.36301  0
O  O149  1  0.61992194  0.83459389  0.17503826  1  -1.199999  0  -0.32992  -0.563749  0  2.362497  0
O  O150  1  0.21444967  0.83486329  0.67486052  1  -1.197803  0  -0.33019  -0.564988  0  2.36309  0
O  O151  1  0.38007846  0.16541523  0.82497069  1  -1.200114  0  -0.329882  -0.563722  0  2.362479  0
O  O152  1  0.03367774  0.14007567  0.27267103  1  -1.192631  0  -0.326571  -0.564618  0  2.467333  0
O  O153  1  0.89299037  0.85968705  0.22754920  1  -1.189885  0  -0.326474  -0.563878  0  2.469421  0
O  O154  1  0.96632618  0.85992778  0.72732974  1  -1.192644  0  -0.326682  -0.564815  0  2.467355  0
O  O155  1  0.10701683  0.14031934  0.77245137  1  -1.18994  0  -0.326577  -0.564027  0  2.469387  0
O  O156  1  0.18926031  0.25421907  0.19743303  1  -1.179011  0  -0.314713  -0.547036  0  2.213009  0
O  O157  1  0.93447679  0.74557110  0.30279284  1  -1.177905  0  -0.314257  -0.546405  0  2.213813  0
O  O158  1  0.81073636  0.74578440  0.80256718  1  -1.179107  0  -0.31462  -0.546867  0  2.213173  0
O  O159  1  0.06552387  0.25442946  0.69720641  1  -1.177851  0  -0.314261  -0.546545  0  2.213739  0
