# generated using pymatgen
data_Cd3P2H20C16N6(ClO5)2
_symmetry_space_group_name_H-M   'P 1'
_cell_length_a   7.72183539
_cell_length_b   9.34465681
_cell_length_c   10.09692091
_cell_angle_alpha   89.40719942
_cell_angle_beta   103.02633221
_cell_angle_gamma   110.64795561
_symmetry_Int_Tables_number   1
_chemical_formula_structural   Cd3P2H20C16N6(ClO5)2
_chemical_formula_sum   'Cd3 P2 H20 C16 N6 Cl2 O10'
_cell_volume   662.31563179
_cell_formula_units_Z   1
loop_
 _symmetry_equiv_pos_site_id
 _symmetry_equiv_pos_as_xyz
  1  'x, y, z'
loop_
 _atom_site_type_symbol
 _atom_site_label
 _atom_site_symmetry_multiplicity
 _atom_site_fract_x
 _atom_site_fract_y
 _atom_site_fract_z
 _atom_site_occupancy
 _atom_site_hle17_bader_spin_density
 _atom_site_hle17_ddec_charge
 _atom_site_hle17_ddec_spin_density
 _atom_site_hle17_ddec_sum_bond_order
 _atom_site_hle17_magmom
 _atom_site_hse06_10hf_bader_spin_density
 _atom_site_hse06_10hf_ddec_charge
 _atom_site_hse06_10hf_ddec_spin_density
 _atom_site_hse06_10hf_ddec_sum_bond_order
 _atom_site_hse06_10hf_magmom
 _atom_site_hse06_bader_spin_density
 _atom_site_hse06_ddec_charge
 _atom_site_hse06_ddec_spin_density
 _atom_site_hse06_ddec_sum_bond_order
 _atom_site_hse06_magmom
 _atom_site_pbe_bader_spin_density
 _atom_site_pbe_cm5_charge
 _atom_site_pbe_ddec_charge
 _atom_site_pbe_ddec_spin_density
 _atom_site_pbe_ddec_sum_bond_order
 _atom_site_pbe_magmom
Cd  Cd0  1  0.50000095  0.00000089  0.50000044  1  0  1.102193  0  1.771784  0  0  0.914834  0  2.230606  0  0  0.963034  0  2.185434  0  0  0.722149  0.879699  0  2.263263  0
Cd  Cd1  1  0.69903988  0.66450861  0.50951528  1  0  1.20898  0  1.732624  0  0  1.042988  0  2.187201  0  0  1.091658  0  2.134462  0  0  0.738849  1.007545  0  2.224587  0
Cd  Cd2  1  0.30095901  0.33549132  0.49048511  1  0  1.208984  0  1.732628  0  0  1.042987  0  2.187218  0  0  1.091657  0  2.134479  0  0  0.738852  1.007544  0  2.224606  0
P  P3  1  0.65183297  0.33377370  0.31570375  1  0  1.453394  0  4.913197  0  0  1.281385  0  5.419751  0  0  1.333581  0  5.381017  0  0  0.327156  1.244982  0  5.444859  0
P  P4  1  0.34816776  0.66622738  0.68429795  1  0  1.453434  0  4.913152  0  0  1.281437  0  5.419711  0  0  1.333633  0  5.380976  0  0  0.327205  1.245034  0  5.44482  0
H  H5  1  0.92888770  0.59834190  0.37485424  1  0  0.420618  0  0.89514  0  0  0.387322  0  0.962744  0  0  0.398486  0  0.946661  0  0  0.282432  0.379377  0  0.974177  0
H  H6  1  0.07111036  0.40165917  0.62514602  1  0  0.420611  0  0.895148  0  0  0.387317  0  0.962748  0  0  0.398481  0  0.946665  0  0  0.282422  0.379372  0  0.974181  0
H  H7  1  0.08817163  0.72540883  0.49527382  1  0  0.424696  0  0.879348  0  0  0.392888  0  0.944813  0  0  0.403699  0  0.929228  0  0  0.285838  0.385239  0  0.955772  0
H  H8  1  0.91182777  0.27459223  0.50472765  1  0  0.424708  0  0.879332  0  0  0.392881  0  0.944828  0  0  0.403691  0  0.929243  0  0  0.285843  0.385233  0  0.955784  0
H  H9  1  0.95722217  0.55998693  0.71371349  1  0  0.4327  0  0.871907  0  0  0.399758  0  0.937573  0  0  0.411117  0  0.921108  0  0  0.280004  0.391599  0  0.949366  0
H  H10  1  0.04277539  0.44001301  0.28628569  1  0  0.432722  0  0.87188  0  0  0.399785  0  0.937533  0  0  0.411145  0  0.921068  0  0  0.280053  0.391626  0  0.949326  0
H  H11  1  0.73948889  0.45211320  0.70166326  1  0  0.39985  0  0.893676  0  0  0.372155  0  0.960411  0  0  0.381708  0  0.946364  0  0  0.270886  0.365026  0  0.971023  0
H  H12  1  0.26050999  0.54788675  0.29833614  1  0  0.39984  0  0.893622  0  0  0.372134  0  0.960429  0  0  0.381685  0  0.946385  0  0  0.270906  0.365004  0  0.971041  0
H  H13  1  0.48843016  0.02850439  0.16838306  1  0  0.089067  0  0.984448  0  0  0.094862  0  1.056955  0  0  0.097204  0  1.056316  0  0  0.092289  0.092698  0  1.058711  0
H  H14  1  0.51157139  0.97149557  0.83161678  1  0  0.089076  0  0.984448  0  0  0.094876  0  1.05694  0  0  0.097213  0  1.056315  0  0  0.092292  0.092713  0  1.058697  0
H  H15  1  0.23857244  0.92044411  0.95668848  1  0  0.107168  0  0.940085  0  0  0.121028  0  0.994774  0  0  0.123732  0  0.994047  0  0  0.109499  0.119017  0  0.995614  0
H  H16  1  0.76143045  0.07955583  0.04331357  1  0  0.107163  0  0.940079  0  0  0.121015  0  0.99478  0  0  0.12372  0  0.994051  0  0  0.109497  0.119005  0  0.99562  0
H  H17  1  0.18442968  0.36322410  0.89934696  1  0  0.125062  0  0.946092  0  0  0.134736  0  1.004271  0  0  0.13852  0  1.002288  0  0  0.110617  0.13194  0  1.005912  0
H  H18  1  0.81557220  0.63677357  0.10065392  1  0  0.125073  0  0.946063  0  0  0.134734  0  1.00426  0  0  0.138516  0  1.002278  0  0  0.110616  0.131937  0  1.005901  0
H  H19  1  0.42054943  0.46549225  0.11851161  1  0  0.099339  0  0.939688  0  0  0.110981  0  0.997631  0  0  0.113335  0  0.996777  0  0  0.106777  0.108747  0  0.999688  0
H  H20  1  0.57945212  0.53450770  0.88148922  1  0  0.099321  0  0.939722  0  0  0.110962  0  0.997668  0  0  0.113316  0  0.996816  0  0  0.106779  0.108728  0  0.999727  0
H  H21  1  0.85596084  0.19077151  0.79340170  1  0  0.113895  0  0.916239  0  0  0.125134  0  0.973581  0  0  0.127431  0  0.970356  0  0  0.147953  0.123359  0  0.975985  0
H  H22  1  0.14404122  0.80922957  0.20660021  1  0  0.113912  0  0.916234  0  0  0.125146  0  0.97358  0  0  0.127444  0  0.970356  0  0  0.147956  0.123369  0  0.975989  0
H  H23  1  0.13959337  0.89581975  0.71678143  1  0  0.128884  0  0.936071  0  0  0.136086  0  0.998201  0  0  0.139518  0  0.99431  0  0  0.146922  0.133324  0  1.001447  0
H  H24  1  0.86040685  0.10418022  0.28321721  1  0  0.128871  0  0.936085  0  0  0.136029  0  0.998264  0  0  0.139459  0  0.99438  0  0  0.146917  0.133269  0  1.001508  0
C  C25  1  0.47302422  0.25490909  0.15799727  1  0  -0.231913  0  3.735661  0  0  -0.191895  0  3.977561  0  0  -0.202818  0  4.000367  0  0  -0.027233  -0.184965  0  3.962452  0
C  C26  1  0.52697600  0.74509086  0.84200235  1  0  -0.23193  0  3.735623  0  0  -0.191913  0  3.977528  0  0  -0.202836  0  4.000331  0  0  -0.027247  -0.184985  0  3.962422  0
C  C27  1  0.42271753  0.10234514  0.10982834  1  0  -0.040581  0  3.797589  0  0  -0.062211  0  4.043573  0  0  -0.061637  0  4.066649  0  0  -0.088579  -0.062611  0  4.028996  0
C  C28  1  0.57728402  0.89765484  0.89017052  1  0  -0.040615  0  3.797553  0  0  -0.06224  0  4.043531  0  0  -0.061668  0  4.066605  0  0  -0.088577  -0.062641  0  4.028956  0
C  C29  1  0.28266184  0.04107140  0.99064408  1  0  -0.159696  0  3.752178  0  0  -0.182677  0  4.011184  0  0  -0.188085  0  4.032378  0  0  -0.095545  -0.178526  0  3.996956  0
C  C30  1  0.71733971  0.95892857  0.00935477  1  0  -0.15965  0  3.752088  0  0  -0.182627  0  4.0111  0  0  -0.188036  0  4.032293  0  0  -0.095529  -0.178477  0  3.996872  0
C  C31  1  0.19601815  0.13476069  0.91664918  1  0  0.185716  0  3.791142  0  0  0.174907  0  4.046581  0  0  0.181633  0  4.069212  0  0  0.092244  0.170423  0  4.030655  0
C  C32  1  0.80398240  0.86523698  0.08335049  1  0  0.185728  0  3.791053  0  0  0.174917  0  4.046496  0  0  0.181641  0  4.069128  0  0  0.092232  0.170433  0  4.030568  0
C  C33  1  0.24658800  0.28855145  0.96046308  1  0  -0.15076  0  3.695496  0  0  -0.171849  0  3.949869  0  0  -0.17709  0  3.969173  0  0  -0.087985  -0.16733  0  3.936336  0
C  C34  1  0.75341254  0.71144625  0.03953460  1  0  -0.150792  0  3.695443  0  0  -0.17186  0  3.949816  0  0  -0.177099  0  3.96912  0  0  -0.087976  -0.16734  0  3.936281  0
C  C35  1  0.38322475  0.34673055  0.08208961  1  0  0.004597  0  3.721668  0  0  -0.017552  0  3.965645  0  0  -0.015468  0  3.985975  0  0  -0.069674  -0.01902  0  3.952916  0
C  C36  1  0.61677496  0.65326826  0.91790993  1  0  0.004621  0  3.721628  0  0  -0.017527  0  3.965598  0  0  -0.015443  0  3.985928  0  0  -0.069673  -0.018996  0  3.952873  0
C  C37  1  0.88864274  0.10075802  0.74997070  1  0  0.212426  0  3.628187  0  0  0.145264  0  3.901686  0  0  0.161072  0  3.91097  0  0  0.176796  0.134859  0  3.895068  0
C  C38  1  0.11135932  0.89924308  0.25003023  1  0  0.212407  0  3.6282  0  0  0.145251  0  3.901696  0  0  0.161056  0  3.910981  0  0  0.176805  0.134846  0  3.895074  0
C  C39  1  0.03224496  0.94715276  0.71309124  1  0  0.201246  0  3.556284  0  0  0.137642  0  3.825428  0  0  0.152027  0  3.835198  0  0  0.174491  0.128229  0  3.818914  0
C  C40  1  0.96775526  0.05284719  0.28690838  1  0  0.201328  0  3.55623  0  0  0.137757  0  3.825374  0  0  0.152139  0  3.835145  0  0  0.174553  0.12834  0  3.818859  0
N  N41  1  0.86823697  0.90728792  0.62226044  1  0  -0.260497  0  3.154365  0  0  -0.207385  0  3.444583  0  0  -0.222807  0  3.462287  0  0  -0.23898  -0.196791  0  3.432238  0
N  N42  1  0.13176192  0.09271201  0.37773995  1  0  -0.260571  0  3.154313  0  0  -0.207454  0  3.444518  0  0  -0.222876  0  3.462223  0  0  -0.23905  -0.19686  0  3.432173  0
N  N43  1  0.77768829  0.00348499  0.64582803  1  0  -0.260902  0  3.211629  0  0  -0.196336  0  3.495563  0  0  -0.21383  0  3.514497  0  0  -0.244102  -0.184523  0  3.48237  0
N  N44  1  0.22231243  0.99651612  0.35417168  1  0  -0.260903  0  3.211646  0  0  -0.196347  0  3.495585  0  0  -0.21384  0  3.51452  0  0  -0.244111  -0.184533  0  3.48239  0
N  N45  1  0.04950833  0.06809965  0.79704133  1  0  -0.114298  0  3.564806  0  0  -0.026335  0  3.785792  0  0  -0.043102  0  3.807461  0  0  -0.208361  -0.015428  0  3.771125  0
N  N46  1  0.95049139  0.93189914  0.20295919  1  0  -0.1143  0  3.564813  0  0  -0.026333  0  3.785785  0  0  -0.043097  0  3.807451  0  0  -0.208351  -0.015426  0  3.771116  0
Cl  Cl47  1  0.50390903  0.78527580  0.32189135  1  0  -0.59523  0  0.887107  0  0  -0.531016  0  1.15504  0  0  -0.549  0  1.131357  0  0  -0.286658  -0.517534  0  1.173339  0
Cl  Cl48  1  0.49609036  0.21472529  0.67810814  1  0  -0.595221  0  0.887112  0  0  -0.531026  0  1.155049  0  0  -0.54901  0  1.131368  0  0  -0.286671  -0.517542  0  1.173346  0
O  O49  1  0.56632915  0.42024096  0.39784787  1  0  -0.910368  0  2.081138  0  0  -0.803188  0  2.37304  0  0  -0.835514  0  2.350694  0  0  -0.400018  -0.779679  0  2.388205  0
O  O50  1  0.43366707  0.57975896  0.60215208  1  0  -0.910379  0  2.081079  0  0  -0.803199  0  2.37297  0  0  -0.835527  0  2.350624  0  0  -0.400065  -0.779684  0  2.388117  0
O  O51  1  0.83083794  0.44484923  0.27715592  1  0  -0.856046  0  1.952861  0  0  -0.766151  0  2.18293  0  0  -0.7938  0  2.16284  0  0  -0.379615  -0.746309  0  2.196459  0
O  O52  1  0.16916329  0.55515302  0.72284388  1  0  -0.856082  0  1.952874  0  0  -0.766189  0  2.182944  0  0  -0.793837  0  2.162855  0  0  -0.379657  -0.74635  0  2.196474  0
O  O53  1  0.69121662  0.19877646  0.38953754  1  0  -0.878641  0  2.002644  0  0  -0.784109  0  2.26935  0  0  -0.812754  0  2.248542  0  0  -0.386008  -0.763331  0  2.283698  0
O  O54  1  0.30878462  0.80122573  0.61046623  1  0  -0.878624  0  2.002636  0  0  -0.784145  0  2.26938  0  0  -0.812793  0  2.248573  0  0  -0.386001  -0.763362  0  2.283724  0
O  O55  1  0.96246104  0.69885747  0.42864469  1  0  -0.858363  0  1.913088  0  0  -0.791425  0  2.120306  0  0  -0.816007  0  2.088848  0  0  -0.595162  -0.773653  0  2.142109  0
O  O56  1  0.03753835  0.30114361  0.57135579  1  0  -0.858352  0  1.913074  0  0  -0.791398  0  2.120309  0  0  -0.81598  0  2.08885  0  0  -0.595144  -0.773625  0  2.142109  0
O  O57  1  0.82483027  0.55959022  0.70589271  1  0  -0.841454  0  1.867729  0  0  -0.782407  0  2.05435  0  0  -0.804299  0  2.023322  0  0  -0.595891  -0.766496  0  2.076378  0
O  O58  1  0.17516545  0.44040858  0.29410516  1  0  -0.84146  0  1.867606  0  0  -0.782407  0  2.054279  0  0  -0.804298  0  2.023249  0  0  -0.595964  -0.766501  0  2.07632  0
