# generated using pymatgen
data_NiH16C26(NO5)2
_symmetry_space_group_name_H-M   'P 1'
_cell_length_a   7.57426020
_cell_length_b   8.49827799
_cell_length_c   9.81571014
_cell_angle_alpha   115.67647436
_cell_angle_beta   100.57929825
_cell_angle_gamma   89.97406166
_symmetry_Int_Tables_number   1
_chemical_formula_structural   NiH16C26(NO5)2
_chemical_formula_sum   'Ni1 H16 C26 N2 O10'
_cell_volume   557.51557860
_cell_formula_units_Z   1
loop_
 _symmetry_equiv_pos_site_id
 _symmetry_equiv_pos_as_xyz
  1  'x, y, z'
loop_
 _atom_site_type_symbol
 _atom_site_label
 _atom_site_symmetry_multiplicity
 _atom_site_fract_x
 _atom_site_fract_y
 _atom_site_fract_z
 _atom_site_occupancy
 _atom_site_pbe_cm5_charge
 _atom_site_pbe_ddec_charge
 _atom_site_pbe_ddec_spin_density
 _atom_site_pbe_ddec_sum_bond_order
 _atom_site_pbe_magmom
Ni  Ni0  1  0.99993746  0.99140664  0.99994313  1  0.654748  0.765598  0.000603  2.469309  0.001
H  H1  1  0.51902872  0.09965599  0.78816411  1  0.107061  0.10817  -8.2e-05  1.012853  0.0
H  H2  1  0.48098373  0.31182395  0.21219470  1  0.10681  0.10787  8.4e-05  1.013523  0.0
H  H3  1  0.29049802  0.14272847  0.59542964  1  0.102024  0.111986  -2.6e-05  1.037862  0.0
H  H4  1  0.70957147  0.54765457  0.40463939  1  0.102029  0.112008  2.6e-05  1.037727  0.0
H  H5  1  0.54257919  0.66505775  0.76248621  1  0.112138  0.133942  -0.000111  1.006263  0.0
H  H6  1  0.45728109  0.90279616  0.23742456  1  0.112025  0.133764  0.000113  1.006887  0.0
H  H7  1  0.87954506  0.54748581  0.12377994  1  0.291832  0.339146  3.3e-05  1.032979  0.0
H  H8  1  0.12047227  0.42331245  0.87624723  1  0.291744  0.338839  -3.3e-05  1.032749  0.0
H  H9  1  0.72221523  0.04231606  0.18505121  1  0.124584  0.101828  -9.1e-05  0.993649  0.0
H  H10  1  0.27770014  0.85680037  0.81482135  1  0.124713  0.102425  6.3e-05  0.99378  0.0
H  H11  1  0.26308113  0.20429895  0.27776295  1  0.126626  0.115335  -2.3e-05  1.021955  0.0
H  H12  1  0.73695341  0.92688196  0.72210333  1  0.126337  0.114929  -1.2e-05  1.022238  0.0
H  H13  1  0.96755485  0.44179712  0.64292059  1  0.120255  0.150716  2.7e-05  0.998541  0.0
H  H14  1  0.03260546  0.79848339  0.35701973  1  0.120099  0.150407  -2.7e-05  0.999159  0.0
H  H15  1  0.69459357  0.24066387  0.45809451  1  0.109274  0.114549  7e-06  0.995269  0.0
H  H16  1  0.30549506  0.78203156  0.54183968  1  0.109282  0.114182  -2.5e-05  0.99576  0.0
C  C17  1  0.65836828  0.35507652  0.88742414  1  -0.022372  -0.097108  0.003324  3.927318  0.002
C  C18  1  0.34154224  0.46784277  0.11278400  1  -0.022424  -0.097562  -0.003284  3.927266  -0.002
C  C19  1  0.52425053  0.22336610  0.78034800  1  -0.081054  -0.058986  -8.1e-05  3.987973  0.0
C  C20  1  0.47570855  0.44331710  0.21988730  1  -0.080814  -0.058636  8e-05  3.988639  0.0
C  C21  1  0.66250594  0.51953480  0.88109146  1  -0.008316  -0.03012  -0.004808  3.911176  -0.004
C  C22  1  0.33738206  0.63859782  0.11899038  1  -0.008008  -0.027897  0.004852  3.908918  0.004
C  C23  1  0.78301232  0.30056901  0.99409846  1  0.226641  0.58148  0.007469  4.121649  0.005
C  C24  1  0.21718238  0.30642421  0.00603575  1  0.226826  0.581955  -0.007448  4.123374  -0.005
C  C25  1  0.78681337  0.68378303  0.98826694  1  0.219861  0.575219  -0.006673  4.16359  -0.003
C  C26  1  0.21288972  0.69547385  0.01176472  1  0.218898  0.572999  0.006695  4.164679  0.003
C  C27  1  0.40411317  0.40718672  0.66512653  1  0.091238  0.272968  0.000244  4.060016  0.0
C  C28  1  0.59589110  0.74236195  0.33486590  1  0.091143  0.27347  -0.000255  4.060407  0.0
C  C29  1  0.39640772  0.24629703  0.67110248  1  -0.103356  -0.204845  -0.00018  4.006008  0.0
C  C30  1  0.60359961  0.57550966  0.32898245  1  -0.103271  -0.205108  0.000173  4.007426  0.0
C  C31  1  0.53714695  0.53974579  0.76737157  1  -0.095882  -0.20902  -0.000232  3.947062  0.0
C  C32  1  0.46277190  0.77261771  0.23263506  1  -0.095585  -0.209679  0.000226  3.94729  0.0
C  C33  1  0.83643130  0.12642260  0.27137618  1  0.053722  0.085704  0.000388  3.909664  0.0
C  C34  1  0.16352633  0.85464393  0.72847993  1  0.052932  0.084219  -0.000404  3.91069  0.0
C  C35  1  0.14021625  0.21546329  0.32230535  1  0.04598  -0.015476  -0.000556  3.901796  0.0
C  C36  1  0.85981191  0.89325537  0.67757132  1  0.045958  -0.015434  0.000527  3.901658  0.0
C  C37  1  0.13360591  0.33359726  0.47266012  1  0.088335  0.210547  -0.000377  4.038364  0.0
C  C38  1  0.86648570  0.86095115  0.52722845  1  0.088304  0.21094  0.000291  4.037622  0.0
C  C39  1  0.97287345  0.34773312  0.52546476  1  -0.070366  -0.135175  -3.9e-05  3.894097  0.0
C  C40  1  0.02722349  0.82194639  0.47444489  1  -0.069889  -0.13537  7.6e-05  3.894354  0.0
C  C41  1  0.82262857  0.23858356  0.42196132  1  -0.078952  -0.100676  0.000305  3.975588  0.0
C  C42  1  0.17742869  0.81618415  0.57794352  1  -0.07853  -0.098905  -0.00038  3.976836  0.0
N  N43  1  0.99252317  0.11675621  0.22249748  1  -0.323683  -0.173414  -2.3e-05  3.63325  0.0
N  N44  1  0.00742342  0.89409594  0.77734934  1  -0.323383  -0.173892  -0.0012  3.632434  -0.001
O  O45  1  0.87871328  0.69828584  0.11692463  1  -0.312802  -0.526427  -0.003752  2.322551  -0.004
O  O46  1  0.12093368  0.58118857  0.88321493  1  -0.312371  -0.526103  0.003753  2.320973  0.004
O  O47  1  0.78749082  0.80414003  0.94516221  1  -0.296224  -0.522187  -0.060776  2.377221  -0.063
O  O48  1  0.21210479  0.85898369  0.05480081  1  -0.295688  -0.521068  0.061286  2.379872  0.064
O  O49  1  0.78095948  0.14005986  0.96018143  1  -0.282741  -0.511168  0.050014  2.373987  0.05
O  O50  1  0.21938955  0.17984727  0.03991274  1  -0.282801  -0.51201  -0.049737  2.374041  -0.05
O  O51  1  0.88762436  0.41570070  0.11925538  1  -0.323096  -0.484523  0.00345  2.357053  0.004
O  O52  1  0.11273275  0.29612150  0.88069638  1  -0.323396  -0.484177  -0.003447  2.357473  -0.004
O  O53  1  0.28609166  0.44703230  0.56273892  1  -0.147983  -0.214935  8.2e-05  2.598432  0.0
O  O54  1  0.71409909  0.88449890  0.43713522  1  -0.148433  -0.215294  -0.000108  2.597135  0.0
