# generated using pymatgen
data_CuH12C6N2ClO
_symmetry_space_group_name_H-M   'P 1'
_cell_length_a   6.70814417
_cell_length_b   7.20912672
_cell_length_c   9.58323518
_cell_angle_alpha   93.80680491
_cell_angle_beta   103.20961008
_cell_angle_gamma   103.85170754
_symmetry_Int_Tables_number   1
_chemical_formula_structural   CuH12C6N2ClO
_chemical_formula_sum   'Cu2 H24 C12 N4 Cl2 O2'
_cell_volume   434.45039550
_cell_formula_units_Z   2
loop_
 _symmetry_equiv_pos_site_id
 _symmetry_equiv_pos_as_xyz
  1  'x, y, z'
loop_
 _atom_site_type_symbol
 _atom_site_label
 _atom_site_symmetry_multiplicity
 _atom_site_fract_x
 _atom_site_fract_y
 _atom_site_fract_z
 _atom_site_occupancy
 _atom_site_hle17_bader_spin_density
 _atom_site_hle17_ddec_charge
 _atom_site_hle17_ddec_spin_density
 _atom_site_hle17_ddec_sum_bond_order
 _atom_site_hle17_magmom
 _atom_site_hse06_10hf_bader_spin_density
 _atom_site_hse06_10hf_ddec_charge
 _atom_site_hse06_10hf_ddec_spin_density
 _atom_site_hse06_10hf_ddec_sum_bond_order
 _atom_site_hse06_10hf_magmom
 _atom_site_hse06_bader_spin_density
 _atom_site_hse06_ddec_charge
 _atom_site_hse06_ddec_spin_density
 _atom_site_hse06_ddec_sum_bond_order
 _atom_site_hse06_magmom
 _atom_site_pbe_bader_spin_density
 _atom_site_pbe_cm5_charge
 _atom_site_pbe_ddec_charge
 _atom_site_pbe_ddec_spin_density
 _atom_site_pbe_ddec_sum_bond_order
 _atom_site_pbe_magmom
Cu  Cu0  1  0.16909609  0.20573972  0.48478113  1  0  0.721667  0  1.921963  0  0  0.645675  0  2.367928  0  0  0.672715  0  2.319536  0  0  0.629113  0.628297  0  2.401245  0
Cu  Cu1  1  0.83086753  0.79431355  0.51525422  1  0  0.720812  0  1.922365  0  0  0.645403  0  2.368159  0  0  0.672505  0  2.31979  0  0  0.629078  0.627905  0  2.401516  0
H  H2  1  0.86930006  0.09102922  0.66904530  1  0  0.299946  0  0.928385  0  0  0.287425  0  0.990593  0  0  0.294114  0  0.985689  0  0  0.28524  0.282592  0  0.994327  0
H  H3  1  0.13062200  0.90892458  0.33089404  1  0  0.299828  0  0.928429  0  0  0.2874  0  0.990509  0  0  0.294093  0  0.9856  0  0  0.285139  0.282567  0  0.994282  0
H  H4  1  0.62149834  0.96402390  0.64350307  1  0  0.28655  0  0.935183  0  0  0.277833  0  0.994625  0  0  0.283292  0  0.991657  0  0  0.268537  0.273754  0  0.99713  0
H  H5  1  0.37852922  0.03594549  0.35647447  1  0  0.286602  0  0.934877  0  0  0.277898  0  0.994315  0  0  0.28336  0  0.991341  0  0  0.268431  0.273819  0  0.996842  0
H  H6  1  0.77527086  0.99018480  0.89160090  1  0  0.057215  0  0.915135  0  0  0.075621  0  0.974235  0  0  0.075787  0  0.974612  0  0  0.099334  0.076027  0  0.972844  0
H  H7  1  0.22474134  0.00982506  0.10834751  1  0  0.057337  0  0.915252  0  0  0.075753  0  0.974296  0  0  0.07592  0  0.974679  0  0  0.099362  0.076152  0  0.972938  0
H  H8  1  0.00138573  0.92855318  0.85447804  1  0  0.065874  0  0.928722  0  0  0.081182  0  0.99418  0  0  0.081526  0  0.994824  0  0  0.10205  0.081213  0  0.993088  0
H  H9  1  0.99856347  0.07145547  0.14547200  1  0  0.065897  0  0.928857  0  0  0.081222  0  0.994234  0  0  0.081564  0  0.994883  0  0  0.102094  0.081258  0  0.99314  0
H  H10  1  0.40379007  0.72741294  0.78251950  1  0  0.105468  0  0.950092  0  0  0.12824  0  1.008054  0  0  0.129355  0  1.008875  0  0  0.078704  0.127574  0  1.007052  0
H  H11  1  0.59621468  0.27255507  0.21750973  1  0  0.105454  0  0.950154  0  0  0.128182  0  1.008132  0  0  0.129294  0  1.008963  0  0  0.078714  0.127523  0  1.00711  0
H  H12  1  0.41366237  0.48232895  0.76101151  1  0  0.106019  0  0.97882  0  0  0.123613  0  1.048545  0  0  0.124959  0  1.04911  0  0  0.083512  0.122477  0  1.04847  0
H  H13  1  0.58635871  0.51769397  0.23901525  1  0  0.105983  0  0.97867  0  0  0.123533  0  1.048468  0  0  0.124878  0  1.049027  0  0  0.083466  0.1224  0  1.048397  0
H  H14  1  0.46776671  0.63220695  0.62822718  1  0  0.093457  0  0.964534  0  0  0.107509  0  1.042373  0  0  0.109469  0  1.040426  0  0  0.079979  0.105966  0  1.044044  0
H  H15  1  0.53219055  0.36777707  0.37181966  1  0  0.093421  0  0.964485  0  0  0.107399  0  1.04242  0  0  0.109366  0  1.04046  0  0  0.079956  0.105857  0  1.044086  0
H  H16  1  0.65646587  0.74597916  0.03616985  1  0  0.104832  0  0.956084  0  0  0.123105  0  1.022574  0  0  0.124761  0  1.022082  0  0  0.083579  0.122564  0  1.021712  0
H  H17  1  0.34361582  0.25401904  0.96385647  1  0  0.104896  0  0.955816  0  0  0.12314  0  1.022371  0  0  0.1248  0  1.021881  0  0  0.083517  0.122595  0  1.021518  0
H  H18  1  0.68627609  0.51081467  0.99962141  1  0  0.102336  0  0.956479  0  0  0.126273  0  1.015349  0  0  0.127229  0  1.015933  0  0  0.089377  0.125543  0  1.015245  0
H  H19  1  0.31378954  0.48922665  0.00038626  1  0  0.102426  0  0.956277  0  0  0.126328  0  1.015184  0  0  0.127286  0  1.015773  0  0  0.089437  0.125601  0  1.015079  0
H  H20  1  0.91230664  0.71105329  0.04908425  1  0  0.096659  0  0.96141  0  0  0.116546  0  1.028428  0  0  0.117909  0  1.02849  0  0  0.08506  0.115513  0  1.028685  0
H  H21  1  0.08771680  0.28894621  0.95089136  1  0  0.096624  0  0.961073  0  0  0.116494  0  1.028134  0  0  0.117901  0  1.028146  0  0  0.085006  0.115451  0  1.028396  0
H  H22  1  0.99499709  0.56730788  0.84651182  1  0  0.06353  0  0.925583  0  0  0.08201  0  0.986769  0  0  0.081972  0  0.987368  0  0  0.103438  0.081769  0  0.986462  0
H  H23  1  0.00496171  0.43265583  0.15347139  1  0  0.063516  0  0.925464  0  0  0.082055  0  0.986622  0  0  0.08202  0  0.987229  0  0  0.103438  0.081812  0  0.986317  0
H  H24  1  0.74661647  0.40204963  0.76379140  1  0  0.07507  0  0.911748  0  0  0.092631  0  0.970976  0  0  0.093228  0  0.971092  0  0  0.104266  0.091978  0  0.971299  0
H  H25  1  0.25339211  0.59799137  0.23617714  1  0  0.075048  0  0.911671  0  0  0.092603  0  0.97091  0  0  0.093196  0  0.97103  0  0  0.104174  0.091945  0  0.971251  0
C  C26  1  0.97554296  0.47337154  0.56956320  1  0  0.40271  0  3.918664  0  0  0.363952  0  4.199703  0  0  0.386931  0  4.205055  0  0  0.212853  0.348633  0  4.195702  0
C  C27  1  0.02443525  0.52664998  0.43049545  1  0  0.40355  0  3.917446  0  0  0.364363  0  4.198838  0  0  0.387356  0  4.204173  0  0  0.212987  0.349037  0  4.194836  0
C  C28  1  0.82782286  0.89891388  0.81788554  1  0  0.02871  0  3.594403  0  0  -0.02745  0  3.847224  0  0  -0.02476  0  3.861664  0  0  -0.070501  -0.029443  0  3.837813  0
C  C29  1  0.17214902  0.10107625  0.18207940  1  0  0.028157  0  3.594675  0  0  -0.027881  0  3.847437  0  0  -0.025233  0  3.862007  0  0  -0.070562  -0.029871  0  3.838079  0
C  C30  1  0.72375102  0.68688292  0.82662923  1  0  0.154453  0  3.595501  0  0  0.190965  0  3.82115  0  0  0.19026  0  3.841404  0  0  -0.021137  0.191428  0  3.807541  0
C  C31  1  0.27624648  0.31313286  0.17337153  1  0  0.154925  0  3.594001  0  0  0.191072  0  3.820176  0  0  0.190352  0  3.840485  0  0  -0.021225  0.191538  0  3.806573  0
C  C32  1  0.48909347  0.62932974  0.74522610  1  0  -0.341873  0  3.650879  0  0  -0.421111  0  3.884106  0  0  -0.42479  0  3.896067  0  0  -0.25572  -0.418279  0  3.876072  0
C  C33  1  0.51093335  0.37066863  0.25481363  1  0  -0.341881  0  3.650344  0  0  -0.42092  0  3.883739  0  0  -0.424574  0  3.895672  0  0  -0.255675  -0.418092  0  3.875705  0
C  C34  1  0.74582909  0.66276535  0.98677049  1  0  -0.342855  0  3.674189  0  0  -0.427178  0  3.917406  0  0  -0.430126  0  3.928303  0  0  -0.244342  -0.425149  0  3.909981  0
C  C35  1  0.25421485  0.33724712  0.01322266  1  0  -0.343074  0  3.673357  0  0  -0.427255  0  3.91664  0  0  -0.430246  0  3.927532  0  0  -0.244248  -0.425208  0  3.909234  0
C  C36  1  0.84083888  0.55182402  0.76879000  1  0  -0.000738  0  3.635294  0  0  -0.053853  0  3.885964  0  0  -0.050091  0  3.899202  0  0  -0.063905  -0.055948  0  3.877004  0
C  C37  1  0.15913492  0.44821123  0.23122079  1  0  -0.000421  0  3.634404  0  0  -0.053564  0  3.884956  0  0  -0.049818  0  3.898249  0  0  -0.063682  -0.05565  0  3.876047  0
N  N38  1  0.77661947  0.95519405  0.67159206  1  0  -0.592527  0  3.218167  0  0  -0.551156  0  3.481199  0  0  -0.568126  0  3.47805  0  0  -0.649304  -0.540152  0  3.484224  0
N  N39  1  0.22335356  0.04477134  0.32839243  1  0  -0.592477  0  3.21757  0  0  -0.55128  0  3.48047  0  0  -0.568196  0  3.477288  0  0  -0.648855  -0.540226  0  3.483504  0
N  N40  1  0.87855431  0.58340573  0.62750265  1  0  -0.418736  0  3.225607  0  0  -0.363461  0  3.534919  0  0  -0.382594  0  3.543206  0  0  -0.393796  -0.351467  0  3.530027  0
N  N41  1  0.12143327  0.41659501  0.37252487  1  0  -0.419537  0  3.224941  0  0  -0.36399  0  3.534286  0  0  -0.383052  0  3.542502  0  0  -0.394057  -0.351957  0  3.529426  0
Cl  Cl42  1  0.31426677  0.05222028  0.66151367  1  0  -0.543478  0  0.938177  0  0  -0.511435  0  1.219826  0  0  -0.522169  0  1.192928  0  0  -0.305991  -0.503793  0  1.237585  0
Cl  Cl43  1  0.68576378  0.94775235  0.33852402  1  0  -0.543394  0  0.93888  0  0  -0.511304  0  1.22059  0  0  -0.522062  0  1.193693  0  0  -0.306019  -0.503698  0  1.23836  0
O  O44  1  0.03060350  0.32722383  0.61948483  1  0  -0.523993  0  2.135689  0  0  -0.466802  0  2.396653  0  0  -0.490758  0  2.389554  0  0  -0.300501  -0.450933  0  2.40164  0
O  O45  1  0.96942174  0.67274851  0.38048627  1  0  -0.523988  0  2.13514  0  0  -0.466785  0  2.396367  0  0  -0.490804  0  2.389299  0  0  -0.300322  -0.450922  0  2.401306  0
