# generated using pymatgen
data_Sn2H22(C2O)5
_symmetry_space_group_name_H-M   'P 1'
_cell_length_a   8.21529489
_cell_length_b   8.21529278
_cell_length_c   12.13344488
_cell_angle_alpha   78.98317827
_cell_angle_beta   78.98300536
_cell_angle_gamma   75.42249858
_symmetry_Int_Tables_number   1
_chemical_formula_structural   Sn2H22(C2O)5
_chemical_formula_sum   'Sn4 H44 C20 O10'
_cell_volume   769.06682322
_cell_formula_units_Z   2
loop_
 _symmetry_equiv_pos_site_id
 _symmetry_equiv_pos_as_xyz
  1  'x, y, z'
loop_
 _atom_site_type_symbol
 _atom_site_label
 _atom_site_symmetry_multiplicity
 _atom_site_fract_x
 _atom_site_fract_y
 _atom_site_fract_z
 _atom_site_occupancy
 _atom_site_hle17_bader_spin_density
 _atom_site_hle17_ddec_charge
 _atom_site_hle17_ddec_spin_density
 _atom_site_hle17_ddec_sum_bond_order
 _atom_site_hle17_magmom
 _atom_site_hse06_10hf_bader_spin_density
 _atom_site_hse06_10hf_ddec_charge
 _atom_site_hse06_10hf_ddec_spin_density
 _atom_site_hse06_10hf_ddec_sum_bond_order
 _atom_site_hse06_10hf_magmom
 _atom_site_hse06_bader_spin_density
 _atom_site_hse06_ddec_charge
 _atom_site_hse06_ddec_spin_density
 _atom_site_hse06_ddec_sum_bond_order
 _atom_site_hse06_magmom
 _atom_site_pbe_bader_spin_density
 _atom_site_pbe_cm5_charge
 _atom_site_pbe_ddec_charge
 _atom_site_pbe_ddec_spin_density
 _atom_site_pbe_ddec_sum_bond_order
 _atom_site_pbe_magmom
Sn  Sn0  1  0.58988478  0.81531890  0.02982377  1  0  1.386715  0  2.864118  0  0  1.257537  0  3.350527  0  0  1.296144  0  3.334668  0  0  0.524186  1.230914  0  3.361127  0
Sn  Sn1  1  0.18466745  0.41011781  0.97018031  1  0  1.38668  0  2.864218  0  0  1.257521  0  3.350587  0  0  1.296125  0  3.334721  0  0  0.524164  1.230891  0  3.361195  0
Sn  Sn2  1  0.84570608  0.71617482  0.44372534  1  0  1.367275  0  2.839688  0  0  1.234519  0  3.325901  0  0  1.271913  0  3.311006  0  0  0.526348  1.208714  0  3.335851  0
Sn  Sn3  1  0.28382291  0.15429356  0.55627310  1  0  1.367192  0  2.839772  0  0  1.234446  0  3.325939  0  0  1.271845  0  3.311045  0  0  0.526318  1.208638  0  3.335886  0
H  H4  1  0.98436121  0.08644469  0.23637657  1  0  0.372905  0  0.878217  0  0  0.353584  0  0.942038  0  0  0.363219  0  0.931271  0  0  0.306977  0.346711  0  0.949775  0
H  H5  1  0.91355475  0.01564152  0.76362127  1  0  0.372907  0  0.878181  0  0  0.353575  0  0.942042  0  0  0.363215  0  0.931263  0  0  0.30695  0.346697  0  0.949788  0
H  H6  1  0.59279888  0.36001418  0.32772503  1  0  0.124764  0  0.933652  0  0  0.138733  0  0.992629  0  0  0.141785  0  0.990892  0  0  0.108973  0.136575  0  0.99395  0
H  H7  1  0.63998488  0.40720422  0.67227430  1  0  0.124854  0  0.933587  0  0  0.138822  0  0.992577  0  0  0.141875  0  0.99084  0  0  0.109038  0.136661  0  0.993888  0
H  H8  1  0.78905567  0.33860462  0.37447056  1  0  0.129159  0  0.933504  0  0  0.143916  0  0.993392  0  0  0.146367  0  0.99293  0  0  0.110051  0.142173  0  0.993858  0
H  H9  1  0.66139239  0.21094276  0.62552865  1  0  0.129171  0  0.933469  0  0  0.14394  0  0.993362  0  0  0.146393  0  0.992898  0  0  0.110035  0.14219  0  0.99382  0
H  H10  1  0.04039506  0.76906372  0.58511447  1  0  0.153334  0  0.986884  0  0  0.172488  0  1.041402  0  0  0.175119  0  1.042076  0  0  0.087202  0.170615  0  1.040961  0
H  H11  1  0.23093603  0.95960630  0.41487935  1  0  0.153329  0  0.986894  0  0  0.172503  0  1.041382  0  0  0.175131  0  1.042061  0  0  0.087207  0.170631  0  1.040943  0
H  H12  1  0.88535767  0.65755154  0.66650095  1  0  0.157842  0  0.987361  0  0  0.179295  0  1.037685  0  0  0.181469  0  1.039169  0  0  0.088706  0.177721  0  1.036711  0
H  H13  1  0.34244925  0.11464425  0.33349665  1  0  0.157819  0  0.987375  0  0  0.17926  0  1.037718  0  0  0.181433  0  1.039203  0  0  0.088676  0.177687  0  1.036744  0
H  H14  1  0.82527184  0.88089444  0.62059966  1  0  0.162856  0  1.003015  0  0  0.176376  0  1.067166  0  0  0.179922  0  1.066404  0  0  0.087513  0.173763  0  1.067885  0
H  H15  1  0.11910389  0.17472987  0.37939859  1  0  0.162834  0  1.003042  0  0  0.176358  0  1.067193  0  0  0.179904  0  1.066429  0  0  0.087489  0.173744  0  1.067918  0
H  H16  1  0.71509612  0.94612645  0.17531132  1  0  0.147353  0  0.99902  0  0  0.163654  0  1.060255  0  0  0.166217  0  1.06105  0  0  0.081543  0.161806  0  1.059763  0
H  H17  1  0.05387491  0.28489320  0.82469252  1  0  0.14739  0  0.998899  0  0  0.163627  0  1.060231  0  0  0.16619  0  1.061025  0  0  0.081511  0.161778  0  1.059737  0
H  H18  1  0.77070398  0.04851220  0.03303371  1  0  0.148677  0  1.011576  0  0  0.165551  0  1.072534  0  0  0.167923  0  1.073119  0  0  0.083023  0.163804  0  1.072257  0
H  H19  1  0.95149074  0.22929433  0.96696691  1  0  0.148683  0  1.01159  0  0  0.16557  0  1.072522  0  0  0.167941  0  1.073106  0  0  0.083042  0.163818  0  1.072252  0
H  H20  1  0.88713208  0.84007537  0.08102696  1  0  0.162084  0  0.997607  0  0  0.179231  0  1.055854  0  0  0.182665  0  1.055329  0  0  0.088416  0.176769  0  1.056316  0
H  H21  1  0.15992286  0.11286518  0.91897842  1  0  0.162064  0  0.997577  0  0  0.179221  0  1.055815  0  0  0.182655  0  1.055288  0  0  0.088432  0.17676  0  1.056271  0
H  H22  1  0.55189862  0.60911388  0.50655757  1  0  0.152064  0  1.009807  0  0  0.170658  0  1.06668  0  0  0.173039  0  1.067528  0  0  0.085211  0.168924  0  1.066169  0
H  H23  1  0.39089011  0.44809469  0.49344272  1  0  0.152056  0  1.009821  0  0  0.170648  0  1.066697  0  0  0.173029  0  1.067547  0  0  0.085204  0.168913  0  1.066187  0
H  H24  1  0.59219724  0.65389448  0.35444958  1  0  0.163847  0  0.999714  0  0  0.179261  0  1.059743  0  0  0.182258  0  1.06022  0  0  0.086753  0.177086  0  1.059502  0
H  H25  1  0.34610607  0.40779645  0.64555196  1  0  0.163842  0  0.99971  0  0  0.179256  0  1.059739  0  0  0.182253  0  1.060217  0  0  0.086746  0.177082  0  1.059492  0
H  H26  1  0.50965686  0.82429679  0.43692672  1  0  0.155661  0  1.023568  0  0  0.173793  0  1.080291  0  0  0.176365  0  1.081449  0  0  0.086808  0.171919  0  1.079575  0
H  H27  1  0.17570566  0.49033995  0.56307519  1  0  0.155672  0  1.023583  0  0  0.173803  0  1.080301  0  0  0.176376  0  1.081457  0  0  0.086807  0.171923  0  1.079592  0
H  H28  1  0.55866357  0.58694646  0.90418088  1  0  0.157178  0  0.999494  0  0  0.173274  0  1.059985  0  0  0.176119  0  1.060692  0  0  0.084673  0.171212  0  1.059574  0
H  H29  1  0.41305231  0.44134583  0.09581456  1  0  0.157089  0  0.999564  0  0  0.173192  0  1.06005  0  0  0.176036  0  1.060758  0  0  0.084642  0.171133  0  1.059637  0
H  H30  1  0.77786044  0.59377641  0.89156468  1  0  0.147385  0  1.010571  0  0  0.163878  0  1.071668  0  0  0.166315  0  1.0727  0  0  0.083153  0.162102  0  1.071049  0
H  H31  1  0.40622798  0.22214603  0.10843101  1  0  0.147365  0  1.010613  0  0  0.163857  0  1.071718  0  0  0.166295  0  1.072749  0  0  0.083138  0.162085  0  1.071093  0
H  H32  1  0.63783703  0.75830630  0.81299370  1  0  0.159839  0  1.012026  0  0  0.176601  0  1.070434  0  0  0.179301  0  1.071252  0  0  0.085161  0.174658  0  1.069934  0
H  H33  1  0.24169222  0.36216918  0.18700397  1  0  0.159842  0  1.012053  0  0  0.176595  0  1.070466  0  0  0.179296  0  1.071283  0  0  0.085171  0.174655  0  1.069967  0
H  H34  1  0.02751312  0.69226050  0.23323112  1  0  0.164015  0  0.990465  0  0  0.182324  0  1.046311  0  0  0.185001  0  1.047193  0  0  0.090315  0.180381  0  1.045772  0
H  H35  1  0.30773772  0.97248765  0.76676789  1  0  0.164028  0  0.990446  0  0  0.18233  0  1.046299  0  0  0.185008  0  1.047181  0  0  0.090321  0.180385  0  1.045757  0
H  H36  1  0.04783887  0.48615907  0.31752759  1  0  0.159104  0  0.998635  0  0  0.178395  0  1.053931  0  0  0.181035  0  1.054356  0  0  0.08888  0.176452  0  1.053779  0
H  H37  1  0.51383941  0.95215900  0.68246908  1  0  0.159067  0  0.998733  0  0  0.178354  0  1.054021  0  0  0.180995  0  1.054446  0  0  0.088875  0.176409  0  1.053866  0
H  H38  1  0.16922488  0.62793816  0.33654400  1  0  0.152766  0  0.989745  0  0  0.172985  0  1.042899  0  0  0.17538  0  1.043811  0  0  0.087406  0.171281  0  1.042299  0
H  H39  1  0.37206149  0.83077206  0.66345843  1  0  0.152751  0  0.989773  0  0  0.172965  0  1.042932  0  0  0.175359  0  1.043844  0  0  0.087393  0.171256  0  1.042335  0
H  H40  1  0.74279120  0.23118579  0.15559930  1  0  0.044582  0  0.925863  0  0  0.057481  0  0.986138  0  0  0.05867  0  0.985362  0  0  0.105555  0.0566  0  0.986867  0
H  H41  1  0.76880987  0.25721595  0.84440131  1  0  0.044544  0  0.925909  0  0  0.057458  0  0.986124  0  0  0.058649  0  0.985346  0  0  0.105565  0.056578  0  0.986854  0
H  H42  1  0.24517111  0.84719700  0.06806327  1  0  0.148618  0  1.002263  0  0  0.168167  0  1.058914  0  0  0.170627  0  1.05978  0  0  0.083728  0.166406  0  1.058355  0
H  H43  1  0.15279947  0.75482886  0.93193932  1  0  0.14862  0  1.002282  0  0  0.168183  0  1.058924  0  0  0.170636  0  1.0598  0  0  0.08373  0.16642  0  1.058368  0
H  H44  1  0.29891021  0.97654334  0.15131872  1  0  0.156368  0  1.001418  0  0  0.176901  0  1.055694  0  0  0.179149  0  1.057223  0  0  0.085802  0.175245  0  1.054723  0
H  H45  1  0.02346298  0.70109464  0.84868109  1  0  0.156403  0  1.001399  0  0  0.176947  0  1.055651  0  0  0.17919  0  1.057186  0  0  0.085811  0.17529  0  1.054678  0
H  H46  1  0.33345670  0.75081179  0.19509603  1  0  0.152728  0  1.004428  0  0  0.1722  0  1.059423  0  0  0.175013  0  1.059699  0  0  0.083151  0.170172  0  1.059301  0
H  H47  1  0.24918559  0.66654818  0.80490557  1  0  0.152735  0  1.004447  0  0  0.172205  0  1.059441  0  0  0.175019  0  1.059714  0  0  0.083155  0.170181  0  1.059308  0
C  C48  1  0.79972795  0.47074156  0.14153264  1  0  0.645318  0  3.813339  0  0  0.592909  0  4.110179  0  0  0.62593  0  4.102775  0  0  0.234234  0.570504  0  4.114548  0
C  C49  1  0.52925738  0.20027470  0.85846831  1  0  0.645353  0  3.813208  0  0  0.592933  0  4.109993  0  0  0.625948  0  4.102599  0  0  0.234219  0.570525  0  4.114364  0
C  C50  1  0.72280052  0.28238857  0.32556772  1  0  -0.336014  0  3.66098  0  0  -0.38343  0  3.916549  0  0  -0.389509  0  3.921463  0  0  -0.16518  -0.379323  0  3.913292  0
C  C51  1  0.71760907  0.27720380  0.67443060  1  0  -0.336099  0  3.660876  0  0  -0.383605  0  3.916545  0  0  -0.389688  0  3.921461  0  0  -0.165266  -0.379463  0  3.913242  0
C  C52  1  0.90675473  0.76101291  0.59768987  1  0  -0.71613  0  3.518337  0  0  -0.75481  0  3.747947  0  0  -0.76852  0  3.75381  0  0  -0.332939  -0.745262  0  3.743996  0
C  C53  1  0.23898690  0.09324488  0.40230662  1  0  -0.716071  0  3.518361  0  0  -0.754766  0  3.74797  0  0  -0.768472  0  3.753838  0  0  -0.332901  -0.745224  0  3.744026  0
C  C54  1  0.76186920  0.92709234  0.08680988  1  0  -0.711767  0  3.516088  0  0  -0.75585  0  3.755435  0  0  -0.76877  0  3.759974  0  0  -0.336142  -0.746883  0  3.752424  0
C  C55  1  0.07290737  0.23813046  0.91319270  1  0  -0.711762  0  3.51603  0  0  -0.755823  0  3.755426  0  0  -0.768737  0  3.759961  0  0  -0.336142  -0.74685  0  3.752413  0
C  C56  1  0.59355637  0.69834136  0.43380129  1  0  -0.720957  0  3.509996  0  0  -0.758651  0  3.735261  0  0  -0.772275  0  3.741079  0  0  -0.335775  -0.749156  0  3.731358  0
C  C57  1  0.30165777  0.40644277  0.56619973  1  0  -0.720929  0  3.510029  0  0  -0.758625  0  3.735302  0  0  -0.772248  0  3.74112  0  0  -0.335754  -0.749128  0  3.731396  0
C  C58  1  0.71570786  0.10571761  0.38918866  1  0  0.72254  0  3.795557  0  0  0.670784  0  4.096906  0  0  0.704921  0  4.088105  0  0  0.233752  0.647654  0  4.102138  0
C  C59  1  0.89428056  0.28429466  0.61080802  1  0  0.722517  0  3.79539  0  0  0.670741  0  4.096798  0  0  0.704881  0  4.087995  0  0  0.233759  0.647595  0  4.102035  0
C  C60  1  0.64772435  0.67041273  0.89247901  1  0  -0.71299  0  3.5059  0  0  -0.751982  0  3.735945  0  0  -0.765759  0  3.741834  0  0  -0.33536  -0.742431  0  3.731991  0
C  C61  1  0.32958589  0.35228274  0.10752172  1  0  -0.712868  0  3.505935  0  0  -0.751857  0  3.735958  0  0  -0.765634  0  3.741846  0  0  -0.335326  -0.742311  0  3.732004  0
C  C62  1  0.04707160  0.61963989  0.31697296  1  0  -0.710723  0  3.505267  0  0  -0.750729  0  3.731758  0  0  -0.764528  0  3.738719  0  0  -0.333244  -0.741118  0  3.727009  0
C  C63  1  0.38035760  0.95292889  0.68302527  1  0  -0.710684  0  3.505368  0  0  -0.750664  0  3.731872  0  0  -0.764464  0  3.738836  0  0  -0.333232  -0.741052  0  3.727116  0
C  C64  1  0.81286415  0.28784086  0.20232494  1  0  0.133783  0  3.679165  0  0  0.108889  0  3.940116  0  0  0.11208  0  3.946629  0  0  -0.002662  0.106571  0  3.935657  0
C  C65  1  0.71215897  0.18713925  0.79767642  1  0  0.133645  0  3.679136  0  0  0.108881  0  3.939876  0  0  0.112075  0  3.946392  0  0  -0.002723  0.106553  0  3.93541  0
C  C66  1  0.33585350  0.85229437  0.12221623  1  0  -0.723707  0  3.509029  0  0  -0.76299  0  3.731736  0  0  -0.777157  0  3.738715  0  0  -0.341826  -0.753086  0  3.726953  0
C  C67  1  0.14770709  0.66414557  0.87778654  1  0  -0.723752  0  3.509067  0  0  -0.763051  0  3.731754  0  0  -0.777204  0  3.738748  0  0  -0.341846  -0.753143  0  3.726964  0
O  O68  1  0.83473769  0.98036402  0.35462602  1  0  -0.640355  0  2.029328  0  0  -0.556719  0  2.257472  0  0  -0.58421  0  2.249356  0  0  -0.278157  -0.537617  0  2.262438  0
O  O69  1  0.01963300  0.16525879  0.64537570  1  0  -0.64038  0  2.029167  0  0  -0.556691  0  2.257262  0  0  -0.584201  0  2.249182  0  0  -0.278172  -0.537584  0  2.262231  0
O  O70  1  0.65106748  0.56789740  0.15499308  1  0  -0.625677  0  2.030935  0  0  -0.557471  0  2.268199  0  0  -0.584305  0  2.262117  0  0  -0.283508  -0.538797  0  2.27173  0
O  O71  1  0.43210191  0.34893555  0.84500718  1  0  -0.625738  0  2.030827  0  0  -0.557548  0  2.268098  0  0  -0.584386  0  2.262029  0  0  -0.283538  -0.538874  0  2.271632  0
O  O72  1  0.98632180  0.20059915  0.19378913  1  0  -0.552353  0  2.070916  0  0  -0.508258  0  2.292167  0  0  -0.523608  0  2.283372  0  0  -0.393466  -0.497233  0  2.298103  0
O  O73  1  0.79940047  0.01368150  0.80621118  1  0  -0.55224  0  2.070854  0  0  -0.508207  0  2.292077  0  0  -0.523558  0  2.283281  0  0  -0.393411  -0.497183  0  2.298016  0
O  O74  1  0.92694907  0.51820278  0.08019247  1  0  -0.621668  0  2.080017  0  0  -0.549629  0  2.318822  0  0  -0.576288  0  2.313695  0  0  -0.272057  -0.531161  0  2.321822  0
O  O75  1  0.48180305  0.07305297  0.91981001  1  0  -0.621634  0  2.079926  0  0  -0.549604  0  2.318731  0  0  -0.57626  0  2.313607  0  0  -0.272057  -0.531137  0  2.32173  0
O  O76  1  0.60266558  0.08530633  0.47282755  1  0  -0.656389  0  2.022894  0  0  -0.592853  0  2.263677  0  0  -0.619  0  2.257413  0  0  -0.287155  -0.574646  0  2.267317  0
O  O77  1  0.91469422  0.39734102  0.52716750  1  0  -0.656326  0  2.022963  0  0  -0.592762  0  2.263723  0  0  -0.618913  0  2.257472  0  0  -0.287079  -0.574554  0  2.26737  0
