# generated using pymatgen
data_AgH31C30(NO)4
_symmetry_space_group_name_H-M   'P 1'
_cell_length_a   9.59850687
_cell_length_b   10.10396334
_cell_length_c   14.13656498
_cell_angle_alpha   97.99664204
_cell_angle_beta   91.61702357
_cell_angle_gamma   100.57504451
_symmetry_Int_Tables_number   1
_chemical_formula_structural   AgH31C30(NO)4
_chemical_formula_sum   'Ag2 H62 C60 N8 O8'
_cell_volume   1332.57901544
_cell_formula_units_Z   2
loop_
 _symmetry_equiv_pos_site_id
 _symmetry_equiv_pos_as_xyz
  1  'x, y, z'
loop_
 _atom_site_type_symbol
 _atom_site_label
 _atom_site_symmetry_multiplicity
 _atom_site_fract_x
 _atom_site_fract_y
 _atom_site_fract_z
 _atom_site_occupancy
 _atom_site_hle17_bader_spin_density
 _atom_site_hle17_ddec_charge
 _atom_site_hle17_ddec_spin_density
 _atom_site_hle17_ddec_sum_bond_order
 _atom_site_hle17_magmom
 _atom_site_hse06_10hf_bader_spin_density
 _atom_site_hse06_10hf_ddec_charge
 _atom_site_hse06_10hf_ddec_spin_density
 _atom_site_hse06_10hf_ddec_sum_bond_order
 _atom_site_hse06_10hf_magmom
 _atom_site_hse06_bader_spin_density
 _atom_site_hse06_ddec_charge
 _atom_site_hse06_ddec_spin_density
 _atom_site_hse06_ddec_sum_bond_order
 _atom_site_hse06_magmom
 _atom_site_pbe_bader_spin_density
 _atom_site_pbe_cm5_charge
 _atom_site_pbe_ddec_charge
 _atom_site_pbe_ddec_spin_density
 _atom_site_pbe_ddec_sum_bond_order
 _atom_site_pbe_magmom
Ag  Ag0  1  0.72548361  0.54284178  0.70797732  1  0  0.561077  0  1.406166  0  0  0.420059  0  1.84629  0  0  0.45122  0  1.799281  0  0  0.451858  0.397966  0  1.878817  0
Ag  Ag1  1  0.27451612  0.45715099  0.29202151  1  0  0.561055  0  1.406181  0  0  0.420037  0  1.846328  0  0  0.451194  0  1.799313  0  0  0.451881  0.397978  0  1.87886  0
H  H2  1  0.75502933  0.51856668  0.38659279  1  0  0.127404  0  0.972907  0  0  0.144961  0  1.037089  0  0  0.146204  0  1.039168  0  0  0.095822  0.144113  0  1.035681  0
H  H3  1  0.24497076  0.48143322  0.61340536  1  0  0.127429  0  0.972882  0  0  0.144983  0  1.037066  0  0  0.146225  0  1.039145  0  0  0.095839  0.144136  0  1.035653  0
H  H4  1  0.67941866  0.56322704  0.49772466  1  0  0.145052  0  0.955467  0  0  0.16512  0  1.014659  0  0  0.167441  0  1.013353  0  0  0.100505  0.163378  0  1.015757  0
H  H5  1  0.32058163  0.43677388  0.50227359  1  0  0.145035  0  0.955477  0  0  0.165111  0  1.01466  0  0  0.167432  0  1.013355  0  0  0.100514  0.163366  0  1.015761  0
H  H6  1  0.61224544  0.40392710  0.42554119  1  0  0.138579  0  0.964942  0  0  0.157189  0  1.028785  0  0  0.15985  0  1.026931  0  0  0.097989  0.155234  0  1.030276  0
H  H7  1  0.38775673  0.59607280  0.57445700  1  0  0.13857  0  0.964952  0  0  0.157184  0  1.028786  0  0  0.159845  0  1.026931  0  0  0.09797  0.155226  0  1.030276  0
H  H8  1  0.99907659  0.42796818  0.76796334  1  0  0.112109  0  0.964721  0  0  0.121474  0  1.028685  0  0  0.124637  0  1.026617  0  0  0.104261  0.119333  0  1.029757  0
H  H9  1  0.00092285  0.57203375  0.23203571  1  0  0.112109  0  0.964702  0  0  0.121465  0  1.028684  0  0  0.124628  0  1.026615  0  0  0.104273  0.119341  0  1.029746  0
H  H10  1  0.16436484  0.26329562  0.76716635  1  0  0.085751  0  0.968069  0  0  0.095889  0  1.030624  0  0  0.097883  0  1.031586  0  0  0.093304  0.094434  0  1.030086  0
H  H11  1  0.83563420  0.73670427  0.23283390  1  0  0.085774  0  0.968109  0  0  0.095924  0  1.030647  0  0  0.097916  0  1.031608  0  0  0.093318  0.094471  0  1.030108  0
H  H12  1  0.20246703  0.11840402  0.61685167  1  0  0.080682  0  0.97755  0  0  0.092176  0  1.039617  0  0  0.094419  0  1.039531  0  0  0.09393  0.090572  0  1.039678  0
H  H13  1  0.79753181  0.88159485  0.38314848  1  0  0.080656  0  0.977558  0  0  0.092145  0  1.039635  0  0  0.094389  0  1.039547  0  0  0.093912  0.09054  0  1.039699  0
H  H14  1  0.07816602  0.13314891  0.46272480  1  0  0.104605  0  0.954725  0  0  0.116044  0  1.013506  0  0  0.118964  0  1.012452  0  0  0.103577  0.113932  0  1.014398  0
H  H15  1  0.92183282  0.86684995  0.53727675  1  0  0.104599  0  0.954726  0  0  0.116059  0  1.01348  0  0  0.118982  0  1.012426  0  0  0.103598  0.113947  0  1.014365  0
H  H16  1  0.98084094  0.23657472  0.34393783  1  0  0.083221  0  0.924376  0  0  0.097124  0  0.989523  0  0  0.09863  0  0.988045  0  0  0.112306  0.095947  0  0.990476  0
H  H17  1  0.01915914  0.76342518  0.65606103  1  0  0.083237  0  0.924313  0  0  0.097141  0  0.98947  0  0  0.098646  0  0.987993  0  0  0.112326  0.095962  0  0.99042  0
H  H18  1  0.87477828  0.35213033  0.31677435  1  0  0.077514  0  0.931599  0  0  0.093808  0  0.995687  0  0  0.093876  0  0.996643  0  0  0.11193  0.093678  0  0.995049  0
H  H19  1  0.12522057  0.64786855  0.68322367  1  0  0.077485  0  0.931619  0  0  0.093785  0  0.995717  0  0  0.093852  0  0.996673  0  0  0.111938  0.093653  0  0.995074  0
H  H20  1  0.74622822  0.08199437  0.38368531  1  0  0.065307  0  0.948221  0  0  0.083748  0  1.010915  0  0  0.084002  0  1.012443  0  0  0.088149  0.083339  0  1.010166  0
H  H21  1  0.25377291  0.91800552  0.61631498  1  0  0.065325  0  0.948229  0  0  0.083734  0  1.010966  0  0  0.083988  0  1.012492  0  0  0.088136  0.08332  0  1.010224  0
H  H22  1  0.65482339  0.19199612  0.33172072  1  0  0.062117  0  0.955717  0  0  0.081329  0  1.018802  0  0  0.080857  0  1.021024  0  0  0.087568  0.081469  0  1.017416  0
H  H23  1  0.34517670  0.80800377  0.66827955  1  0  0.062077  0  0.95578  0  0  0.081305  0  1.01885  0  0  0.080828  0  1.021078  0  0  0.087566  0.081463  0  1.017434  0
H  H24  1  0.79825852  0.14989577  0.18116957  1  0  0.057599  0  0.967362  0  0  0.078815  0  1.025546  0  0  0.078833  0  1.02706  0  0  0.087235  0.078575  0  1.024924  0
H  H25  1  0.20174241  0.85010311  0.81883062  1  0  0.057598  0  0.967322  0  0  0.078833  0  1.025498  0  0  0.078851  0  1.027006  0  0  0.087248  0.078593  0  1.024871  0
H  H26  1  0.85805563  0.02164615  0.23309044  1  0  0.064811  0  0.935429  0  0  0.085109  0  0.994211  0  0  0.08529  0  0.995688  0  0  0.089326  0.084874  0  0.993181  0
H  H27  1  0.14194738  0.97835272  0.76690978  1  0  0.064761  0  0.935432  0  0  0.085088  0  0.994204  0  0  0.08525  0  0.995698  0  0  0.089309  0.08485  0  0.993173  0
H  H28  1  0.61116943  0.89327322  0.23204790  1  0  0.061508  0  0.936716  0  0  0.082803  0  0.993165  0  0  0.083043  0  0.994673  0  0  0.088106  0.08257  0  0.992196  0
H  H29  1  0.38883086  0.10672770  0.76795107  1  0  0.061503  0  0.936711  0  0  0.082773  0  0.993187  0  0  0.083015  0  0.994694  0  0  0.088091  0.082542  0  0.992218  0
H  H30  1  0.54310386  0.02802993  0.19235254  1  0  0.057183  0  0.930494  0  0  0.079042  0  0.98678  0  0  0.079454  0  0.987477  0  0  0.08495  0.078602  0  0.986445  0
H  H31  1  0.45689811  0.97196895  0.80764625  1  0  0.057214  0  0.930517  0  0  0.079061  0  0.986799  0  0  0.079472  0  0.987498  0  0  0.084957  0.078622  0  0.986461  0
H  H32  1  0.75166937  0.87735190  0.08074736  1  0  0.069631  0  0.958244  0  0  0.086709  0  1.023945  0  0  0.086407  0  1.026584  0  0  0.089993  0.086986  0  1.021759  0
H  H33  1  0.24833156  0.12264698  0.91925141  1  0  0.069612  0  0.95829  0  0  0.086707  0  1.02398  0  0  0.086406  0  1.026617  0  0  0.089995  0.086984  0  1.021792  0
H  H34  1  0.66823308  0.00131347  0.04068372  1  0  0.066796  0  0.942062  0  0  0.088142  0  0.999635  0  0  0.088149  0  1.001131  0  0  0.09067  0.088115  0  0.998463  0
H  H35  1  0.33176680  0.99868541  0.95931574  1  0  0.06678  0  0.942056  0  0  0.088135  0  0.999632  0  0  0.088142  0  1.001126  0  0  0.090658  0.088107  0  0.998462  0
H  H36  1  0.43017974  0.84690041  0.03789344  1  0  0.066251  0  0.935103  0  0  0.086686  0  0.994753  0  0  0.086785  0  0.995257  0  0  0.109828  0.086774  0  0.994068  0
H  H37  1  0.56982034  0.15309948  0.96210683  1  0  0.066253  0  0.935102  0  0  0.086683  0  0.994751  0  0  0.086783  0  0.995254  0  0  0.109827  0.086771  0  0.994066  0
H  H38  1  0.54929847  0.77321131  0.96394450  1  0  0.075869  0  0.92106  0  0  0.092449  0  0.981637  0  0  0.092972  0  0.981831  0  0  0.109754  0.09194  0  0.981727  0
H  H39  1  0.45070101  0.22678553  0.03605616  1  0  0.075859  0  0.921065  0  0  0.092434  0  0.981642  0  0  0.092958  0  0.981836  0  0  0.109758  0.091925  0  0.981741  0
H  H40  1  0.32239718  0.84255525  0.18938117  1  0  0.128154  0  0.951358  0  0  0.14534  0  1.018312  0  0  0.147874  0  1.01662  0  0  0.098977  0.14348  0  1.019441  0
H  H41  1  0.67760146  0.15744260  0.81061886  1  0  0.128197  0  0.951341  0  0  0.145385  0  1.01829  0  0  0.147911  0  1.016604  0  0  0.098991  0.14352  0  1.019422  0
H  H42  1  0.22073051  0.69194075  0.22276083  1  0  0.127864  0  0.98268  0  0  0.146816  0  1.048424  0  0  0.148959  0  1.047112  0  0  0.098287  0.145227  0  1.049478  0
H  H43  1  0.77926981  0.30805507  0.77723903  1  0  0.127899  0  0.982643  0  0  0.146848  0  1.048394  0  0  0.14899  0  1.047084  0  0  0.098302  0.145257  0  1.049445  0
H  H44  1  0.21730765  0.71862468  0.10119951  1  0  0.131048  0  0.94536  0  0  0.151999  0  1.005554  0  0  0.153656  0  1.005469  0  0  0.102261  0.151198  0  1.004691  0
H  H45  1  0.78269144  0.28137013  0.89879881  1  0  0.131054  0  0.945377  0  0  0.152016  0  1.005553  0  0  0.153673  0  1.005467  0  0  0.102295  0.151211  0  1.004693  0
H  H46  1  0.76516320  0.65295588  0.99267320  1  0  0.107463  0  0.980781  0  0  0.116898  0  1.044758  0  0  0.119224  0  1.044291  0  0  0.102732  0.115127  0  1.045277  0
H  H47  1  0.23483668  0.34704298  0.00732767  1  0  0.107517  0  0.980716  0  0  0.116901  0  1.044753  0  0  0.119226  0  1.044286  0  0  0.102727  0.115133  0  1.045278  0
H  H48  1  0.89200194  0.47347743  0.03343261  1  0  0.094292  0  0.958997  0  0  0.105653  0  1.019765  0  0  0.10846  0  1.018125  0  0  0.100658  0.103855  0  1.020342  0
H  H49  1  0.10799358  0.52652043  0.96656524  1  0  0.094371  0  0.958922  0  0  0.105747  0  1.019669  0  0  0.108555  0  1.018027  0  0  0.100689  0.103947  0  1.02025  0
H  H50  1  0.80194922  0.32362403  0.14743456  1  0  0.081724  0  1.007789  0  0  0.091923  0  1.072205  0  0  0.094439  0  1.071673  0  0  0.091866  0.090113  0  1.072844  0
H  H51  1  0.19805404  0.67637078  0.85256385  1  0  0.081794  0  1.007812  0  0  0.091935  0  1.07228  0  0  0.09445  0  1.071747  0  0  0.091888  0.090115  0  1.072919  0
H  H52  1  0.57395142  0.34399979  0.22984952  1  0  0.103531  0  0.953538  0  0  0.114516  0  1.014338  0  0  0.117547  0  1.012533  0  0  0.101587  0.112255  0  1.015857  0
H  H53  1  0.42605139  0.65599807  0.77015060  1  0  0.10353  0  0.953538  0  0  0.11451  0  1.014342  0  0  0.117541  0  1.012536  0  0  0.101597  0.112246  0  1.015859  0
H  H54  1  0.03995195  0.77161394  0.02537512  1  0  0.093866  0  0.968061  0  0  0.103316  0  1.031565  0  0  0.106732  0  1.029524  0  0  0.101789  0.101003  0  1.032545  0
H  H55  1  0.96005038  0.22839206  0.97462441  1  0  0.093777  0  0.968059  0  0  0.103251  0  1.031548  0  0  0.106668  0  1.029505  0  0  0.101746  0.100939  0  1.032525  0
H  H56  1  0.12371259  0.97314391  0.15118168  1  0  0.096347  0  0.963275  0  0  0.109159  0  1.02177  0  0  0.11229  0  1.019952  0  0  0.103772  0.106907  0  1.023044  0
H  H57  1  0.87628934  0.02686006  0.84881692  1  0  0.096385  0  0.963234  0  0  0.109213  0  1.021706  0  0  0.112345  0  1.019889  0  0  0.103809  0.10696  0  1.022976  0
H  H58  1  0.76834472  0.86844585  0.73597963  1  0  0.411484  0  0.900789  0  0  0.375  0  0.97776  0  0  0.388868  0  0.958131  0  0  0.295086  0.365349  0  0.991337  0
H  H59  1  0.23165392  0.13155200  0.26402111  1  0  0.411491  0  0.900781  0  0  0.375004  0  0.977756  0  0  0.388874  0  0.958124  0  0  0.2951  0.365356  0  0.991328  0
H  H60  1  0.47766314  0.74874628  0.46336226  1  0  0.104688  0  0.946495  0  0  0.114917  0  1.007307  0  0  0.118504  0  1.00484  0  0  0.109757  0.112331  0  1.00911  0
H  H61  1  0.52233292  0.25125970  0.53663996  1  0  0.104694  0  0.946484  0  0  0.114943  0  1.007279  0  0  0.118531  0  1.004811  0  0  0.109758  0.112359  0  1.009081  0
H  H62  1  0.64948124  0.12793050  0.64183546  1  0  0.104878  0  0.956867  0  0  0.114516  0  1.0188  0  0  0.117309  0  1.017838  0  0  0.107283  0.112563  0  1.019429  0
H  H63  1  0.35051383  0.87207040  0.35816482  1  0  0.104875  0  0.956821  0  0  0.114515  0  1.018758  0  0  0.117309  0  1.017793  0  0  0.107252  0.112562  0  1.019393  0
C  C64  1  0.70921662  0.47921746  0.44983447  1  0  -0.41385  0  3.691908  0  0  -0.490562  0  3.921274  0  0  -0.495731  0  3.92685  0  0  -0.24002  -0.486782  0  3.917704  0
C  C65  1  0.29078387  0.52078448  0.55016390  1  0  -0.413825  0  3.691877  0  0  -0.49052  0  3.921209  0  0  -0.495689  0  3.926789  0  0  -0.240017  -0.486745  0  3.917635  0
C  C66  1  0.81183079  0.41896594  0.50210205  1  0  0.412551  0  3.685482  0  0  0.384518  0  3.961905  0  0  0.403724  0  3.974552  0  0  0.231276  0.37159  0  3.953018  0
C  C67  1  0.18816742  0.58103498  0.49789617  1  0  0.412562  0  3.685395  0  0  0.384518  0  3.961847  0  0  0.403725  0  3.974493  0  0  0.231274  0.371599  0  3.95295  0
C  C68  1  0.94203237  0.36831944  0.61650278  1  0  0.133366  0  3.868752  0  0  0.129075  0  4.117955  0  0  0.132546  0  4.141858  0  0  0.074687  0.126764  0  4.101598  0
C  C69  1  0.05796564  0.63168047  0.38349462  1  0  0.133342  0  3.868797  0  0  0.129109  0  4.117901  0  0  0.132581  0  4.141803  0  0  0.074696  0.126798  0  4.101561  0
C  C70  1  0.01376605  0.36157489  0.70273669  1  0  -0.158974  0  3.764781  0  0  -0.173076  0  4.009492  0  0  -0.175734  0  4.029429  0  0  -0.097468  -0.171189  0  3.995981  0
C  C71  1  0.98623360  0.63842806  0.29726247  1  0  -0.15898  0  3.764798  0  0  -0.173115  0  4.00954  0  0  -0.175774  0  4.029477  0  0  -0.097522  -0.171247  0  3.996039  0
C  C72  1  0.10647217  0.26991396  0.70102448  1  0  -0.079847  0  3.789483  0  0  -0.094385  0  4.039551  0  0  -0.096785  0  4.062611  0  0  -0.102724  -0.092771  0  4.024148  0
C  C73  1  0.89352932  0.73009307  0.29897442  1  0  -0.079867  0  3.789585  0  0  -0.094411  0  4.039657  0  0  -0.096809  0  4.062716  0  0  -0.102717  -0.092794  0  4.024264  0
C  C74  1  0.12840486  0.18812041  0.61559090  1  0  -0.082694  0  3.798281  0  0  -0.097721  0  4.051083  0  0  -0.099823  0  4.073844  0  0  -0.104088  -0.096306  0  4.035674  0
C  C75  1  0.87159687  0.81188254  0.38440830  1  0  -0.082681  0  3.798331  0  0  -0.097712  0  4.051148  0  0  -0.099813  0  4.073908  0  0  -0.104091  -0.0963  0  4.035737  0
C  C76  1  0.05996549  0.19603793  0.52864653  1  0  -0.146279  0  3.76353  0  0  -0.16319  0  4.014563  0  0  -0.166434  0  4.035547  0  0  -0.097497  -0.161128  0  4.000839  0
C  C77  1  0.94003419  0.80395992  0.47135424  1  0  -0.146186  0  3.763527  0  0  -0.163113  0  4.014537  0  0  -0.166361  0  4.035525  0  0  -0.097471  -0.161041  0  4.000794  0
C  C78  1  0.96748023  0.28800229  0.53072515  1  0  0.105009  0  3.797113  0  0  0.094171  0  4.042514  0  0  0.097958  0  4.065784  0  0  0.089628  0.09174  0  4.026806  0
C  C79  1  0.03251862  0.71199659  0.46927358  1  0  0.10488  0  3.797265  0  0  0.094057  0  4.042609  0  0  0.097843  0  4.06588  0  0  0.089609  0.091629  0  4.026895  0
C  C80  1  0.87947257  0.26907148  0.35859542  1  0  0.01882  0  3.617914  0  0  -0.040529  0  3.875439  0  0  -0.035569  0  3.885715  0  0  -0.051574  -0.043821  0  3.868525  0
C  C81  1  0.12052647  0.73092841  0.64140413  1  0  0.018853  0  3.617794  0  0  -0.040518  0  3.875375  0  0  -0.035555  0  3.885648  0  0  -0.051604  -0.043811  0  3.868455  0
C  C82  1  0.75391904  0.15174267  0.32994951  1  0  -0.129243  0  3.687837  0  0  -0.172312  0  3.948968  0  0  -0.174085  0  3.964169  0  0  -0.166457  -0.171002  0  3.938743  0
C  C83  1  0.24608125  0.84825824  0.67005016  1  0  -0.129251  0  3.687816  0  0  -0.172323  0  3.948995  0  0  -0.174094  0  3.964189  0  0  -0.166444  -0.171021  0  3.938772  0
C  C84  1  0.76866651  0.07595343  0.23077602  1  0  -0.106223  0  3.692851  0  0  -0.142159  0  3.948091  0  0  -0.143362  0  3.963377  0  0  -0.16772  -0.141281  0  3.93781  0
C  C85  1  0.23133566  0.92404645  0.76922571  1  0  -0.106105  0  3.692713  0  0  -0.142075  0  3.947973  0  0  -0.143258  0  3.963249  0  0  -0.167707  -0.141197  0  3.937695  0
C  C86  1  0.63506320  0.97631954  0.18850885  1  0  -0.100413  0  3.686911  0  0  -0.140223  0  3.949067  0  0  -0.140924  0  3.963549  0  0  -0.168491  -0.139804  0  3.939455  0
C  C87  1  0.36493813  0.02368137  0.81149155  1  0  -0.100503  0  3.686967  0  0  -0.140271  0  3.949123  0  0  -0.140974  0  3.9636  0  0  -0.168507  -0.139858  0  3.939515  0
C  C88  1  0.65323839  0.91861832  0.08475586  1  0  -0.135585  0  3.691635  0  0  -0.177871  0  3.954567  0  0  -0.179428  0  3.969175  0  0  -0.166018  -0.176618  0  3.944553  0
C  C89  1  0.34676169  0.08138157  0.91524441  1  0  -0.135533  0  3.691652  0  0  -0.177868  0  3.954614  0  0  -0.179422  0  3.969221  0  0  -0.166008  -0.176609  0  3.944604  0
C  C90  1  0.53001544  0.80859705  0.03868707  1  0  0.022346  0  3.637728  0  0  -0.040919  0  3.898446  0  0  -0.036042  0  3.909632  0  0  -0.050176  -0.04444  0  3.89107  0
C  C91  1  0.46998464  0.19140284  0.96131320  1  0  0.022311  0  3.6378  0  0  -0.040918  0  3.898491  0  0  -0.036051  0  3.909681  0  0  -0.050194  -0.044448  0  3.891135  0
C  C92  1  0.28524797  0.73282826  0.16713360  1  0  -0.391782  0  3.704848  0  0  -0.473983  0  3.940562  0  0  -0.477858  0  3.945548  0  0  -0.231127  -0.471059  0  3.936658  0
C  C93  1  0.71475151  0.26716857  0.83286635  1  0  -0.39185  0  3.704815  0  0  -0.474092  0  3.940543  0  0  -0.477953  0  3.945545  0  0  -0.231163  -0.471163  0  3.936638  0
C  C94  1  0.40400321  0.65878041  0.15147455  1  0  0.396006  0  3.711528  0  0  0.373745  0  3.979004  0  0  0.391716  0  3.993176  0  0  0.228345  0.361792  0  3.96883  0
C  C95  1  0.59599627  0.34121641  0.84852752  1  0  0.396046  0  3.711427  0  0  0.373844  0  3.978827  0  0  0.391794  0  3.993019  0  0  0.228323  0.361891  0  3.968642  0
C  C96  1  0.60076432  0.60122395  0.09243996  1  0  0.098903  0  3.798493  0  0  0.087491  0  4.048196  0  0  0.091439  0  4.070001  0  0  0.088635  0.084212  0  4.033834  0
C  C97  1  0.39923471  0.39877592  0.90756311  1  0  0.098928  0  3.798446  0  0  0.087483  0  4.048129  0  0  0.091419  0  4.069945  0  0  0.088637  0.084204  0  4.033774  0
C  C98  1  0.72404990  0.58848343  0.04491481  1  0  -0.145037  0  3.758379  0  0  -0.166121  0  4.016194  0  0  -0.168391  0  4.03632  0  0  -0.096884  -0.163946  0  4.002227  0
C  C99  1  0.27594874  0.41151442  0.95508593  1  0  -0.144951  0  3.758316  0  0  -0.165981  0  4.016124  0  0  -0.168249  0  4.036253  0  0  -0.096822  -0.163812  0  4.002178  0
C  C100  1  0.79343099  0.48610554  0.06680902  1  0  -0.070025  0  3.771415  0  0  -0.085602  0  4.028082  0  0  -0.087993  0  4.050534  0  0  -0.098195  -0.08378  0  4.012234  0
C  C101  1  0.20657014  0.51389436  0.93319057  1  0  -0.070274  0  3.771543  0  0  -0.085872  0  4.028201  0  0  -0.088262  0  4.050653  0  0  -0.098258  -0.084049  0  4.01236  0
C  C102  1  0.74034175  0.39924523  0.13249968  1  0  -0.088619  0  3.797973  0  0  -0.108733  0  4.057552  0  0  -0.111368  0  4.080946  0  0  -0.10504  -0.107407  0  4.042394  0
C  C103  1  0.25966171  0.60075060  0.86749883  1  0  -0.088664  0  3.798034  0  0  -0.108739  0  4.05763  0  0  -0.111371  0  4.081022  0  0  -0.105108  -0.107403  0  4.042475  0
C  C104  1  0.61585286  0.41083146  0.17879863  1  0  -0.148135  0  3.752157  0  0  -0.161448  0  4.000368  0  0  -0.163762  0  4.01974  0  0  -0.09533  -0.159966  0  3.987984  0
C  C105  1  0.38414955  0.58916437  0.82119916  1  0  -0.148069  0  3.752079  0  0  -0.161392  0  4.000248  0  0  -0.163705  0  4.019615  0  0  -0.095334  -0.159904  0  3.987852  0
C  C106  1  0.54586506  0.51421573  0.15844482  1  0  0.147929  0  3.859925  0  0  0.141455  0  4.111873  0  0  0.145486  0  4.135049  0  0  0.079201  0.138314  0  4.096814  0
C  C107  1  0.45413402  0.48577907  0.84155562  1  0  0.147896  0  3.859986  0  0  0.141486  0  4.11187  0  0  0.145519  0  4.135045  0  0  0.079254  0.138344  0  4.096804  0
C  C108  1  0.90465491  0.76079187  0.85689564  1  0  0.626126  0  3.940563  0  0  0.574331  0  4.236883  0  0  0.607953  0  4.229283  0  0  0.19459  0.551701  0  4.241177  0
C  C109  1  0.09535054  0.23921414  0.14310466  1  0  0.626205  0  3.940618  0  0  0.574398  0  4.236955  0  0  0.608024  0  4.22935  0  0  0.194559  0.55178  0  4.241243  0
C  C110  1  0.95350325  0.88604567  0.92966871  1  0  -0.063127  0  3.761729  0  0  -0.040918  0  3.996409  0  0  -0.04647  0  4.017613  0  0  -0.018451  -0.037511  0  3.982227  0
C  C111  1  0.04650137  0.11396135  0.07033167  1  0  -0.063247  0  3.761909  0  0  -0.041071  0  3.996656  0  0  -0.046627  0  4.017856  0  0  -0.018504  -0.03768  0  3.982496  0
C  C112  1  0.02385950  0.87278265  0.01515259  1  0  -0.086966  0  3.757802  0  0  -0.109294  0  4.009204  0  0  -0.11022  0  4.028491  0  0  -0.08645  -0.108415  0  3.995629  0
C  C113  1  0.97614388  0.12722336  0.98484625  1  0  -0.086851  0  3.757678  0  0  -0.109187  0  4.009089  0  0  -0.110108  0  4.028372  0  0  -0.086389  -0.108302  0  3.995512  0
C  C114  1  0.07007533  0.98519128  0.08484928  1  0  -0.080651  0  3.745775  0  0  -0.103623  0  3.994208  0  0  -0.103862  0  4.013138  0  0  -0.087176  -0.103217  0  3.980864  0
C  C115  1  0.92992700  0.01481473  0.91514954  1  0  -0.080715  0  3.745708  0  0  -0.103714  0  3.994145  0  0  -0.10396  0  4.013077  0  0  -0.087223  -0.103306  0  3.980788  0
C  C116  1  0.63720439  0.85250065  0.62434693  1  0  0.642286  0  3.8395  0  0  0.592693  0  4.138501  0  0  0.625874  0  4.1298  0  0  0.227017  0.570212  0  4.143507  0
C  C117  1  0.36279292  0.14750635  0.37565543  1  0  0.642183  0  3.839602  0  0  0.592539  0  4.138651  0  0  0.625715  0  4.129956  0  0  0.226943  0.570067  0  4.143648  0
C  C118  1  0.57028660  0.93057405  0.55938729  1  0  -0.066906  0  3.760853  0  0  -0.046298  0  3.996583  0  0  -0.053189  0  4.019336  0  0  -0.012463  -0.041622  0  3.980917  0
C  C119  1  0.42970802  0.06942989  0.44061612  1  0  -0.066919  0  3.761028  0  0  -0.046274  0  3.996754  0  0  -0.053163  0  4.01951  0  0  -0.012428  -0.041606  0  3.981098  0
C  C120  1  0.48682897  0.85877070  0.47891073  1  0  -0.068874  0  3.727658  0  0  -0.094955  0  3.982533  0  0  -0.095494  0  4.001868  0  0  -0.077863  -0.094272  0  3.96863  0
C  C121  1  0.51316461  0.14123324  0.52109336  1  0  -0.068836  0  3.727649  0  0  -0.094953  0  3.982543  0  0  -0.095494  0  4.00188  0  0  -0.077816  -0.094266  0  3.968634  0
C  C122  1  0.58365087  0.07245192  0.57987120  1  0  -0.06469  0  3.711519  0  0  -0.090144  0  3.964771  0  0  -0.090247  0  3.984251  0  0  -0.080235  -0.089765  0  3.951086  0
C  C123  1  0.41634793  0.92755204  0.42012946  1  0  -0.064632  0  3.711543  0  0  -0.090109  0  3.964779  0  0  -0.090213  0  3.984258  0  0  -0.080181  -0.089732  0  3.951105  0
N  N124  1  0.84382973  0.44741711  0.59622864  1  0  -0.477496  0  3.242233  0  0  -0.413673  0  3.555043  0  0  -0.435592  0  3.565101  0  0  -0.373051  -0.398685  0  3.547635  0
N  N125  1  0.15617076  0.55258483  0.40376902  1  0  -0.477512  0  3.242185  0  0  -0.413714  0  3.554993  0  0  -0.435633  0  3.565047  0  0  -0.373057  -0.398738  0  3.547599  0
N  N126  1  0.88554609  0.32427059  0.45970096  1  0  -0.177744  0  3.474361  0  0  -0.09269  0  3.695952  0  0  -0.11065  0  3.719881  0  0  -0.244669  -0.080795  0  3.679679  0
N  N127  1  0.11445296  0.67572930  0.54029788  1  0  -0.177707  0  3.47438  0  0  -0.092656  0  3.695969  0  0  -0.110619  0  3.719899  0  0  -0.244672  -0.080757  0  3.679686  0
N  N128  1  0.50802538  0.69111579  0.08947308  1  0  -0.179108  0  3.488494  0  0  -0.092397  0  3.705753  0  0  -0.110587  0  3.730866  0  0  -0.244576  -0.079689  0  3.688478  0
N  N129  1  0.49197554  0.30888307  0.91053064  1  0  -0.179087  0  3.488446  0  0  -0.092387  0  3.705674  0  0  -0.110561  0  3.730789  0  0  -0.244535  -0.079682  0  3.688405  0
N  N130  1  0.42318699  0.55256792  0.19350352  1  0  -0.467645  0  3.222802  0  0  -0.402389  0  3.524836  0  0  -0.423987  0  3.53482  0  0  -0.366877  -0.387718  0  3.517803  0
N  N131  1  0.57681542  0.44742790  0.80649709  1  0  -0.467757  0  3.222746  0  0  -0.402545  0  3.524767  0  0  -0.424137  0  3.534754  0  0  -0.366978  -0.387868  0  3.51772  0
O  O132  1  0.82536744  0.77154471  0.78377805  1  0  -0.671  0  2.12856  0  0  -0.595626  0  2.384172  0  0  -0.624553  0  2.368354  0  0  -0.341568  -0.575297  0  2.393941  0
O  O133  1  0.17463369  0.22845518  0.21622225  1  0  -0.670976  0  2.128629  0  0  -0.595593  0  2.384248  0  0  -0.624522  0  2.36843  0  0  -0.341553  -0.57526  0  2.394009  0
O  O134  1  0.93993928  0.65127357  0.87041301  1  0  -0.6025  0  1.911345  0  0  -0.555192  0  2.146135  0  0  -0.577696  0  2.137007  0  0  -0.317885  -0.539712  0  2.151864  0
O  O135  1  0.06007239  0.34873752  0.12958934  1  0  -0.602538  0  1.911318  0  0  -0.555213  0  2.146103  0  0  -0.577723  0  2.136981  0  0  -0.317814  -0.539724  0  2.151829  0
O  O136  1  0.60911612  0.72635679  0.61428275  1  0  -0.576925  0  1.987817  0  0  -0.529045  0  2.231246  0  0  -0.5502  0  2.219173  0  0  -0.290992  -0.513988  0  2.238773  0
O  O137  1  0.39088397  0.27364310  0.38571752  1  0  -0.576832  0  1.987876  0  0  -0.528947  0  2.231341  0  0  -0.550092  0  2.219257  0  0  -0.29096  -0.513893  0  2.238875  0
O  O138  1  0.72470515  0.92984230  0.69312771  1  0  -0.571414  0  2.079539  0  0  -0.521107  0  2.295961  0  0  -0.543407  0  2.277068  0  0  -0.337481  -0.505577  0  2.308155  0
O  O139  1  0.27528822  0.07016061  0.30687839  1  0  -0.571367  0  2.079537  0  0  -0.521035  0  2.295966  0  0  -0.543335  0  2.277073  0  0  -0.337436  -0.5055  0  2.308153  0
