# generated using pymatgen
data_CuH7C5BrN3
_symmetry_space_group_name_H-M   'P 1'
_cell_length_a   6.96973152
_cell_length_b   7.20864924
_cell_length_c   8.01584240
_cell_angle_alpha   98.07409342
_cell_angle_beta   105.80050883
_cell_angle_gamma   99.95693419
_symmetry_Int_Tables_number   1
_chemical_formula_structural   CuH7C5BrN3
_chemical_formula_sum   'Cu2 H14 C10 Br2 N6'
_cell_volume   374.13367716
_cell_formula_units_Z   2
loop_
 _symmetry_equiv_pos_site_id
 _symmetry_equiv_pos_as_xyz
  1  'x, y, z'
loop_
 _atom_site_type_symbol
 _atom_site_label
 _atom_site_symmetry_multiplicity
 _atom_site_fract_x
 _atom_site_fract_y
 _atom_site_fract_z
 _atom_site_occupancy
 _atom_site_pbe_bader_spin_density
 _atom_site_pbe_cm5_charge
 _atom_site_pbe_ddec_charge
 _atom_site_pbe_ddec_spin_density
 _atom_site_pbe_ddec_sum_bond_order
 _atom_site_pbe_magmom
Cu  Cu0  1  0.85403527  0.64706099  0.01194963  1  0  0.457713  0.412897  0  2.538858  0
Cu  Cu1  1  0.14597645  0.35293398  0.98805112  1  0  0.457755  0.412923  0  2.538563  0
H  H2  1  0.05151470  0.72390682  0.34240306  1  0  0.092249  0.096839  0  1.030834  0
H  H3  1  0.94849603  0.27610256  0.65759686  1  0  0.092223  0.096789  0  1.030934  0
H  H4  1  0.54613894  0.87956507  0.79401303  1  0  0.118588  0.126104  0  1.015614  0
H  H5  1  0.45389306  0.12043989  0.20599403  1  0  0.118539  0.126078  0  1.015503  0
H  H6  1  0.69408743  0.89951886  0.15090825  1  0  0.080772  0.1344  0  1.04673  0
H  H7  1  0.30589693  0.10045474  0.84907296  1  0  0.080794  0.134407  0  1.046707  0
H  H8  1  0.97065257  0.99283411  0.18796836  1  0  0.089191  0.145444  0  1.046324  0
H  H9  1  0.02930760  0.00715682  0.81201043  1  0  0.089159  0.145392  0  1.046252  0
H  H10  1  0.58236188  0.57297096  0.22425892  1  0  0.098478  0.092086  0  1.050093  0
H  H11  1  0.41764483  0.42701543  0.77573696  1  0  0.098374  0.091891  0  1.050088  0
H  H12  1  0.77277828  0.45390280  0.32910974  1  0  0.107746  0.099716  0  1.011857  0
H  H13  1  0.22722870  0.54610366  0.67089386  1  0  0.107714  0.099571  0  1.011826  0
H  H14  1  0.47802182  0.82553761  0.42282989  1  0  0.122969  0.13193  0  1.029479  0
H  H15  1  0.52197726  0.17447903  0.57716563  1  0  0.122951  0.131858  0  1.029755  0
C  C16  1  0.89325242  0.72799600  0.27706755  1  0  -0.1624  -0.100179  0  4.042098  0
C  C17  1  0.10674449  0.27202360  0.72292034  1  0  -0.162298  -0.099958  0  4.04207  0
C  C18  1  0.61443499  0.80187820  0.70840159  1  0  0.012064  -0.049567  0  3.975769  0
C  C19  1  0.38560235  0.19814381  0.29162652  1  0  0.012086  -0.049597  0  3.975657  0
C  C20  1  0.84979055  0.87661370  0.19103228  1  0  -0.24602  -0.349124  0  3.932236  0
C  C21  1  0.15019569  0.12339292  0.80895875  1  0  -0.246036  -0.349115  0  3.931893  0
C  C22  1  0.73275727  0.59347590  0.32251336  1  0  -0.066018  -0.116905  0  3.916866  0
C  C23  1  0.26723093  0.40649022  0.67749276  1  0  -0.06597  -0.116638  0  3.916968  0
C  C24  1  0.58165220  0.77951707  0.52835748  1  0  0.02476  -0.100193  0  3.866055  0
C  C25  1  0.41837570  0.22048936  0.47164752  1  0  0.024694  -0.100035  0  3.866894  0
Br  Br26  1  0.74158661  0.29647122  0.96036571  1  0  -0.265733  -0.484061  0  1.500381  0
Br  Br27  1  0.25836014  0.70352336  0.03967513  1  0  -0.265684  -0.484027  0  1.500637  0
N  N28  1  0.75708279  0.70040077  0.77216238  1  0  -0.256176  -0.142818  0  3.688379  0
N  N29  1  0.24292482  0.29960852  0.22784550  1  0  -0.256084  -0.142616  0  3.688426  0
N  N30  1  0.81483545  0.61727741  0.64142187  1  0  -0.088902  -0.104944  0  3.087932  0
N  N31  1  0.18514996  0.38271218  0.35854674  1  0  -0.08892  -0.104938  0  3.087719  0
N  N32  1  0.70818981  0.66555498  0.49444577  1  0  -0.119351  0.2083  0  3.716104  0
N  N33  1  0.29183369  0.33443403  0.50557206  1  0  -0.119228  0.208091  0  3.715476  0
