# generated using pymatgen
data_TbH13C23N4O7
_symmetry_space_group_name_H-M   'P 1'
_cell_length_a   13.04927796
_cell_length_b   13.04931029
_cell_length_c   15.24449082
_cell_angle_alpha   93.40825257
_cell_angle_beta   93.40818526
_cell_angle_gamma   117.76994720
_symmetry_Int_Tables_number   1
_chemical_formula_structural   TbH13C23N4O7
_chemical_formula_sum   'Tb4 H52 C92 N16 O28'
_cell_volume   2281.66278299
_cell_formula_units_Z   4
loop_
 _symmetry_equiv_pos_site_id
 _symmetry_equiv_pos_as_xyz
  1  'x, y, z'
loop_
 _atom_site_type_symbol
 _atom_site_label
 _atom_site_symmetry_multiplicity
 _atom_site_fract_x
 _atom_site_fract_y
 _atom_site_fract_z
 _atom_site_occupancy
 _atom_site_pbe_bader_charge
 _atom_site_pbe_bader_spin_density
 _atom_site_pbe_cm5_charge
 _atom_site_pbe_ddec_charge
 _atom_site_pbe_ddec_spin_density
 _atom_site_pbe_ddec_sum_bond_order
 _atom_site_pbe_magmom
Tb  Tb0  1  0.61476045  0.89946296  0.42049509  1  2.129515  0  1.543173  1.843019  0  2.361791  0
Tb  Tb1  1  0.10053685  0.38523953  0.07950515  1  2.129493  0  1.543175  1.843011  0  2.3618  0
Tb  Tb2  1  0.38523913  0.10053651  0.57950407  1  2.129402  0  1.54326  1.84312  0  2.361934  0
Tb  Tb3  1  0.89946272  0.61475994  0.92049466  1  2.129367  0  1.543233  1.843051  0  2.362036  0
H  H4  1  0.26180455  0.82766760  0.62265146  1  0.13694  0  0.128069  0.102047  0  0.986466  0
H  H5  1  0.17233219  0.73819567  0.87734786  1  0.136958  0  0.128072  0.102038  0  0.986503  0
H  H6  1  0.73819504  0.17233188  0.37734705  1  0.136964  0  0.128089  0.102063  0  0.986454  0
H  H7  1  0.82766738  0.26180379  0.12265262  1  0.136974  0  0.128079  0.102042  0  0.986483  0
H  H8  1  0.07039359  0.65596830  0.64347538  1  0.077468  0  0.110366  0.115186  0  0.992556  0
H  H9  1  0.34403170  0.92960584  0.85652392  1  0.077474  0  0.110366  0.11518  0  0.992556  0
H  H10  1  0.92960686  0.34403081  0.35652381  1  0.077503  0  0.110359  0.115172  0  0.992569  0
H  H11  1  0.65596788  0.07039287  0.14347455  1  0.07749  0  0.110354  0.115187  0  0.992518  0
H  H12  1  0.89648532  0.68889101  0.65709590  1  0.104081  0  0.112197  0.111975  0  0.999171  0
H  H13  1  0.31110931  0.10351326  0.84290423  1  0.104103  0  0.112219  0.112029  0  0.999124  0
H  H14  1  0.10351424  0.31110691  0.34290514  1  0.10411  0  0.11223  0.112029  0  0.999168  0
H  H15  1  0.68889288  0.89648591  0.15709440  1  0.104143  0  0.112221  0.112004  0  0.999228  0
H  H16  1  0.91964566  0.88752353  0.64909086  1  0.119674  0  0.103242  0.110656  0  1.069517  0
H  H17  1  0.11247714  0.08035542  0.85091017  1  0.119665  0  0.10328  0.11068  0  1.069447  0
H  H18  1  0.08035390  0.11247438  0.35091018  1  0.119826  0  0.103285  0.110729  0  1.069419  0
H  H19  1  0.88752592  0.91964645  0.14908996  1  0.119839  0  0.103253  0.110671  0  1.069451  0
H  H20  1  0.94987619  0.05034600  0.64357888  1  0.109825  0  0.110962  0.123475  0  1.034114  0
H  H21  1  0.94965335  0.05012499  0.85642029  1  0.109799  0  0.110968  0.123483  0  1.034104  0
H  H22  1  0.05012425  0.94965310  0.35642162  1  0.109831  0  0.110973  0.123505  0  1.034085  0
H  H23  1  0.05034711  0.94987643  0.14357837  1  0.109822  0  0.110978  0.123515  0  1.034079  0
H  H24  1  0.20395520  0.40846666  0.64250324  1  0.056531  0  0.109388  0.114641  0  1.011206  0
H  H25  1  0.59153137  0.79604449  0.85749771  1  0.0565  0  0.109425  0.114673  0  1.011176  0
H  H26  1  0.79604523  0.59153167  0.35749722  1  0.056502  0  0.109421  0.114659  0  1.01118  0
H  H27  1  0.40846907  0.20395462  0.14250279  1  0.056483  0  0.10943  0.114668  0  1.011203  0
H  H28  1  0.37468199  0.51949860  0.67070598  1  0.052745  0  0.109861  0.114214  0  0.999011  0
H  H29  1  0.48050109  0.62531781  0.82929372  1  0.05275  0  0.10985  0.114208  0  0.999006  0
H  H30  1  0.62531758  0.48049932  0.32929441  1  0.052744  0  0.109842  0.114208  0  0.998982  0
H  H31  1  0.51950109  0.37468211  0.17070626  1  0.052736  0  0.109834  0.114193  0  0.998998  0
H  H32  1  0.57904261  0.65640913  0.64742637  1  0.13174  0  0.107177  0.105435  0  1.034897  0
H  H33  1  0.34358849  0.42095659  0.85256921  1  0.132236  0  0.107203  0.105495  0  1.034845  0
H  H34  1  0.42095608  0.34358839  0.35257395  1  0.131708  0  0.107197  0.105484  0  1.034852  0
H  H35  1  0.65641286  0.57904295  0.14742677  1  0.132244  0  0.107182  0.105464  0  1.034859  0
H  H36  1  0.70308088  0.57377111  0.58510402  1  0.079303  0  0.110183  0.112551  0  0.994085  0
H  H37  1  0.42622844  0.29691910  0.91489225  1  0.079351  0  0.110162  0.11253  0  0.99408  0
H  H38  1  0.29691869  0.42622835  0.41489580  1  0.079317  0  0.110189  0.112575  0  0.994049  0
H  H39  1  0.57377202  0.70307926  0.08510493  1  0.079343  0  0.110209  0.112557  0  0.994062  0
H  H40  1  0.61478123  0.35701871  0.55197945  1  0.125447  0  0.123663  0.092033  0  1.021237  0
H  H41  1  0.64298083  0.38522170  0.94801953  1  0.12552  0  0.123679  0.092058  0  1.021265  0
H  H42  1  0.38521923  0.64298040  0.44801909  1  0.125467  0  0.123687  0.092056  0  1.021233  0
H  H43  1  0.35702048  0.61478011  0.05198116  1  0.125508  0  0.123664  0.091981  0  1.021322  0
H  H44  1  0.84962025  0.12106818  0.56386504  1  0.129371  0  0.108485  0.109628  0  1.053681  0
H  H45  1  0.87893130  0.15037957  0.93613547  1  0.129382  0  0.108489  0.109644  0  1.053653  0
H  H46  1  0.15037931  0.87893511  0.43613761  1  0.129321  0  0.108506  0.109619  0  1.053621  0
H  H47  1  0.12106481  0.84962058  0.06386223  1  0.129315  0  0.108495  0.109611  0  1.053642  0
H  H48  1  0.72252727  0.34991146  0.66531410  1  0.110689  0  0.111416  0.11551  0  1.02676  0
H  H49  1  0.65008879  0.27747454  0.83468545  1  0.110656  0  0.111415  0.11554  0  1.026741  0
H  H50  1  0.27747057  0.65008873  0.33468566  1  0.110717  0  0.111417  0.115516  0  1.0268  0
H  H51  1  0.34991167  0.72252918  0.16531399  1  0.11071  0  0.111425  0.115514  0  1.026798  0
H  H52  1  0.07242660  0.42311769  0.74554751  1  0.115917  0  0.10778  0.117791  0  1.009806  0
H  H53  1  0.57688073  0.92757329  0.75445356  1  0.115931  0  0.107807  0.117809  0  1.009799  0
H  H54  1  0.92757471  0.57688412  0.25445384  1  0.115941  0  0.107785  0.117799  0  1.009854  0
H  H55  1  0.42311711  0.07242612  0.24554616  1  0.115993  0  0.107785  0.117799  0  1.00984  0
C  C56  1  0.18325872  0.83638781  0.62816112  1  0.467709  0  0.056629  0.109969  0  3.968167  0
C  C57  1  0.16361187  0.81674126  0.87183888  1  0.467627  0  0.056643  0.109996  0  3.968173  0
C  C58  1  0.81674085  0.16361089  0.37183865  1  0.467638  0  0.056615  0.109999  0  3.968124  0
C  C59  1  0.83638771  0.18325821  0.12816094  1  0.467717  0  0.056627  0.110029  0  3.968157  0
C  C60  1  0.07681195  0.74174429  0.63924490  1  -0.029163  0  -0.077976  -0.119083  0  3.952755  0
C  C61  1  0.25825572  0.92318769  0.86075445  1  -0.029186  0  -0.07799  -0.119072  0  3.952804  0
C  C62  1  0.92318849  0.25825404  0.36075490  1  -0.028938  0  -0.077938  -0.119043  0  3.952771  0
C  C63  1  0.74174473  0.07681066  0.13924404  1  -0.028842  0  -0.077936  -0.119082  0  3.952761  0
C  C64  1  0.98055257  0.76038380  0.64607251  1  -0.055149  0  -0.061906  -0.012534  0  3.934007  0
C  C65  1  0.23961623  0.01944573  0.85392758  1  -0.055139  0  -0.061949  -0.012641  0  3.933985  0
C  C66  1  0.01944700  0.23961489  0.35392792  1  -0.05533  0  -0.061954  -0.01263  0  3.933985  0
C  C67  1  0.76038422  0.98055338  0.14607161  1  -0.055505  0  -0.061947  -0.012586  0  3.934116  0
C  C68  1  0.99427486  0.87241541  0.64267806  1  0.004612  0  -0.080342  -0.151567  0  3.90943  0
C  C69  1  0.12758310  0.00572409  0.85732204  1  0.004804  0  -0.080364  -0.151546  0  3.909265  0
C  C70  1  0.00572557  0.12758215  0.35732302  1  0.004503  0  -0.080405  -0.151667  0  3.909226  0
C  C71  1  0.87241735  0.99427502  0.14267649  1  0.004605  0  -0.080342  -0.151578  0  3.909249  0
C  C72  1  0.10481677  0.96396547  0.63353300  1  0.497348  0  0.127019  0.185121  0  3.965256  0
C  C73  1  0.03603406  0.89518399  0.86646781  1  0.497234  0  0.127039  0.185167  0  3.965176  0
C  C74  1  0.89518279  0.03603321  0.36646875  1  0.497224  0  0.127109  0.185246  0  3.965115  0
C  C75  1  0.96396639  0.10481667  0.13353081  1  0.497269  0  0.127091  0.185216  0  3.965163  0
C  C76  1  0.12843900  0.08698610  0.63596755  1  0.466316  0  0.130478  0.207419  0  3.967521  0
C  C77  1  0.91301248  0.87156192  0.86403270  1  0.466264  0  0.130467  0.207427  0  3.967493  0
C  C78  1  0.87156142  0.91301222  0.36403422  1  0.466687  0  0.130452  0.207446  0  3.967526  0
C  C79  1  0.08698797  0.12843872  0.13596657  1  0.466244  0  0.130451  0.207409  0  3.967565  0
C  C80  1  0.03937817  0.11738463  0.64199299  1  0.015661  0  -0.069783  -0.182367  0  3.834724  0
C  C81  1  0.88261439  0.96062251  0.85800669  1  0.01595  0  -0.069811  -0.182419  0  3.834686  0
C  C82  1  0.96062225  0.88261446  0.35800948  1  0.015317  0  -0.069801  -0.182427  0  3.834616  0
C  C83  1  0.11738607  0.03937815  0.14199127  1  0.015736  0  -0.069819  -0.182443  0  3.834572  0
C  C84  1  0.06548938  0.23461647  0.64608249  1  0.004522  0  0.017888  0.138864  0  3.990796  0
C  C85  1  0.76538342  0.93451144  0.85391795  1  0.004318  0  0.017892  0.138899  0  3.990794  0
C  C86  1  0.93451019  0.76538221  0.35391859  1  0.004528  0  0.017927  0.138888  0  3.99077  0
C  C87  1  0.23461878  0.06548925  0.14608142  1  0.004434  0  0.017905  0.138853  0  3.990707  0
C  C88  1  0.18128516  0.31696470  0.64238921  1  0.005697  0  -0.075359  -0.19818  0  3.907717  0
C  C89  1  0.68303401  0.81871517  0.85761112  1  0.005712  0  -0.07541  -0.198246  0  3.907706  0
C  C90  1  0.81871441  0.68303322  0.35761118  1  0.005675  0  -0.075429  -0.198225  0  3.907693  0
C  C91  1  0.31696730  0.18128434  0.14238879  1  0.005745  0  -0.075424  -0.198211  0  3.907683  0
C  C92  1  0.26616337  0.28108951  0.63517918  1  0.537052  0  0.128599  0.200583  0  4.001899  0
C  C93  1  0.71891084  0.73383813  0.86482189  1  0.537204  0  0.128617  0.200607  0  4.001857  0
C  C94  1  0.73383794  0.71891076  0.36482209  1  0.537199  0  0.128616  0.200624  0  4.001924  0
C  C95  1  0.28108960  0.26616097  0.13517861  1  0.537088  0  0.128598  0.200634  0  4.001782  0
C  C96  1  0.38797634  0.36631434  0.62481380  1  0.476064  0  0.126981  0.179659  0  3.989983  0
C  C97  1  0.63368389  0.61202378  0.87518640  1  0.475919  0  0.127024  0.179712  0  3.989981  0
C  C98  1  0.61202410  0.63368400  0.37518600  1  0.476094  0  0.126962  0.179589  0  3.990086  0
C  C99  1  0.36631568  0.38797645  0.12481412  1  0.476239  0  0.127005  0.179575  0  3.990135  0
C  C100  1  0.43024540  0.48625362  0.64418090  1  0.043076  0  -0.080312  -0.162628  0  3.956702  0
C  C101  1  0.51374458  0.56975330  0.85581730  1  0.042736  0  -0.080311  -0.162657  0  3.956751  0
C  C102  1  0.56975418  0.51374510  0.35581691  1  0.042833  0  -0.080263  -0.16256  0  3.956685  0
C  C103  1  0.48625673  0.43024468  0.14418187  1  0.042916  0  -0.080268  -0.162545  0  3.956695  0
C  C104  1  0.54457289  0.56309427  0.63112037  1  -0.044008  0  -0.065051  -0.015499  0  3.953857  0
C  C105  1  0.43690363  0.45542620  0.86887781  1  -0.044373  0  -0.0651  -0.015567  0  3.953876  0
C  C106  1  0.45542755  0.43690407  0.36887943  1  -0.044032  0  -0.0651  -0.015561  0  3.953861  0
C  C107  1  0.56309595  0.54457174  0.13112061  1  -0.044493  0  -0.06509  -0.015576  0  3.953859  0
C  C108  1  0.61324246  0.51766038  0.59701682  1  -0.053502  0  -0.075823  -0.109471  0  3.940776  0
C  C109  1  0.48233765  0.38675887  0.90298142  1  -0.053652  0  -0.075801  -0.109443  0  3.940753  0
C  C110  1  0.38675971  0.48233876  0.40298443  1  -0.053482  0  -0.075802  -0.109491  0  3.94071  0
C  C111  1  0.51766281  0.61323948  0.09701641  1  -0.053519  0  -0.075812  -0.109393  0  3.940695  0
C  C112  1  0.56524903  0.39747557  0.57875246  1  0.496665  0  0.058645  0.1153  0  3.948796  0
C  C113  1  0.60252278  0.43475228  0.92124773  1  0.496637  0  0.058668  0.115325  0  3.948724  0
C  C114  1  0.43475141  0.60252353  0.42124804  1  0.496695  0  0.058639  0.115292  0  3.948813  0
C  C115  1  0.39747766  0.56524682  0.07875277  1  0.496692  0  0.058656  0.115319  0  3.948881  0
C  C116  1  0.97355257  0.26949207  0.65203985  1  0.080959  0  -0.010384  0.050603  0  4.005513  0
C  C117  1  0.73050564  0.02644687  0.84796121  1  0.08088  0  -0.010396  0.050561  0  4.005472  0
C  C118  1  0.02644526  0.73050811  0.34796056  1  0.080893  0  -0.010411  0.050554  0  4.005454  0
C  C119  1  0.26949308  0.97355526  0.15203871  1  0.080903  0  -0.010378  0.050606  0  4.005387  0
C  C120  1  0.86520523  0.19949099  0.60433161  1  -0.161074  0  -0.072859  -0.118043  0  3.91773  0
C  C121  1  0.80050759  0.13479485  0.89566890  1  -0.160982  0  -0.072869  -0.118083  0  3.917719  0
C  C122  1  0.13479523  0.80051197  0.39566713  1  -0.161054  0  -0.072839  -0.118014  0  3.917872  0
C  C123  1  0.19948851  0.86520452  0.10433138  1  -0.161024  0  -0.072854  -0.118057  0  3.917903  0
C  C124  1  0.77506852  0.22825079  0.60751937  1  0.022364  0  -0.018559  -0.052453  0  3.986925  0
C  C125  1  0.77174928  0.22493208  0.89248066  1  0.022166  0  -0.01855  -0.052437  0  3.986828  0
C  C126  1  0.22493018  0.77175824  0.39248354  1  0.022296  0  -0.018571  -0.052379  0  3.986975  0
C  C127  1  0.22824249  0.77506987  0.10751690  1  0.022136  0  -0.018609  -0.052413  0  3.986988  0
C  C128  1  0.79318520  0.32846100  0.65936212  1  -0.03501  0  -0.068856  -0.091935  0  3.909888  0
C  C129  1  0.67153787  0.20681520  0.84063853  1  -0.034804  0  -0.068857  -0.092024  0  3.909869  0
C  C130  1  0.20681610  0.67154234  0.34064062  1  -0.035518  0  -0.068853  -0.092043  0  3.909669  0
C  C131  1  0.32845824  0.79318495  0.15935982  1  -0.034704  0  -0.068868  -0.092036  0  3.909719  0
C  C132  1  0.90098545  0.39955040  0.70743866  1  -0.042823  0  -0.017107  -0.027663  0  3.969609  0
C  C133  1  0.60044858  0.09901682  0.79256143  1  -0.042911  0  -0.017125  -0.027578  0  3.969523  0
C  C134  1  0.09901673  0.60045182  0.29256276  1  -0.042289  0  -0.017146  -0.027612  0  3.969555  0
C  C135  1  0.39955012  0.90098378  0.20743840  1  -0.042986  0  -0.017128  -0.027645  0  3.969656  0
C  C136  1  0.99114857  0.36989635  0.70402050  1  -0.052409  0  -0.071964  -0.121499  0  3.887346  0
C  C137  1  0.63010180  0.00885291  0.79598009  1  -0.052508  0  -0.071951  -0.121487  0  3.887217  0
C  C138  1  0.00885186  0.63010198  0.29597996  1  -0.052494  0  -0.071923  -0.121465  0  3.887316  0
C  C139  1  0.36989864  0.99114696  0.20402045  1  -0.052473  0  -0.071893  -0.121407  0  3.887267  0
C  C140  1  0.65939102  0.14864292  0.55697913  1  1.62294  0  0.245084  0.66386  0  4.134541  0
C  C141  1  0.85135608  0.34060983  0.94302153  1  1.623075  0  0.245132  0.663972  0  4.134379  0
C  C142  1  0.34061727  0.85135450  0.44301842  1  1.623208  0  0.245206  0.663902  0  4.134668  0
C  C143  1  0.14864432  0.65938310  0.05698192  1  1.623211  0  0.245245  0.663948  0  4.134587  0
C  C144  1  0.91573837  0.50142840  0.76820668  1  1.511516  0  0.178665  0.552829  0  4.249346  0
C  C145  1  0.49857005  0.08426331  0.73179471  1  1.511609  0  0.178667  0.552725  0  4.249314  0
C  C146  1  0.08426468  0.49857116  0.23179398  1  1.511545  0  0.178658  0.552701  0  4.249367  0
C  C147  1  0.50142951  0.91573691  0.26820712  1  1.511681  0  0.178674  0.55277  0  4.249349  0
N  N148  1  0.19724697  0.94476006  0.62503922  1  -1.233583  0  -0.38921  -0.376217  0  3.513205  0
N  N149  1  0.05523929  0.80275380  0.87496086  1  -1.233528  0  -0.389231  -0.376271  0  3.5132  0
N  N150  1  0.80275260  0.05523863  0.37496121  1  -1.233599  0  -0.389254  -0.376308  0  3.513228  0
N  N151  1  0.94476029  0.19724644  0.12503835  1  -1.23356  0  -0.389247  -0.376302  0  3.513269  0
N  N152  1  0.24048477  0.16800148  0.63278844  1  -1.239065  0  -0.365635  -0.394673  0  3.440465  0
N  N153  1  0.83199873  0.75951720  0.86721325  1  -1.239084  0  -0.365589  -0.394619  0  3.44052  0
N  N154  1  0.75951567  0.83199762  0.36721272  1  -1.239118  0  -0.365591  -0.394672  0  3.440536  0
N  N155  1  0.16800171  0.24048343  0.13278799  1  -1.239097  0  -0.3656  -0.394658  0  3.440483  0
N  N156  1  0.45598005  0.32268816  0.59343505  1  -1.224622  0  -0.365879  -0.35097  0  3.453793  0
N  N157  1  0.67731126  0.54402153  0.90656589  1  -1.224565  0  -0.365922  -0.351044  0  3.453823  0
N  N158  1  0.54402039  0.67730941  0.40656406  1  -1.224792  0  -0.365859  -0.350965  0  3.453879  0
N  N159  1  0.32269090  0.45597914  0.09343676  1  -1.224766  0  -0.365879  -0.350967  0  3.453958  0
N  N160  1  0.69764070  0.86502283  0.59419174  1  0.807104  0  0.081933  0.717511  0  4.419144  0
N  N161  1  0.13497932  0.30236121  0.90581018  1  0.807327  0  0.081933  0.717472  0  4.419351  0
N  N162  1  0.30235976  0.13497936  0.40580695  1  0.807092  0  0.081857  0.717368  0  4.419653  0
N  N163  1  0.86502024  0.69764054  0.09419238  1  0.807104  0  0.081843  0.717413  0  4.419472  0
O  O164  1  0.64883281  0.05909805  0.51214480  1  -1.199913  0  -0.402778  -0.651105  0  2.394904  0
O  O165  1  0.94090233  0.35116765  0.98785653  1  -1.199833  0  -0.402804  -0.651129  0  2.394779  0
O  O166  1  0.35117632  0.94091662  0.48786226  1  -1.199983  0  -0.402993  -0.651272  0  2.394325  0
O  O167  1  0.05908247  0.64882336  0.01213810  1  -1.199988  0  -0.402979  -0.651242  0  2.394322  0
O  O168  1  0.57910078  0.17719770  0.56275695  1  -1.19393  0  -0.407702  -0.642481  0  2.362761  0
O  O169  1  0.82280091  0.42089939  0.93724371  1  -1.193931  0  -0.407735  -0.642528  0  2.362735  0
O  O170  1  0.42089006  0.82280608  0.43724918  1  -1.193991  0  -0.407661  -0.642344  0  2.36332  0
O  O171  1  0.17719350  0.57910918  0.06275238  1  -1.193968  0  -0.40768  -0.642363  0  2.363294  0
O  O172  1  0.83434258  0.53042404  0.76764662  1  -1.177866  0  -0.388138  -0.634371  0  2.183309  0
O  O173  1  0.46957449  0.16565866  0.73235284  1  -1.177922  0  -0.388151  -0.63435  0  2.183285  0
O  O174  1  0.16565699  0.46957543  0.23235385  1  -1.177928  0  -0.388071  -0.634259  0  2.1835  0
O  O175  1  0.53042684  0.83434547  0.26764732  1  -1.17789  0  -0.388093  -0.63431  0  2.183445  0
O  O176  1  0.00630203  0.55313979  0.82337184  1  -1.167213  0  -0.377216  -0.607112  0  2.200808  0
O  O177  1  0.44685818  0.99370068  0.67662947  1  -1.167178  0  -0.377213  -0.607084  0  2.200792  0
O  O178  1  0.99369841  0.44685931  0.17662866  1  -1.167198  0  -0.37724  -0.607086  0  2.200632  0
O  O179  1  0.55313965  0.00630256  0.32337243  1  -1.167257  0  -0.377236  -0.607109  0  2.200725  0
O  O180  1  0.58981297  0.83005179  0.57274066  1  -0.544141  0  -0.215748  -0.481096  0  2.010129  0
O  O181  1  0.16994822  0.41018930  0.92725663  1  -0.544167  0  -0.21574  -0.481095  0  2.010131  0
O  O182  1  0.41019183  0.16994707  0.42725679  1  -0.544205  0  -0.215718  -0.481037  0  2.009978  0
O  O183  1  0.83005222  0.58980827  0.07274379  1  -0.544194  0  -0.215708  -0.481066  0  2.009911  0
O  O184  1  0.76830387  0.91686336  0.53697217  1  -0.584101  0  -0.233264  -0.515118  0  2.072291  0
O  O185  1  0.08314269  0.23170100  0.96303275  1  -0.584353  0  -0.233307  -0.515164  0  2.072498  0
O  O186  1  0.23170177  0.08314201  0.46303223  1  -0.584125  0  -0.233336  -0.515206  0  2.072437  0
O  O187  1  0.91685775  0.76829887  0.03696714  1  -0.584143  0  -0.233301  -0.515178  0  2.072399  0
O  O188  1  0.73378427  0.84908779  0.66689022  1  -0.50119  0  -0.156129  -0.393911  0  1.978304  0
O  O189  1  0.15091260  0.26621439  0.83311272  1  -0.501083  0  -0.156096  -0.393844  0  1.978358  0
O  O190  1  0.26621787  0.15091286  0.33311505  1  -0.501072  0  -0.156036  -0.393762  0  1.978856  0
O  O191  1  0.84908612  0.73378238  0.16688493  1  -0.501077  0  -0.156056  -0.393793  0  1.978774  0
