# generated using pymatgen
data_CdH16C18(IN3)2
_symmetry_space_group_name_H-M   'P 1'
_cell_length_a   4.37349457
_cell_length_b   15.55447029
_cell_length_c   15.54783642
_cell_angle_alpha   112.48531602
_cell_angle_beta   90.00666822
_cell_angle_gamma   98.08769418
_symmetry_Int_Tables_number   1
_chemical_formula_structural   CdH16C18(IN3)2
_chemical_formula_sum   'Cd2 H32 C36 I4 N12'
_cell_volume   965.86905472
_cell_formula_units_Z   2
loop_
 _symmetry_equiv_pos_site_id
 _symmetry_equiv_pos_as_xyz
  1  'x, y, z'
loop_
 _atom_site_type_symbol
 _atom_site_label
 _atom_site_symmetry_multiplicity
 _atom_site_fract_x
 _atom_site_fract_y
 _atom_site_fract_z
 _atom_site_occupancy
 _atom_site_hle17_bader_spin_density
 _atom_site_hle17_ddec_charge
 _atom_site_hle17_ddec_spin_density
 _atom_site_hle17_ddec_sum_bond_order
 _atom_site_hle17_magmom
 _atom_site_hse06_10hf_bader_spin_density
 _atom_site_hse06_10hf_ddec_charge
 _atom_site_hse06_10hf_ddec_spin_density
 _atom_site_hse06_10hf_ddec_sum_bond_order
 _atom_site_hse06_10hf_magmom
 _atom_site_hse06_bader_spin_density
 _atom_site_hse06_ddec_charge
 _atom_site_hse06_ddec_spin_density
 _atom_site_hse06_ddec_sum_bond_order
 _atom_site_hse06_magmom
 _atom_site_pbe_bader_spin_density
 _atom_site_pbe_cm5_charge
 _atom_site_pbe_ddec_charge
 _atom_site_pbe_ddec_spin_density
 _atom_site_pbe_ddec_sum_bond_order
 _atom_site_pbe_magmom
Cd  Cd0  1  0.46041580  0.00001641  0.74998490  1  0  0.799694  0  2.013436  0  0  0.653954  0  2.433602  0  0  0.70406  0  2.400457  0  0  0.501546  0.618584  0  2.456588  0
Cd  Cd1  1  0.53956250  0.99998683  0.25001871  1  0  0.799601  0  2.013531  0  0  0.653814  0  2.433763  0  0  0.70391  0  2.400638  0  0  0.501511  0.618488  0  2.456664  0
H  H2  1  0.10444061  0.76605684  0.66891746  1  0  0.087943  0  0.955523  0  0  0.095511  0  1.024249  0  0  0.098079  0  1.021195  0  0  0.120822  0.093602  0  1.026497  0
H  H3  1  0.33948288  0.23404716  0.83127654  1  0  0.088334  0  0.9549  0  0  0.096103  0  1.023342  0  0  0.09869  0  1.02026  0  0  0.120771  0.094187  0  1.025589  0
H  H4  1  0.89558996  0.23395490  0.33109114  1  0  0.088011  0  0.955414  0  0  0.09554  0  1.024151  0  0  0.098108  0  1.021097  0  0  0.120834  0.093628  0  1.026399  0
H  H5  1  0.66053598  0.76595033  0.16872050  1  0  0.088263  0  0.954895  0  0  0.096059  0  1.023324  0  0  0.098646  0  1.020241  0  0  0.120752  0.094146  0  1.025571  0
H  H6  1  0.76247920  0.89382944  0.89554922  1  0  0.105269  0  0.962785  0  0  0.108953  0  1.039306  0  0  0.112674  0  1.034101  0  0  0.120322  0.106238  0  1.042882  0
H  H7  1  0.86909755  0.10626779  0.60451812  1  0  0.105322  0  0.962614  0  0  0.10903  0  1.039099  0  0  0.112732  0  1.033937  0  0  0.120044  0.106343  0  1.042651  0
H  H8  1  0.23753231  0.10617619  0.10446554  1  0  0.105159  0  0.962756  0  0  0.108824  0  1.039294  0  0  0.11253  0  1.034105  0  0  0.120335  0.106111  0  1.042864  0
H  H9  1  0.13090529  0.89372967  0.39547761  1  0  0.105382  0  0.962572  0  0  0.10909  0  1.039054  0  0  0.112793  0  1.03389  0  0  0.120095  0.106404  0  1.042607  0
H  H10  1  0.86436443  0.74953140  0.91827437  1  0  0.087365  0  0.948363  0  0  0.100234  0  1.018364  0  0  0.101223  0  1.017763  0  0  0.104668  0.099504  0  1.01882  0
H  H11  1  0.11499893  0.25061533  0.58179478  1  0  0.086822  0  0.949046  0  0  0.099774  0  1.01919  0  0  0.100722  0  1.018566  0  0  0.104553  0.099004  0  1.019691  0
H  H12  1  0.13565107  0.25046850  0.08173447  1  0  0.087419  0  0.948449  0  0  0.100256  0  1.01843  0  0  0.101247  0  1.017828  0  0  0.104685  0.099527  0  1.018884  0
H  H13  1  0.88500690  0.74938353  0.41820146  1  0  0.086808  0  0.94905  0  0  0.099763  0  1.019176  0  0  0.100699  0  1.018565  0  0  0.10458  0.099007  0  1.019666  0
H  H14  1  0.84454576  0.65283351  0.80893210  1  0  0.09344  0  0.941353  0  0  0.102977  0  1.013311  0  0  0.104098  0  1.012774  0  0  0.114426  0.102196  0  1.013671  0
H  H15  1  0.19222282  0.34732760  0.69110325  1  0  0.093441  0  0.94178  0  0  0.103353  0  1.013372  0  0  0.104466  0  1.012776  0  0  0.114625  0.102556  0  1.013755  0
H  H16  1  0.15548354  0.34717112  0.19107137  1  0  0.093488  0  0.941407  0  0  0.102977  0  1.013386  0  0  0.104098  0  1.012849  0  0  0.114415  0.102195  0  1.013741  0
H  H17  1  0.80778902  0.65267414  0.30889661  1  0  0.09346  0  0.941874  0  0  0.103334  0  1.013488  0  0  0.104447  0  1.012891  0  0  0.114624  0.102536  0  1.013877  0
H  H18  1  0.58257510  0.50410054  0.80064954  1  0  0.090208  0  0.968696  0  0  0.097608  0  1.038799  0  0  0.100417  0  1.037761  0  0  0.096927  0.095592  0  1.039637  0
H  H19  1  0.07840083  0.49600243  0.69944519  1  0  0.091016  0  0.968447  0  0  0.098453  0  1.03846  0  0  0.101297  0  1.037381  0  0  0.097169  0.096421  0  1.039297  0
H  H20  1  0.41744222  0.49589845  0.19935125  1  0  0.090235  0  0.968794  0  0  0.097674  0  1.038826  0  0  0.100485  0  1.037788  0  0  0.096964  0.095657  0  1.039667  0
H  H21  1  0.92161017  0.50399763  0.30054377  1  0  0.090974  0  0.968489  0  0  0.098389  0  1.038527  0  0  0.101235  0  1.037449  0  0  0.09713  0.096359  0  1.039361  0
H  H22  1  0.24941455  0.41007199  0.86767262  1  0  0.084941  0  0.978559  0  0  0.094422  0  1.045413  0  0  0.097298  0  1.043557  0  0  0.096702  0.092355  0  1.046834  0
H  H23  1  0.83928105  0.58998969  0.63237792  1  0  0.084805  0  0.978317  0  0  0.094627  0  1.044932  0  0  0.097519  0  1.043024  0  0  0.096686  0.092539  0  1.046373  0
H  H24  1  0.75058178  0.58992615  0.13232272  1  0  0.084894  0  0.978641  0  0  0.094461  0  1.045384  0  0  0.097339  0  1.043523  0  0  0.096702  0.092396  0  1.046807  0
H  H25  1  0.16070959  0.41000624  0.36761276  1  0  0.084927  0  0.978279  0  0  0.094748  0  1.044886  0  0  0.097648  0  1.042969  0  0  0.096704  0.092659  0  1.046326  0
H  H26  1  0.01346270  0.66407173  0.07826172  1  0  0.078571  0  0.98266  0  0  0.088895  0  1.048458  0  0  0.091326  0  1.047447  0  0  0.092901  0.087112  0  1.049326  0
H  H27  1  0.34956430  0.33591034  0.42174740  1  0  0.0785  0  0.983053  0  0  0.088887  0  1.048744  0  0  0.091264  0  1.047805  0  0  0.092969  0.087154  0  1.049515  0
H  H28  1  0.98652475  0.33592695  0.92172803  1  0  0.078511  0  0.982723  0  0  0.088827  0  1.048547  0  0  0.091257  0  1.047537  0  0  0.092821  0.087057  0  1.049396  0
H  H29  1  0.65037610  0.66408112  0.57825905  1  0  0.0785  0  0.982911  0  0  0.088847  0  1.048671  0  0  0.091247  0  1.047704  0  0  0.092957  0.087104  0  1.049452  0
H  H30  1  0.35250891  0.75771638  0.01191503  1  0  0.081585  0  0.992699  0  0  0.088165  0  1.066705  0  0  0.091229  0  1.064762  0  0  0.078066  0.085789  0  1.06844  0
H  H31  1  0.59475914  0.24232282  0.48815147  1  0  0.081589  0  0.992769  0  0  0.088166  0  1.066721  0  0  0.091213  0  1.064793  0  0  0.078164  0.085809  0  1.06843  0
H  H32  1  0.64749655  0.24228174  0.98807966  1  0  0.081612  0  0.992689  0  0  0.088228  0  1.066651  0  0  0.09129  0  1.064717  0  0  0.078108  0.085866  0  1.068372  0
H  H33  1  0.40521835  0.75767422  0.51185506  1  0  0.081593  0  0.992727  0  0  0.088206  0  1.066635  0  0  0.091255  0  1.064704  0  0  0.078152  0.085844  0  1.068356  0
C  C34  1  0.26699276  0.77572778  0.72582222  1  0  0.189572  0  3.725085  0  0  0.136526  0  4.015209  0  0  0.147952  0  4.028358  0  0  0.136187  0.129188  0  4.00588  0
C  C35  1  0.49218803  0.22436988  0.77435192  1  0  0.188819  0  3.724074  0  0  0.13558  0  4.014443  0  0  0.146982  0  4.02762  0  0  0.135726  0.128249  0  4.005102  0
C  C36  1  0.73303961  0.22427843  0.27418826  1  0  0.189444  0  3.724605  0  0  0.136446  0  4.014719  0  0  0.147873  0  4.02787  0  0  0.136174  0.129112  0  4.005384  0
C  C37  1  0.50781290  0.77562833  0.22564602  1  0  0.188851  0  3.724182  0  0  0.135579  0  4.014579  0  0  0.146978  0  4.027762  0  0  0.135734  0.128246  0  4.00524  0
C  C38  1  0.60089378  0.84315181  0.84045169  1  0  0.169994  0  3.634517  0  0  0.095422  0  3.896275  0  0  0.110147  0  3.907904  0  0  0.153076  0.086163  0  3.887997  0
C  C39  1  0.75856796  0.15696664  0.65968466  1  0  0.170611  0  3.632718  0  0  0.095796  0  3.894043  0  0  0.110534  0  3.905707  0  0  0.152989  0.08649  0  3.885743  0
C  C40  1  0.39912295  0.15685512  0.15955969  1  0  0.17019  0  3.633986  0  0  0.095729  0  3.8958  0  0  0.110467  0  3.907441  0  0  0.15318  0.08647  0  3.887519  0
C  C41  1  0.24144214  0.84303160  0.34031458  1  0  0.170705  0  3.632667  0  0  0.09583  0  3.893997  0  0  0.110569  0  3.90566  0  0  0.153012  0.086519  0  3.885705  0
C  C42  1  0.70571023  0.69662321  0.86220594  1  0  -0.062065  0  3.656485  0  0  -0.139747  0  3.902077  0  0  -0.135693  0  3.912499  0  0  -0.048215  -0.142258  0  3.894948  0
C  C43  1  0.00945156  0.30353077  0.63787198  1  0  -0.060737  0  3.657113  0  0  -0.139458  0  3.903696  0  0  -0.135188  0  3.913806  0  0  -0.048217  -0.14196  0  3.896598  0
C  C44  1  0.29430500  0.30338071  0.13779728  1  0  -0.062425  0  3.656519  0  0  -0.13988  0  3.901967  0  0  -0.135835  0  3.912397  0  0  -0.04822  -0.142384  0  3.894828  0
C  C45  1  0.99054971  0.69646813  0.36212556  1  0  -0.060728  0  3.657318  0  0  -0.139394  0  3.903786  0  0  -0.135112  0  3.913898  0  0  -0.04822  -0.141922  0  3.896707  0
C  C46  1  0.48880182  0.63792031  0.90036339  1  0  0.069632  0  3.764789  0  0  0.090303  0  4.000602  0  0  0.089398  0  4.024832  0  0  -0.0179  0.091027  0  3.983971  0
C  C47  1  0.85092574  0.36215367  0.59971739  1  0  0.069463  0  3.764392  0  0  0.089631  0  4.001336  0  0  0.08868  0  4.025549  0  0  -0.018105  0.090346  0  3.984714  0
C  C48  1  0.51119748  0.36207920  0.09963115  1  0  0.069913  0  3.764804  0  0  0.090476  0  4.00067  0  0  0.08958  0  4.024893  0  0  -0.01788  0.091201  0  3.984043  0
C  C49  1  0.14905657  0.63784389  0.40028225  1  0  0.069544  0  3.764317  0  0  0.089606  0  4.00136  0  0  0.088654  0  4.025576  0  0  -0.018127  0.090324  0  3.984746  0
C  C50  1  0.45413128  0.53965782  0.86095266  1  0  -0.109746  0  3.751724  0  0  -0.128236  0  3.998368  0  0  -0.130123  0  4.018877  0  0  -0.090753  -0.12689  0  3.984419  0
C  C51  1  0.91427469  0.46042752  0.63913652  1  0  -0.110765  0  3.751198  0  0  -0.129154  0  3.998026  0  0  -0.131074  0  4.018569  0  0  -0.090776  -0.127784  0  3.98408  0
C  C52  1  0.54586634  0.46033833  0.13904647  1  0  -0.109855  0  3.751843  0  0  -0.128347  0  3.998485  0  0  -0.130238  0  4.018994  0  0  -0.090767  -0.127002  0  3.98454  0
C  C53  1  0.08572426  0.53957130  0.36085842  1  0  -0.110707  0  3.751197  0  0  -0.12902  0  3.998011  0  0  -0.130948  0  4.018561  0  0  -0.090746  -0.127653  0  3.984065  0
C  C54  1  0.26350054  0.48620038  0.89973215  1  0  -0.093186  0  3.723581  0  0  -0.11574  0  3.973936  0  0  -0.11805  0  3.994478  0  0  -0.087197  -0.114085  0  3.959972  0
C  C55  1  0.77712699  0.51385426  0.60030610  1  0  -0.093101  0  3.72283  0  0  -0.115749  0  3.973024  0  0  -0.118071  0  3.993611  0  0  -0.08728  -0.114082  0  3.959023  0
C  C56  1  0.73650038  0.51379781  0.10026514  1  0  -0.093074  0  3.723291  0  0  -0.115702  0  3.97363  0  0  -0.118016  0  3.994174  0  0  -0.087161  -0.114048  0  3.95967  0
C  C57  1  0.22285982  0.48614315  0.39968834  1  0  -0.093229  0  3.722781  0  0  -0.115936  0  3.972974  0  0  -0.118262  0  3.993555  0  0  -0.087256  -0.114265  0  3.958982  0
C  C58  1  0.09934062  0.52842609  0.97892635  1  0  0.05464  0  3.759356  0  0  0.072145  0  3.981277  0  0  0.072285  0  4.005547  0  0  -0.003204  0.072029  0  3.964864  0
C  C59  1  0.57094213  0.47156875  0.52105239  1  0  0.054913  0  3.759928  0  0  0.072114  0  3.982378  0  0  0.072259  0  4.006633  0  0  -0.003329  0.072024  0  3.965919  0
C  C60  1  0.90064683  0.47157260  0.02106340  1  0  0.054489  0  3.759225  0  0  0.072018  0  3.981155  0  0  0.072164  0  4.005422  0  0  -0.003302  0.0719  0  3.964746  0
C  C61  1  0.42903228  0.52842672  0.47894713  1  0  0.054756  0  3.760016  0  0  0.07211  0  3.982342  0  0  0.072258  0  4.006598  0  0  -0.003371  0.071992  0  3.965914  0
C  C62  1  0.13478360  0.62738933  0.01710050  1  0  -0.097162  0  3.74713  0  0  -0.116112  0  3.990641  0  0  -0.119242  0  4.013846  0  0  -0.090605  -0.113893  0  3.97482  0
C  C63  1  0.50757118  0.37259663  0.48291181  1  0  -0.097029  0  3.747661  0  0  -0.115753  0  3.991079  0  0  -0.11889  0  4.014313  0  0  -0.090466  -0.11354  0  3.975257  0
C  C64  1  0.86519960  0.37261001  0.98288755  1  0  -0.097083  0  3.746873  0  0  -0.116024  0  3.990344  0  0  -0.119155  0  4.01355  0  0  -0.090488  -0.113811  0  3.974532  0
C  C65  1  0.49238167  0.62739688  0.51709280  1  0  -0.096778  0  3.747729  0  0  -0.115531  0  3.991119  0  0  -0.118665  0  4.014327  0  0  -0.090376  -0.113315  0  3.975325  0
C  C66  1  0.32725023  0.68101360  0.97921052  1  0  -0.126608  0  3.774105  0  0  -0.14378  0  4.019629  0  0  -0.147002  0  4.042178  0  0  -0.102486  -0.141422  0  4.004225  0
C  C67  1  0.64629803  0.31900865  0.52084848  1  0  -0.126609  0  3.773976  0  0  -0.14366  0  4.019839  0  0  -0.146839  0  4.042295  0  0  -0.102651  -0.141341  0  4.004496  0
C  C68  1  0.67274711  0.31898656  0.02078234  1  0  -0.126777  0  3.774022  0  0  -0.143947  0  4.01956  0  0  -0.147172  0  4.042105  0  0  -0.102598  -0.141601  0  4.004148  0
C  C69  1  0.35366697  0.68098630  0.47915794  1  0  -0.126751  0  3.7741  0  0  -0.143809  0  4.020004  0  0  -0.146991  0  4.04247  0  0  -0.102667  -0.141475  0  4.004622  0
I  I70  1  0.93205531  0.91711695  0.60571865  1  0  -0.481826  0  1.098326  0  0  -0.433538  0  1.423915  0  0  -0.453673  0  1.402179  0  0  -0.2236  -0.418958  0  1.439543  0
I  I71  1  0.01506409  0.08290239  0.89422886  1  0  -0.481916  0  1.098465  0  0  -0.433704  0  1.424028  0  0  -0.453792  0  1.402275  0  0  -0.223711  -0.419206  0  1.439718  0
I  I72  1  0.06789106  0.08287732  0.39428816  1  0  -0.481818  0  1.09839  0  0  -0.4335  0  1.423958  0  0  -0.453602  0  1.402169  0  0  -0.223582  -0.418959  0  1.439624  0
I  I73  1  0.98495986  0.91710984  0.10577220  1  0  -0.481909  0  1.098457  0  0  -0.433667  0  1.424002  0  0  -0.453757  0  1.402254  0  0  -0.223726  -0.419179  0  1.439672  0
N  N74  1  0.42520585  0.86166468  0.78103935  1  0  -0.40958  0  3.257761  0  0  -0.332173  0  3.534988  0  0  -0.35729  0  3.555013  0  0  -0.355111  -0.315093  0  3.520586  0
N  N75  1  0.56434930  0.13843802  0.71909454  1  0  -0.40963  0  3.256919  0  0  -0.332337  0  3.534354  0  0  -0.357464  0  3.554391  0  0  -0.354593  -0.315248  0  3.519947  0
N  N76  1  0.57481283  0.13834158  0.21897307  1  0  -0.409631  0  3.257365  0  0  -0.332236  0  3.534561  0  0  -0.357354  0  3.55458  0  0  -0.3552  -0.315155  0  3.520153  0
N  N77  1  0.43565284  0.86155803  0.28090069  1  0  -0.409543  0  3.25698  0  0  -0.332237  0  3.534406  0  0  -0.357366  0  3.554451  0  0  -0.35451  -0.315149  0  3.520003  0
N  N78  1  0.33547973  0.70562906  0.74745541  1  0  -0.262379  0  2.845992  0  0  -0.256316  0  3.114983  0  0  -0.263449  0  3.128237  0  0  -0.215914  -0.251267  0  3.105994  0
N  N79  1  0.63071490  0.29447038  0.75270717  1  0  -0.261437  0  2.846272  0  0  -0.255661  0  3.115025  0  0  -0.262821  0  3.128314  0  0  -0.215387  -0.250605  0  3.106031  0
N  N80  1  0.66455099  0.29437841  0.25254972  1  0  -0.262496  0  2.845686  0  0  -0.256369  0  3.114704  0  0  -0.263501  0  3.127955  0  0  -0.215924  -0.251315  0  3.105713  0
N  N81  1  0.36929481  0.70552711  0.24728987  1  0  -0.26133  0  2.846042  0  0  -0.255612  0  3.114791  0  0  -0.262771  0  3.128081  0  0  -0.215362  -0.250555  0  3.105796  0
N  N82  1  0.54836430  0.75003430  0.82070342  1  0  0.049519  0  3.538825  0  0  0.167462  0  3.727755  0  0  0.156289  0  3.752269  0  0  -0.129827  0.173771  0  3.712981  0
N  N83  1  0.79899947  0.25008854  0.67942531  1  0  0.047803  0  3.540083  0  0  0.166997  0  3.72791  0  0  0.155779  0  3.752398  0  0  -0.130034  0.173342  0  3.71305  0
N  N84  1  0.45166836  0.24997247  0.17930211  1  0  0.049866  0  3.538292  0  0  0.167559  0  3.727382  0  0  0.156389  0  3.751889  0  0  -0.129825  0.17385  0  3.712642  0
N  N85  1  0.20101714  0.74990902  0.32057433  1  0  0.047508  0  3.540124  0  0  0.166846  0  3.727765  0  0  0.155628  0  3.752246  0  0  -0.130141  0.173207  0  3.712888  0
