# generated using pymatgen
data_ZnH7C7NO6
_symmetry_space_group_name_H-M   'P 1'
_cell_length_a   7.21168729
_cell_length_b   7.82541761
_cell_length_c   7.82550252
_cell_angle_alpha   98.74266837
_cell_angle_beta   100.37742166
_cell_angle_gamma   100.37767001
_symmetry_Int_Tables_number   1
_chemical_formula_structural   ZnH7C7NO6
_chemical_formula_sum   'Zn2 H14 C14 N2 O12'
_cell_volume   419.46217343
_cell_formula_units_Z   2
loop_
 _symmetry_equiv_pos_site_id
 _symmetry_equiv_pos_as_xyz
  1  'x, y, z'
loop_
 _atom_site_type_symbol
 _atom_site_label
 _atom_site_symmetry_multiplicity
 _atom_site_fract_x
 _atom_site_fract_y
 _atom_site_fract_z
 _atom_site_occupancy
 _atom_site_hle17_bader_spin_density
 _atom_site_hle17_ddec_charge
 _atom_site_hle17_ddec_spin_density
 _atom_site_hle17_ddec_sum_bond_order
 _atom_site_hle17_magmom
 _atom_site_hse06_10hf_bader_spin_density
 _atom_site_hse06_10hf_ddec_charge
 _atom_site_hse06_10hf_ddec_spin_density
 _atom_site_hse06_10hf_ddec_sum_bond_order
 _atom_site_hse06_10hf_magmom
 _atom_site_hse06_bader_spin_density
 _atom_site_hse06_ddec_charge
 _atom_site_hse06_ddec_spin_density
 _atom_site_hse06_ddec_sum_bond_order
 _atom_site_hse06_magmom
 _atom_site_pbe_bader_spin_density
 _atom_site_pbe_cm5_charge
 _atom_site_pbe_ddec_charge
 _atom_site_pbe_ddec_spin_density
 _atom_site_pbe_ddec_sum_bond_order
 _atom_site_pbe_magmom
Zn  Zn0  1  0.25000127  0.84668709  0.15331882  1  0  1.124999  0  1.670592  0  0  0.945958  0  2.110197  0  0  0.998278  0  2.051725  0  0  0.672526  0.909044  0  2.150352  0
Zn  Zn1  1  0.74999818  0.15331432  0.84668391  1  0  1.124999  0  1.67054  0  0  0.94595  0  2.110123  0  0  0.998271  0  2.051654  0  0  0.672512  0.909041  0  2.150279  0
H  H2  1  0.90127792  0.66464521  0.11637615  1  0  0.422858  0  0.885488  0  0  0.39014  0  0.953429  0  0  0.400954  0  0.937753  0  0  0.290148  0.382486  0  0.964506  0
H  H3  1  0.59871944  0.88362938  0.33535817  1  0  0.422858  0  0.885489  0  0  0.390104  0  0.95348  0  0  0.400922  0  0.937796  0  0  0.290141  0.38245  0  0.964557  0
H  H4  1  0.09872146  0.33534961  0.88362422  1  0  0.422928  0  0.885404  0  0  0.390204  0  0.953355  0  0  0.401021  0  0.937674  0  0  0.290194  0.382549  0  0.964435  0
H  H5  1  0.40127800  0.11636939  0.66464125  1  0  0.422923  0  0.885386  0  0  0.390195  0  0.953341  0  0  0.401012  0  0.93766  0  0  0.290178  0.382543  0  0.964417  0
H  H6  1  0.88120849  0.82490640  0.01562929  1  0  0.436874  0  0.859285  0  0  0.405963  0  0.921682  0  0  0.417275  0  0.905345  0  0  0.295776  0.397952  0  0.933237  0
H  H7  1  0.61879732  0.98437633  0.17509715  1  0  0.436888  0  0.859264  0  0  0.406004  0  0.92161  0  0  0.417315  0  0.905275  0  0  0.295785  0.397994  0  0.933164  0
H  H8  1  0.11879008  0.17509101  0.98437520  1  0  0.436857  0  0.859298  0  0  0.405973  0  0.921651  0  0  0.417283  0  0.905318  0  0  0.295774  0.397961  0  0.933207  0
H  H9  1  0.38120347  0.01561851  0.82490217  1  0  0.436906  0  0.859222  0  0  0.405994  0  0.921631  0  0  0.417308  0  0.90529  0  0  0.295776  0.397982  0  0.933187  0
H  H10  1  0.28404433  0.45889313  0.15204102  1  0  0.100426  0  0.963151  0  0  0.108189  0  1.026547  0  0  0.11187  0  1.022249  0  0  0.125778  0.105468  0  1.029674  0
H  H11  1  0.21595527  0.84796547  0.54111238  1  0  0.100483  0  0.963006  0  0  0.108281  0  1.026379  0  0  0.111964  0  1.022075  0  0  0.125786  0.105559  0  1.029507  0
H  H12  1  0.71595962  0.54110971  0.84795500  1  0  0.100463  0  0.963173  0  0  0.108239  0  1.026562  0  0  0.111919  0  1.022262  0  0  0.125791  0.10552  0  1.029689  0
H  H13  1  0.78404416  0.15203598  0.45888651  1  0  0.1005  0  0.962974  0  0  0.108301  0  1.026351  0  0  0.111984  0  1.022044  0  0  0.125798  0.105579  0  1.029479  0
H  H14  1  0.25000195  0.33440231  0.66559752  1  0  0.118533  0  0.950536  0  0  0.126923  0  1.015069  0  0  0.131084  0  1.010455  0  0  0.118095  0.123821  0  1.018472  0
H  H15  1  0.75000201  0.66560051  0.33440105  1  0  0.118507  0  0.950509  0  0  0.126894  0  1.01506  0  0  0.131052  0  1.010447  0  0  0.118081  0.123791  0  1.018463  0
C  C16  1  0.27086766  0.18137296  0.33545980  1  0  0.662685  0  3.899939  0  0  0.605026  0  4.196379  0  0  0.639607  0  4.190719  0  0  0.21337  0.581716  0  4.199432  0
C  C17  1  0.22913046  0.66454484  0.81863028  1  0  0.662464  0  3.90005  0  0  0.604779  0  4.196497  0  0  0.639357  0  4.190846  0  0  0.213317  0.581467  0  4.199549  0
C  C18  1  0.72913037  0.81862843  0.66454269  1  0  0.662565  0  3.899995  0  0  0.604862  0  4.196443  0  0  0.639441  0  4.190788  0  0  0.213347  0.581555  0  4.199492  0
C  C19  1  0.77086839  0.33545397  0.18136681  1  0  0.662755  0  3.899999  0  0  0.605038  0  4.196491  0  0  0.639618  0  4.190837  0  0  0.213408  0.581729  0  4.199544  0
C  C20  1  0.26213490  0.36983757  0.39893883  1  0  -0.125583  0  3.748977  0  0  -0.099154  0  3.994989  0  0  -0.113878  0  4.019152  0  0  -0.014139  -0.090028  0  3.978989  0
C  C21  1  0.23786318  0.60106148  0.63016349  1  0  -0.125625  0  3.748959  0  0  -0.099169  0  3.994967  0  0  -0.113891  0  4.019131  0  0  -0.01418  -0.090045  0  3.978969  0
C  C22  1  0.73786652  0.63016657  0.60105699  1  0  -0.125551  0  3.74891  0  0  -0.09906  0  3.994858  0  0  -0.113782  0  4.019021  0  0  -0.014156  -0.089937  0  3.978858  0
C  C23  1  0.76213768  0.39893995  0.36983818  1  0  -0.125658  0  3.748941  0  0  -0.099184  0  3.994967  0  0  -0.113907  0  4.019133  0  0  -0.014186  -0.09006  0  3.978967  0
C  C24  1  0.26654889  0.49327975  0.28721838  1  0  0.144692  0  3.632504  0  0  0.097915  0  3.886883  0  0  0.109245  0  3.901411  0  0  0.061412  0.090767  0  3.87691  0
C  C25  1  0.23345384  0.71279288  0.50673144  1  0  0.144681  0  3.632281  0  0  0.097855  0  3.886673  0  0  0.109182  0  3.901204  0  0  0.061419  0.090706  0  3.876703  0
C  C26  1  0.73345257  0.50672429  0.71278765  1  0  0.144674  0  3.632418  0  0  0.097854  0  3.886789  0  0  0.109186  0  3.901314  0  0  0.061427  0.090706  0  3.876818  0
C  C27  1  0.76654477  0.28721118  0.49326902  1  0  0.14468  0  3.632371  0  0  0.097833  0  3.886785  0  0  0.10916  0  3.901317  0  0  0.061388  0.090686  0  3.876814  0
C  C28  1  0.25000067  0.42613009  0.57387465  1  0  -0.006418  0  3.653924  0  0  -0.047837  0  3.900207  0  0  -0.039776  0  3.916319  0  0  -0.050905  -0.052543  0  3.889132  0
C  C29  1  0.75000159  0.57387137  0.42612470  1  0  -0.00644  0  3.654016  0  0  -0.047877  0  3.900283  0  0  -0.039816  0  3.916398  0  0  -0.050928  -0.05258  0  3.889205  0
N  N30  1  0.25000011  0.66087765  0.33913409  1  0  -0.321305  0  3.212287  0  0  -0.241174  0  3.487096  0  0  -0.261894  0  3.501585  0  0  -0.31017  -0.2273  0  3.476904  0
N  N31  1  0.75000132  0.33912648  0.66086300  1  0  -0.321363  0  3.212289  0  0  -0.241236  0  3.487128  0  0  -0.261958  0  3.501618  0  0  -0.310186  -0.227365  0  3.476938  0
O  O32  1  0.95463478  0.79289133  0.12243280  1  0  -0.836237  0  1.921375  0  0  -0.777305  0  2.138113  0  0  -0.79989  0  2.101606  0  0  -0.58148  -0.761354  0  2.163412  0
O  O33  1  0.54536460  0.87757660  0.20711232  1  0  -0.836243  0  1.921306  0  0  -0.777306  0  2.138111  0  0  -0.799893  0  2.101602  0  0  -0.581497  -0.761353  0  2.163403  0
O  O34  1  0.04536632  0.20710478  0.87757188  1  0  -0.836306  0  1.921257  0  0  -0.777361  0  2.137929  0  0  -0.799946  0  2.101422  0  0  -0.581547  -0.761414  0  2.16324  0
O  O35  1  0.45463395  0.12242086  0.79288706  1  0  -0.836302  0  1.92121  0  0  -0.777383  0  2.13798  0  0  -0.79997  0  2.101476  0  0  -0.581498  -0.761431  0  2.163273  0
O  O36  1  0.24605618  0.12308789  0.16877027  1  0  -0.636134  0  2.036705  0  0  -0.557097  0  2.273371  0  0  -0.586986  0  2.262235  0  0  -0.303816  -0.536329  0  2.280432  0
O  O37  1  0.25393599  0.83122183  0.87692178  1  0  -0.636041  0  2.036946  0  0  -0.556974  0  2.273625  0  0  -0.586862  0  2.262492  0  0  -0.303856  -0.536203  0  2.280678  0
O  O38  1  0.75394211  0.87691496  0.83121845  1  0  -0.636058  0  2.036936  0  0  -0.556958  0  2.273563  0  0  -0.586847  0  2.26243  0  0  -0.303814  -0.536193  0  2.280623  0
O  O39  1  0.74606593  0.16877165  0.12308262  1  0  -0.636145  0  2.036857  0  0  -0.557091  0  2.273556  0  0  -0.586976  0  2.262415  0  0  -0.303842  -0.536321  0  2.280611  0
O  O40  1  0.30141385  0.08414950  0.44768559  1  0  -0.627491  0  2.021476  0  0  -0.565627  0  2.250118  0  0  -0.592061  0  2.240729  0  0  -0.301798  -0.547207  0  2.256007  0
O  O41  1  0.19858248  0.55230742  0.91585295  1  0  -0.627375  0  2.021382  0  0  -0.565509  0  2.250009  0  0  -0.591944  0  2.240627  0  0  -0.301709  -0.547083  0  2.255895  0
O  O42  1  0.69858164  0.91585325  0.55231160  1  0  -0.627444  0  2.021391  0  0  -0.565568  0  2.250043  0  0  -0.592003  0  2.240656  0  0  -0.301763  -0.547145  0  2.25593  0
O  O43  1  0.80140754  0.44768336  0.08414397  1  0  -0.627481  0  2.021523  0  0  -0.565599  0  2.250171  0  0  -0.592029  0  2.240783  0  0  -0.301758  -0.547178  0  2.256063  0
