# generated using pymatgen
data_ZnH16C16S(NO)4
_symmetry_space_group_name_H-M   'P 1'
_cell_length_a   9.08446484
_cell_length_b   14.00463581
_cell_length_c   17.76192758
_cell_angle_alpha   89.71128360
_cell_angle_beta   101.77892836
_cell_angle_gamma   91.47737170
_symmetry_Int_Tables_number   1
_chemical_formula_structural   ZnH16C16S(NO)4
_chemical_formula_sum   'Zn4 H64 C64 S4 N16 O16'
_cell_volume   2211.43438761
_cell_formula_units_Z   4
loop_
 _symmetry_equiv_pos_site_id
 _symmetry_equiv_pos_as_xyz
  1  'x, y, z'
loop_
 _atom_site_type_symbol
 _atom_site_label
 _atom_site_symmetry_multiplicity
 _atom_site_fract_x
 _atom_site_fract_y
 _atom_site_fract_z
 _atom_site_occupancy
 _atom_site_pbe_bader_charge
 _atom_site_pbe_bader_spin_density
 _atom_site_pbe_cm5_charge
 _atom_site_pbe_ddec_charge
 _atom_site_pbe_ddec_spin_density
 _atom_site_pbe_ddec_sum_bond_order
 _atom_site_pbe_magmom
Zn  Zn0  1  0.15047672  0.74265912  0.59483498  1  1.253927  0  0.699571  0.779081  0  2.425912  0
Zn  Zn1  1  0.84952737  0.25733837  0.40516082  1  1.253833  0  0.699603  0.779102  0  2.425883  0
Zn  Zn2  1  0.86769645  0.26302047  0.93376061  1  1.263367  0  0.706746  0.790097  0  2.459382  0
Zn  Zn3  1  0.13230287  0.73697456  0.06624307  1  1.263356  0  0.7068  0.790189  0  2.459322  0
H  H4  1  0.45327264  0.05757615  0.90255482  1  0.103715  0  0.105215  0.118106  0  1.003364  0
H  H5  1  0.54670748  0.94241812  0.09744900  1  0.103887  0  0.105192  0.118115  0  1.003398  0
H  H6  1  0.25647032  0.94118863  0.81242102  1  0.0861  0  0.108505  0.124142  0  0.998813  0
H  H7  1  0.74350906  0.05881159  0.18757721  1  0.086082  0  0.108498  0.124176  0  0.998749  0
H  H8  1  0.69894955  0.18028591  0.05930255  1  0.127236  0  0.122545  0.123045  0  1.00066  0
H  H9  1  0.30104287  0.81970560  0.94069917  1  0.127324  0  0.122572  0.123063  0  1.000871  0
H  H10  1  0.77562493  0.24348191  0.21246223  1  0.177699  0  0.124701  0.136929  0  1.038347  0
H  H11  1  0.22435972  0.75651371  0.78754380  1  0.177915  0  0.124782  0.137023  0  1.038436  0
H  H12  1  0.00978518  0.41339415  0.07566685  1  0.173249  0  0.134591  0.107575  0  1.03588  0
H  H13  1  0.99020731  0.58660074  0.92434002  1  0.173064  0  0.13462  0.107658  0  1.036037  0
H  H14  1  0.10989156  0.38076425  0.23836272  1  0.07045  0  0.108607  0.089658  0  0.971674  0
H  H15  1  0.89009394  0.61922628  0.76164555  1  0.070308  0  0.108638  0.089676  0  0.971694  0
H  H16  1  0.94721885  0.36816866  0.27883943  1  0.094829  0  0.11174  0.09483  0  1.019075  0
H  H17  1  0.05275798  0.63182771  0.72116520  1  0.095173  0  0.111794  0.095031  0  1.018875  0
H  H18  1  0.84752755  0.51915597  0.21749118  1  0.038435  0  0.087399  0.082108  0  1.006172  0
H  H19  1  0.15246289  0.48084191  0.78251215  1  0.038435  0  0.087447  0.082165  0  1.006138  0
H  H20  1  0.00132393  0.53110015  0.17020057  1  0.044556  0  0.092165  0.090646  0  1.017205  0
H  H21  1  0.99866619  0.46888997  0.82980031  1  0.044221  0  0.09214  0.090638  0  1.01721  0
H  H22  1  0.02700914  0.52537828  0.34495696  1  0.060405  0  0.092681  0.090546  0  1.027541  0
H  H23  1  0.97299589  0.47461755  0.65504454  1  0.060486  0  0.092627  0.090505  0  1.027482  0
H  H24  1  0.18110475  0.53850624  0.29821472  1  0.03398  0  0.088211  0.082606  0  1.008461  0
H  H25  1  0.81889331  0.46148335  0.70178195  1  0.034073  0  0.088235  0.082584  0  1.008567  0
H  H26  1  0.92179213  0.67856891  0.27722159  1  0.073507  0  0.103709  0.07822  0  0.987318  0
H  H27  1  0.07821295  0.32142637  0.72277596  1  0.07379  0  0.103717  0.078208  0  0.987328  0
H  H28  1  0.09279653  0.69361206  0.24401891  1  0.114235  0  0.114439  0.109291  0  0.999944  0
H  H29  1  0.90720947  0.30637894  0.75597865  1  0.114165  0  0.114489  0.10931  0  0.999982  0
H  H30  1  0.24367582  0.81946331  0.31977162  1  0.181681  0  0.116384  0.12831  0  1.065036  0
H  H31  1  0.75632592  0.18053140  0.68022217  1  0.181741  0  0.116422  0.128327  0  1.064885  0
H  H32  1  0.32046415  0.86192592  0.47860223  1  0.160387  0  0.122614  0.131056  0  1.007868  0
H  H33  1  0.67954019  0.13807533  0.52138917  1  0.160324  0  0.122598  0.131069  0  1.00771  0
H  H34  1  0.01866313  0.62422146  0.44273292  1  0.198517  0  0.13453  0.106032  0  1.040737  0
H  H35  1  0.98135436  0.37577584  0.55726828  1  0.198395  0  0.134531  0.106035  0  1.040622  0
H  H36  1  0.08507552  0.16696050  0.83251187  1  0.170313  0  0.125828  0.132134  0  1.001687  0
H  H37  1  0.91492861  0.83304032  0.16749020  1  0.170274  0  0.125816  0.132115  0  1.001646  0
H  H38  1  0.38679816  0.23108353  0.85430293  1  0.115511  0  0.126747  0.130303  0  1.019023  0
H  H39  1  0.61320071  0.76892451  0.14569703  1  0.115516  0  0.126737  0.130255  0  1.018973  0
H  H40  1  0.17840691  0.36398544  0.01662652  1  0.173638  0  0.137573  0.109902  0  1.034449  0
H  H41  1  0.82159075  0.63601983  0.98337100  1  0.173717  0  0.137562  0.109893  0  1.034447  0
H  H42  1  0.54401555  0.34679767  0.94471949  1  0.073959  0  0.114609  0.100165  0  0.98502  0
H  H43  1  0.45598436  0.65320891  0.05528111  1  0.074129  0  0.114613  0.100173  0  0.985084  0
H  H44  1  0.49731438  0.34164743  0.03672380  1  0.071773  0  0.109465  0.088369  0  0.977189  0
H  H45  1  0.50268000  0.65836129  0.96327681  1  0.071672  0  0.109461  0.088362  0  0.977254  0
H  H46  1  0.41567613  0.49891798  0.91544845  1  0.031675  0  0.08646  0.079792  0  1.012791  0
H  H47  1  0.58432390  0.50108948  0.08454824  1  0.031749  0  0.086491  0.079879  0  1.012784  0
H  H48  1  0.33129583  0.48781549  0.99720794  1  0.062966  0  0.091546  0.093052  0  1.030014  0
H  H49  1  0.66869859  0.51219266  0.00278928  1  0.063003  0  0.091529  0.093084  0  1.030064  0
H  H50  1  0.90347471  0.84736868  0.66565749  1  0.087502  0  0.123032  0.123814  0  0.997916  0
H  H51  1  0.09653388  0.15262947  0.33433994  1  0.087649  0  0.123008  0.123714  0  0.997771  0
H  H52  1  0.59868210  0.79214330  0.62580634  1  0.20492  0  0.119339  0.13834  0  1.064843  0
H  H53  1  0.40133356  0.20786197  0.37419202  1  0.205162  0  0.119336  0.138268  0  1.064767  0
H  H54  1  0.85925137  0.60167381  0.52510847  1  0.158995  0  0.134778  0.107716  0  1.040424  0
H  H55  1  0.14075037  0.39832351  0.47489157  1  0.159065  0  0.134797  0.10777  0  1.04055  0
H  H56  1  0.46553400  0.64821290  0.56189495  1  0.084176  0  0.113238  0.101326  0  0.98556  0
H  H57  1  0.53447009  0.35178591  0.43810369  1  0.084384  0  0.113204  0.101243  0  0.98565  0
H  H58  1  0.51560374  0.66159517  0.47115381  1  0.062907  0  0.106239  0.084448  0  0.978308  0
H  H59  1  0.48440167  0.33840792  0.52884507  1  0.062948  0  0.106231  0.084441  0  0.97832  0
H  H60  1  0.59187370  0.49346901  0.58281366  1  0.042862  0  0.088408  0.084223  0  1.006391  0
H  H61  1  0.40813500  0.50653064  0.41718213  1  0.042805  0  0.08841  0.08425  0  1.006381  0
H  H62  1  0.66798941  0.50859875  0.49912035  1  0.046616  0  0.091633  0.090957  0  1.033259  0
H  H63  1  0.33201719  0.49140445  0.50087585  1  0.046804  0  0.091616  0.090883  0  1.033094  0
H  H64  1  0.55473479  0.29322476  0.74700507  1  0.112161  0  0.107746  0.12663  0  1.001964  0
H  H65  1  0.44528078  0.70677706  0.25299038  1  0.112186  0  0.107704  0.126584  0  1.002032  0
H  H66  1  0.32044310  0.34675521  0.63930635  1  0.079632  0  0.108734  0.121372  0  0.992369  0
H  H67  1  0.67957819  0.65324809  0.36068807  1  0.079487  0  0.108694  0.121358  0  0.992358  0
C  C68  1  0.71592767  0.12141918  0.84448696  1  1.585356  0  0.187907  0.572148  0  4.280461  0
C  C69  1  0.28405603  0.87858003  0.15551848  1  1.584841  0  0.188035  0.572373  0  4.280111  0
C  C70  1  0.58736938  0.05577122  0.81431082  1  -0.185532  0  -0.032179  -0.131965  0  4.005474  0
C  C71  1  0.41261769  0.94422796  0.18569555  1  -0.186091  0  -0.032187  -0.13198  0  4.005525  0
C  C72  1  0.46498570  0.03091841  0.84669866  1  -0.051305  0  -0.103727  -0.117952  0  4.02279  0
C  C73  1  0.53499786  0.96907728  0.15330556  1  -0.051203  0  -0.103707  -0.118087  0  4.022825  0
C  C74  1  0.36115783  0.96915376  0.79912939  1  -0.010053  0  -0.102419  -0.116541  0  4.002072  0
C  C75  1  0.63882366  0.03084422  0.20087127  1  -0.009914  0  -0.102419  -0.116472  0  4.002092  0
C  C76  1  0.40662139  0.94677996  0.73149533  1  -0.227993  0  -0.026941  -0.1201  0  3.994011  0
C  C77  1  0.59336485  0.05322307  0.26850427  1  -0.228061  0  -0.026947  -0.120072  0  3.993938  0
C  C78  1  0.33403203  0.88156957  0.66883288  1  1.604264  0  0.190568  0.56962  0  4.276082  0
C  C79  1  0.66596016  0.11843863  0.33116298  1  1.604371  0  0.19064  0.569601  0  4.276085  0
C  C80  1  0.77307550  0.23826348  0.08532767  1  0.428268  0  -0.00518  -0.046224  0  4.015568  0
C  C81  1  0.22692168  0.76173567  0.91467980  1  0.428184  0  -0.005133  -0.046062  0  4.015039  0
C  C82  1  0.80895302  0.26892954  0.16037735  1  0.255434  0  0.004683  -0.106119  0  3.904455  0
C  C83  1  0.19103516  0.73106572  0.83962005  1  0.255472  0  0.00465  -0.106312  0  3.903877  0
C  C84  1  0.93322274  0.35826342  0.08956494  1  0.954035  0  0.141577  0.090332  0  3.891473  0
C  C85  1  0.06676859  0.64173010  0.91044009  1  0.953805  0  0.141649  0.090279  0  3.891542  0
C  C86  1  0.98960839  0.39676941  0.22963635  1  0.288777  0  -0.051185  -0.0572  0  3.862933  0
C  C87  1  0.01037737  0.60322554  0.77036866  1  0.288595  0  -0.051277  -0.057529  0  3.862993  0
C  C88  1  0.96764715  0.50412147  0.22257839  1  -0.030435  0  -0.165681  -0.165564  0  3.933256  0
C  C89  1  0.03234308  0.49587144  0.77742425  1  -0.030096  0  -0.165729  -0.165661  0  3.933294  0
C  C90  1  0.06120266  0.55403763  0.29321866  1  -0.012228  0  -0.16712  -0.168359  0  3.935444  0
C  C91  1  0.93879552  0.44595606  0.70678261  1  -0.012239  0  -0.167012  -0.168171  0  3.935455  0
C  C92  1  0.04202640  0.66176584  0.28949664  1  0.243112  0  -0.051227  -0.056409  0  3.852824  0
C  C93  1  0.95797857  0.33822795  0.71050256  1  0.242806  0  -0.051314  -0.056489  0  3.853057  0
C  C94  1  0.21290845  0.78597804  0.36986845  1  0.237796  0  0.000282  -0.108731  0  3.906725  0
C  C95  1  0.78709684  0.21401961  0.63012354  1  0.237897  0  0.000282  -0.108713  0  3.906881  0
C  C96  1  0.24690131  0.80715184  0.44706524  1  0.42942  0  -0.005682  -0.042069  0  4.001706  0
C  C97  1  0.75310756  0.19285205  0.55293178  1  0.429557  0  -0.005673  -0.042075  0  4.001935  0
C  C98  1  0.09004430  0.68415146  0.43223208  1  0.913735  0  0.137996  0.082208  0  3.898437  0
C  C99  1  0.90996753  0.31584382  0.56776564  1  0.913248  0  0.137941  0.082135  0  3.898375  0
C  C100  1  0.14993643  0.21685399  0.87356393  1  0.413841  0  0.002297  -0.030123  0  3.98812  0
C  C101  1  0.85006543  0.78314616  0.12643676  1  0.414332  0  0.002318  -0.030098  0  3.988136  0
C  C102  1  0.29726205  0.24834774  0.88350482  1  0.300899  0  0.004936  -0.107131  0  3.911993  0
C  C103  1  0.70274107  0.75165462  0.11649436  1  0.300521  0  0.004971  -0.107101  0  3.911946  0
C  C104  1  0.19006514  0.31839475  0.96908296  1  0.953925  0  0.143356  0.086738  0  3.896285  0
C  C105  1  0.80993131  0.68160972  0.03091666  1  0.953775  0  0.143334  0.086738  0  3.896217  0
C  C106  1  0.45849923  0.36598609  0.97714660  1  0.314163  0  -0.046709  -0.050122  0  3.850277  0
C  C107  1  0.54149751  0.63402414  0.02285205  1  0.313965  0  -0.046581  -0.050024  0  3.850275  0
C  C108  1  0.43325923  0.47334246  0.97529685  1  -0.022225  0  -0.167475  -0.170135  0  3.934264  0
C  C109  1  0.56673954  0.52666279  0.02470135  1  -0.047319  0  -0.167601  -0.170473  0  3.934294  0
C  C110  1  0.84852438  0.78816072  0.63098478  1  0.415174  0  -0.004747  -0.042358  0  4.008216  0
C  C111  1  0.15150028  0.21184647  0.36901966  1  0.415128  0  -0.00478  -0.042262  0  4.009095  0
C  C112  1  0.69916309  0.76085560  0.61297637  1  0.29363  0  0.001487  -0.107139  0  3.900779  0
C  C113  1  0.30081751  0.23914675  0.38702204  1  0.293364  0  0.001535  -0.107056  0  3.901504  0
C  C114  1  0.83192661  0.66134611  0.55811900  1  0.945303  0  0.136119  0.076928  0  3.901644  0
C  C115  1  0.16807540  0.33865757  0.44188290  1  0.945139  0  0.136077  0.076792  0  3.901507  0
C  C116  1  0.55165753  0.63118496  0.52913817  1  0.284432  0  -0.048955  -0.05021  0  3.855671  0
C  C117  1  0.44834784  0.36881739  0.47086125  1  0.284142  0  -0.048837  -0.050063  0  3.855772  0
C  C118  1  0.57022182  0.52376027  0.52435509  1  -0.014757  0  -0.166358  -0.173099  0  3.94508  0
C  C119  1  0.42978807  0.47624081  0.47564085  1  -0.039673  0  -0.166474  -0.173085  0  3.944953  0
C  C120  1  0.71457131  0.43752003  0.84854041  1  1.606283  0  0.197525  0.587891  0  4.285525  0
C  C121  1  0.28543488  0.56247716  0.15146294  1  1.606111  0  0.197548  0.587837  0  4.285459  0
C  C122  1  0.58192788  0.44147582  0.78355549  1  -0.233556  0  -0.031073  -0.138668  0  3.99627  0
C  C123  1  0.41808187  0.55852436  0.21644493  1  -0.232781  0  -0.031029  -0.138665  0  3.996365  0
C  C124  1  0.51372757  0.36560344  0.73825322  1  0.000771  0  -0.102939  -0.120451  0  4.009164  0
C  C125  1  0.48628796  0.63439766  0.26174222  1  0.000201  0  -0.102866  -0.120365  0  4.009211  0
C  C126  1  0.39052708  0.39410446  0.68114365  1  -0.060876  0  -0.100828  -0.120289  0  4.023732  0
C  C127  1  0.60949089  0.60590028  0.31885043  1  -0.060964  0  -0.100827  -0.120303  0  4.023678  0
C  C128  1  0.36711519  0.49132932  0.68337641  1  -0.184544  0  -0.027854  -0.128683  0  3.9916  0
C  C129  1  0.63290037  0.50867314  0.31662075  1  -0.184619  0  -0.027864  -0.128744  0  3.991389  0
C  C130  1  0.25362350  0.55066712  0.63362596  1  1.592358  0  0.19602  0.572114  0  4.280867  0
C  C131  1  0.74638977  0.44933592  0.36637434  1  1.593288  0  0.196146  0.572282  0  4.280458  0
S  S132  1  0.57538982  0.00223479  0.72621713  1  0.280112  0  0.098158  0.157635  0  2.877618  0
S  S133  1  0.42459746  0.99776805  0.27378709  1  0.280479  0  0.098166  0.157615  0  2.877619  0
S  S134  1  0.49547048  0.54725960  0.75569212  1  0.264456  0  0.094945  0.153698  0  2.915603  0
S  S135  1  0.50454042  0.45274127  0.24430900  1  0.264336  0  0.09493  0.153726  0  2.915573  0
N  N136  1  0.85146550  0.29460087  0.04176842  1  -1.259864  0  -0.364905  -0.30124  0  3.631626  0
N  N137  1  0.14852696  0.70539265  0.95823673  1  -1.259776  0  -0.365015  -0.301491  0  3.631689  0
N  N138  1  0.91047218  0.34436834  0.16174323  1  -1.227485  0  -0.236539  0.060539  0  3.756841  0
N  N139  1  0.08951576  0.65562515  0.83826255  1  -1.227363  0  -0.23666  0.060756  0  3.756674  0
N  N140  1  0.11395411  0.70824393  0.36179066  1  -1.250285  0  -0.239343  0.057568  0  3.755481  0
N  N141  1  0.88605432  0.29175132  0.63820782  1  -1.250169  0  -0.239268  0.057696  0  3.755299  0
N  N142  1  0.16909424  0.74326982  0.48515464  1  -1.224045  0  -0.363629  -0.294458  0  3.651942  0
N  N143  1  0.83091671  0.25672982  0.51484139  1  -1.223823  0  -0.363652  -0.29452  0  3.652078  0
N  N144  1  0.08441282  0.26136429  0.92737198  1  -1.233786  0  -0.360283  -0.291554  0  3.635293  0
N  N145  1  0.91558915  0.73863867  0.07262991  1  -1.233688  0  -0.360283  -0.291562  0  3.635277  0
N  N146  1  0.32021066  0.31234864  0.94396938  1  -1.257726  0  -0.23786  0.05639  0  3.76501  0
N  N147  1  0.67978584  0.68765722  0.05603140  1  -1.257885  0  -0.23793  0.056429  0  3.764905  0
N  N148  1  0.92983248  0.72568584  0.59639806  1  -1.246841  0  -0.365519  -0.300696  0  3.639957  0
N  N149  1  0.07017487  0.27431012  0.40360032  1  -1.246727  0  -0.36544  -0.300496  0  3.63964  0
N  N150  1  0.69096611  0.68072669  0.56699208  1  -1.217661  0  -0.238332  0.050382  0  3.756904  0
N  N151  1  0.30904038  0.31927566  0.43300746  1  -1.2177  0  -0.238408  0.050226  0  3.75686  0
O  O152  1  0.71883944  0.15622667  0.91255563  1  -1.172878  0  -0.346332  -0.558218  0  2.275715  0
O  O153  1  0.28113898  0.84377972  0.08744882  1  -1.172705  0  -0.346375  -0.558298  0  2.275765  0
O  O154  1  0.81113904  0.14130383  0.80417805  1  -1.177828  0  -0.329067  -0.55925  0  2.135106  0
O  O155  1  0.18884799  0.85869464  0.19582830  1  -1.177615  0  -0.32912  -0.559346  0  2.13489  0
O  O156  1  0.20405578  0.84465793  0.67442418  1  -1.168483  0  -0.336154  -0.54446  0  2.274035  0
O  O157  1  0.79593947  0.15534185  0.32556789  1  -1.168274  0  -0.336175  -0.544451  0  2.273926  0
O  O158  1  0.40001176  0.86370958  0.61507738  1  -1.18616  0  -0.323564  -0.552974  0  2.160585  0
O  O159  1  0.59998989  0.13630729  0.38491631  1  -1.186468  0  -0.323592  -0.552941  0  2.160812  0
O  O160  1  0.77273646  0.35421757  0.85603496  1  -1.203022  0  -0.342364  -0.577647  0  2.43826  0
O  O161  1  0.22727098  0.64578183  0.14396688  1  -1.202879  0  -0.342422  -0.577723  0  2.438108  0
O  O162  1  0.75957710  0.51057346  0.88816570  1  -1.191198  0  -0.338945  -0.575737  0  2.132774  0
O  O163  1  0.24042910  0.48942378  0.11183652  1  -1.191193  0  -0.338956  -0.57569  0  2.132873  0
O  O164  1  0.15730330  0.51465266  0.57984839  1  -1.183826  0  -0.327023  -0.552189  0  2.118111  0
O  O165  1  0.84270653  0.48534894  0.42015207  1  -1.184747  0  -0.327128  -0.55228  0  2.118059  0
O  O166  1  0.26841370  0.64018324  0.65282237  1  -1.181838  0  -0.339448  -0.564954  0  2.385591  0
O  O167  1  0.73159502  0.35981906  0.34717854  1  -1.181703  0  -0.339461  -0.564964  0  2.385367  0
