# generated using pymatgen
data_Dy2H15(C10O9)2
_symmetry_space_group_name_H-M   'P 1'
_cell_length_a   7.38441847
_cell_length_b   11.46370697
_cell_length_c   15.88422570
_cell_angle_alpha   78.72058702
_cell_angle_beta   81.70568604
_cell_angle_gamma   81.12776871
_symmetry_Int_Tables_number   1
_chemical_formula_structural   Dy2H15(C10O9)2
_chemical_formula_sum   'Dy4 H30 C40 O36'
_cell_volume   1293.83080364
_cell_formula_units_Z   2
loop_
 _symmetry_equiv_pos_site_id
 _symmetry_equiv_pos_as_xyz
  1  'x, y, z'
loop_
 _atom_site_type_symbol
 _atom_site_label
 _atom_site_symmetry_multiplicity
 _atom_site_fract_x
 _atom_site_fract_y
 _atom_site_fract_z
 _atom_site_occupancy
 _atom_site_pbe_bader_charge
 _atom_site_pbe_bader_spin_density
 _atom_site_pbe_cm5_charge
 _atom_site_pbe_ddec_charge
 _atom_site_pbe_ddec_spin_density
 _atom_site_pbe_ddec_sum_bond_order
 _atom_site_pbe_magmom
Dy  Dy0  1  0.94209268  0.06185304  0.77506551  1  2.178792  0  1.481421  2.086862  0  2.030112  0
Dy  Dy1  1  0.05790681  0.93814907  0.22493337  1  2.178816  0  1.481402  2.086802  0  2.03015  0
Dy  Dy2  1  0.45145527  0.26500478  0.76163864  1  2.174121  0  1.546975  2.099219  0  2.190142  0
Dy  Dy3  1  0.54854851  0.73499646  0.23836009  1  2.174088  0  1.547002  2.099221  0  2.1902  0
H  H4  1  0.98645292  0.21209547  0.94917418  1  0.649574  0  0.316017  0.360738  0  0.951725  0
H  H5  1  0.01354789  0.78790665  0.05082713  1  0.649957  0  0.316019  0.36079  0  0.951584  0
H  H6  1  0.59108845  0.73922099  0.98742329  1  0.653418  0  0.305313  0.361461  0  0.960023  0
H  H7  1  0.40891080  0.26078201  0.01257801  1  0.653436  0  0.305305  0.361452  0  0.960102  0
H  H8  1  0.85394023  0.24777645  0.57350225  1  0.642477  0  0.306137  0.352776  0  0.970138  0
H  H9  1  0.14605963  0.75222387  0.42649811  1  0.642479  0  0.306153  0.352795  0  0.970107  0
H  H10  1  0.81008638  0.87347998  0.62135036  1  0.626272  0  0.305294  0.352674  0  0.96752  0
H  H11  1  0.18992097  0.12650512  0.37864787  1  0.626268  0  0.305283  0.352637  0  0.967701  0
H  H12  1  0.27913002  0.98390466  0.65344255  1  0.6334  0  0.318004  0.400567  0  0.91336  0
H  H13  1  0.72087853  0.01608672  0.34656418  1  0.633201  0  0.318003  0.400589  0  0.913307  0
H  H14  1  0.15789356  0.87948898  0.66721219  1  0.62809  0  0.348234  0.4361  0  0.83615  0
H  H15  1  0.84210155  0.12050769  0.33279277  1  0.628199  0  0.348249  0.43619  0  0.836053  0
H  H16  1  0.77430037  0.82029020  0.85171881  1  0.628875  0  0.314809  0.413963  0  0.890325  0
H  H17  1  0.22569752  0.17971279  0.14828194  1  0.628902  0  0.314831  0.413955  0  0.890334  0
H  H18  1  0.95242505  0.82820481  0.89097130  1  0.665636  0  0.308471  0.409713  0  0.91604  0
H  H19  1  0.04757401  0.17179909  0.10902925  1  0.665646  0  0.30846  0.40968  0  0.916092  0
H  H20  1  0.63126887  0.45652493  0.66060706  1  0.632676  0  0.328449  0.417763  0  0.869927  0
H  H21  1  0.36873723  0.54347184  0.33939404  1  0.632734  0  0.328467  0.417769  0  0.869811  0
H  H22  1  0.60792864  0.38113275  0.59201195  1  0.632337  0  0.308682  0.393488  0  0.935701  0
H  H23  1  0.39207514  0.61886850  0.40798678  1  0.63236  0  0.308668  0.393397  0  0.935818  0
H  H24  1  0.86703278  0.38806548  0.11615164  1  0.112122  0  0.114835  0.138768  0  0.980861  0
H  H25  1  0.13297450  0.61193849  0.88384712  1  0.112363  0  0.114782  0.138682  0  0.980901  0
H  H26  1  0.66199524  0.55261033  0.82666298  1  0.11022  0  0.115099  0.137861  0  0.97716  0
H  H27  1  0.33798896  0.44739255  0.17334054  1  0.110229  0  0.115117  0.137962  0  0.977053  0
H  H28  1  0.24153407  0.50242136  0.59366775  1  0.159219  0  0.1184  0.151912  0  0.998049  0
H  H29  1  0.75846102  0.49758160  0.40633696  1  0.15922  0  0.118384  0.151897  0  0.998059  0
H  H30  1  0.40269220  0.19665420  0.54749395  1  0.142828  0  0.11951  0.145623  0  0.994715  0
H  H31  1  0.59730262  0.80333170  0.45250748  1  0.142746  0  0.119505  0.145604  0  0.994702  0
H  H32  1  0.18342711  0.94640028  0.03021972  1  0.121632  0  0.112153  0.117103  0  1.057202  0
H  H33  1  0.81657302  0.05360544  0.96977484  1  0.121715  0  0.112135  0.11699  0  1.057252  0
C  C34  1  0.80220381  0.40026758  0.90562536  1  0.015512  0  -0.024531  -0.148482  0  3.96165  0
C  C35  1  0.19779780  0.59973724  0.09437427  1  0.015365  0  -0.024505  -0.14852  0  3.961976  0
C  C36  1  0.86884206  0.35531273  0.98678202  1  0.48256  0  0.086577  0.290405  0  4.045716  0
C  C37  1  0.13115581  0.64469026  0.01321999  1  0.482719  0  0.086584  0.290354  0  4.045918  0
C  C38  1  0.82627184  0.42379811  0.05190560  1  0.033249  0  -0.089865  -0.186227  0  3.950435  0
C  C39  1  0.17372737  0.57621118  0.94809670  1  0.032573  0  -0.089823  -0.186159  0  3.950286  0
C  C40  1  0.73495925  0.54036828  0.03549320  1  -0.028258  0  -0.026445  -0.136793  0  3.999854  0
C  C41  1  0.26503293  0.45963556  0.96451031  1  -0.027653  0  -0.026413  -0.136682  0  3.999672  0
C  C42  1  0.68546589  0.59097678  0.95156134  1  0.497143  0  0.081681  0.283061  0  4.043906  0
C  C43  1  0.31452890  0.40902798  0.04843810  1  0.496839  0  0.081638  0.282956  0  4.043836  0
C  C44  1  0.71241516  0.51808343  0.88907452  1  0.041798  0  -0.093033  -0.190698  0  3.946099  0
C  C45  1  0.28757588  0.48191950  0.11092793  1  0.041582  0  -0.093025  -0.190701  0  3.946056  0
C  C46  1  0.81670505  0.32107908  0.84089162  1  1.522804  0  0.235309  0.66381  0  4.113183  0
C  C47  1  0.18329192  0.67892211  0.15910629  1  1.523036  0  0.235293  0.663798  0  4.11319  0
C  C48  1  0.68896872  0.60889784  0.10695360  1  1.507597  0  0.189316  0.573379  0  4.2275  0
C  C49  1  0.31103599  0.39110520  0.89304734  1  1.507806  0  0.18934  0.573394  0  4.227281  0
C  C50  1  0.90461199  0.40051763  0.51185906  1  0.450794  0  0.074299  0.265887  0  4.088397  0
C  C51  1  0.09538609  0.59948446  0.48814243  1  0.450703  0  0.0743  0.265915  0  4.088633  0
C  C52  1  0.04072252  0.40164898  0.56582602  1  0.037231  0  -0.027888  -0.155093  0  3.984682  0
C  C53  1  0.95927793  0.59834864  0.43417406  1  0.037215  0  -0.02785  -0.154961  0  3.984536  0
C  C54  1  0.13501503  0.50187253  0.55294961  1  -0.03404  0  -0.092713  -0.184494  0  3.929351  0
C  C55  1  0.86498094  0.49813314  0.44704899  1  -0.03401  0  -0.092639  -0.184434  0  3.929151  0
C  C56  1  0.08756720  0.29974591  0.63648820  1  1.546839  0  0.239484  0.66728  0  4.130053  0
C  C57  1  0.91243304  0.70025890  0.36351152  1  1.546365  0  0.239479  0.667239  0  4.130025  0
C  C58  1  0.63947956  0.91620482  0.53975739  1  0.54378  0  0.077911  0.277998  0  4.103934  0
C  C59  1  0.36052521  0.08377936  0.46024366  1  0.543135  0  0.07793  0.278175  0  4.10357  0
C  C60  1  0.44266286  0.11028271  0.52686817  1  -0.027921  0  -0.096274  -0.204062  0  3.956813  0
C  C61  1  0.55732668  0.88970225  0.47313436  1  -0.028708  0  -0.096275  -0.204027  0  3.956926  0
C  C62  1  0.58012714  0.02852636  0.56678948  1  -0.062619  0  -0.031331  -0.172595  0  4.006098  0
C  C63  1  0.41986808  0.97146404  0.43321005  1  -0.062728  0  -0.031371  -0.172662  0  4.00613  0
C  C64  1  0.66486751  0.06316863  0.63593112  1  1.547538  0  0.231826  0.65165  0  4.141444  0
C  C65  1  0.33513960  0.93682365  0.36406865  1  1.547184  0  0.231792  0.651648  0  4.141259  0
C  C66  1  0.32333529  0.96946960  0.01833651  1  -0.016214  0  -0.095332  -0.206694  0  3.937579  0
C  C67  1  0.67667262  0.03053168  0.98166070  1  -0.016296  0  -0.095302  -0.206446  0  3.937493  0
C  C68  1  0.57084254  0.04800758  0.91302255  1  0.560159  0  0.074269  0.329688  0  4.129236  0
C  C69  1  0.42915514  0.95199631  0.08697934  1  0.560855  0  0.074329  0.329876  0  4.128937  0
C  C70  1  0.38909776  0.01594081  0.93315220  1  -0.007273  0  -0.022657  -0.123033  0  3.93438  0
C  C71  1  0.61090898  0.98405956  0.06684457  1  -0.007252  0  -0.022683  -0.123131  0  3.934191  0
C  C72  1  0.25817331  0.03315193  0.86864740  1  1.496491  0  0.214063  0.634724  0  4.136131  0
C  C73  1  0.74182542  0.96685377  0.13134977  1  1.496444  0  0.213975  0.634617  0  4.136352  0
O  O74  1  0.93138193  0.22374225  0.84982048  1  -1.199064  0  -0.368264  -0.663155  0  2.347854  0
O  O75  1  0.06861603  0.77626075  0.15017649  1  -1.199128  0  -0.368267  -0.663202  0  2.347828  0
O  O76  1  0.71294253  0.34768447  0.78059756  1  -1.21151  0  -0.393891  -0.705543  0  2.322194  0
O  O77  1  0.28705228  0.65232030  0.21940062  1  -1.211435  0  -0.393878  -0.705485  0  2.322153  0
O  O78  1  0.71643626  0.56275190  0.18426906  1  -1.166098  0  -0.377531  -0.607069  0  2.139453  0
O  O79  1  0.28357412  0.43725030  0.81573101  1  -1.166224  0  -0.377519  -0.607032  0  2.139503  0
O  O80  1  0.61282435  0.71978169  0.08968963  1  -1.18877  0  -0.385633  -0.655722  0  2.314639  0
O  O81  1  0.38718153  0.28021597  0.91031262  1  -1.18875  0  -0.385655  -0.655787  0  2.314349  0
O  O82  1  0.97146286  0.24605252  0.00375731  1  -1.177033  0  -0.337924  -0.441895  0  2.370718  0
O  O83  1  0.02854602  0.75395057  0.99623958  1  -1.177477  0  -0.337907  -0.44188  0  2.370593  0
O  O84  1  0.60879315  0.70769877  0.93116903  1  -1.177361  0  -0.354164  -0.466325  0  2.284182  0
O  O85  1  0.39121077  0.29230157  0.06883297  1  -1.177346  0  -0.354204  -0.466365  0  2.28407  0
O  O86  1  0.99536002  0.20881453  0.65066247  1  -1.195532  0  -0.388087  -0.695471  0  2.311159  0
O  O87  1  0.00464597  0.79118314  0.34933347  1  -1.195342  0  -0.388071  -0.69544  0  2.31122  0
O  O88  1  0.21526654  0.30669445  0.67894208  1  -1.192597  0  -0.398064  -0.649153  0  2.375753  0
O  O89  1  0.78473588  0.69330679  0.32105674  1  -1.192297  0  -0.398058  -0.649113  0  2.375736  0
O  O90  1  0.80312031  0.30705168  0.52419857  1  -1.164081  0  -0.356011  -0.45705  0  2.319977  0
O  O91  1  0.19687701  0.69294771  0.47580209  1  -1.164091  0  -0.35601  -0.457066  0  2.320055  0
O  O92  1  0.60721163  0.16424550  0.65768816  1  -1.211454  0  -0.40675  -0.695009  0  2.434116  0
O  O93  1  0.39278596  0.83575300  0.34230820  1  -1.211247  0  -0.406729  -0.694943  0  2.434189  0
O  O94  1  0.79720639  0.99115733  0.67005502  1  -1.180358  0  -0.362651  -0.637274  0  2.245245  0
O  O95  1  0.20280326  0.00883588  0.32994384  1  -1.180373  0  -0.362664  -0.637346  0  2.245091  0
O  O96  1  0.77113037  0.83477946  0.57654995  1  -1.139882  0  -0.356671  -0.434879  0  2.255319  0
O  O97  1  0.22886917  0.16521008  0.42344816  1  -1.13964  0  -0.356717  -0.434955  0  2.255211  0
O  O98  1  0.28192923  0.10231701  0.79459550  1  -1.196202  0  -0.416915  -0.716369  0  2.353689  0
O  O99  1  0.71807027  0.89768510  0.20540212  1  -1.196138  0  -0.416862  -0.716282  0  2.353722  0
O  O100  1  0.11205467  0.98199004  0.88765907  1  -1.177224  0  -0.400228  -0.620905  0  2.280329  0
O  O101  1  0.88795205  0.01801033  0.11233897  1  -1.177265  0  -0.40018  -0.620876  0  2.280463  0
O  O102  1  0.63955960  0.09564650  0.83232677  1  -1.204494  0  -0.525217  -0.815521  0  2.479573  0
O  O103  1  0.36044050  0.90435921  0.16766968  1  -1.204985  0  -0.52518  -0.815515  0  2.479502  0
O  O104  1  0.18609950  0.94310336  0.69379236  1  -1.223244  0  -0.600809  -0.804659  0  2.029081  0
O  O105  1  0.81390457  0.05688979  0.30621377  1  -1.223119  0  -0.600814  -0.804763  0  2.029057  0
O  O106  1  0.88885275  0.85751225  0.83852381  1  -1.263774  0  -0.632494  -0.841499  0  2.034325  0
O  O107  1  0.11114690  0.14248896  0.16147707  1  -1.263813  0  -0.632522  -0.841454  0  2.034349  0
O  O108  1  0.53919037  0.42064384  0.63928638  1  -1.229489  0  -0.611239  -0.799024  0  2.047635  0
O  O109  1  0.46081517  0.57935562  0.36071249  1  -1.229559  0  -0.61123  -0.798934  0  2.047601  0
