# generated using pymatgen
data_H12PbC8O3
_symmetry_space_group_name_H-M   'P 1'
_cell_length_a   10.06512999
_cell_length_b   10.36274613
_cell_length_c   10.55624749
_cell_angle_alpha   89.99975458
_cell_angle_beta   106.77056968
_cell_angle_gamma   90.00028353
_symmetry_Int_Tables_number   1
_chemical_formula_structural   H12PbC8O3
_chemical_formula_sum   'H48 Pb4 C32 O12'
_cell_volume   1054.21211630
_cell_formula_units_Z   4
loop_
 _symmetry_equiv_pos_site_id
 _symmetry_equiv_pos_as_xyz
  1  'x, y, z'
loop_
 _atom_site_type_symbol
 _atom_site_label
 _atom_site_symmetry_multiplicity
 _atom_site_fract_x
 _atom_site_fract_y
 _atom_site_fract_z
 _atom_site_occupancy
 _atom_site_hle17_bader_spin_density
 _atom_site_hle17_ddec_charge
 _atom_site_hle17_ddec_spin_density
 _atom_site_hle17_ddec_sum_bond_order
 _atom_site_hle17_magmom
 _atom_site_hse06_10hf_bader_spin_density
 _atom_site_hse06_10hf_ddec_charge
 _atom_site_hse06_10hf_ddec_spin_density
 _atom_site_hse06_10hf_ddec_sum_bond_order
 _atom_site_hse06_10hf_magmom
 _atom_site_hse06_bader_spin_density
 _atom_site_hse06_ddec_charge
 _atom_site_hse06_ddec_spin_density
 _atom_site_hse06_ddec_sum_bond_order
 _atom_site_hse06_magmom
 _atom_site_pbe_bader_spin_density
 _atom_site_pbe_cm5_charge
 _atom_site_pbe_ddec_charge
 _atom_site_pbe_ddec_spin_density
 _atom_site_pbe_ddec_sum_bond_order
 _atom_site_pbe_magmom
H  H0  1  0.73183956  0.90796743  0.99504031  1  0  0.139453  0  1.011963  0  0  0.157761  0  1.071189  0  0  0.159426  0  1.073358  0  0  0.081515  0.156321  0  1.07011  0
H  H1  1  0.76815800  0.40797274  0.50495759  1  0  0.139461  0  1.011913  0  0  0.157796  0  1.07111  0  0  0.159463  0  1.073275  0  0  0.081507  0.156352  0  1.07003  0
H  H2  1  0.26815943  0.09202451  0.00496262  1  0  0.139549  0  1.011896  0  0  0.157847  0  1.071133  0  0  0.159514  0  1.0733  0  0  0.081551  0.156406  0  1.07005  0
H  H3  1  0.23183889  0.59202788  0.49504003  1  0  0.139427  0  1.012013  0  0  0.157764  0  1.071205  0  0  0.15943  0  1.073376  0  0  0.081528  0.156321  0  1.070125  0
H  H4  1  0.90312945  0.97507090  0.02296228  1  0  0.148971  0  1.003055  0  0  0.168372  0  1.057195  0  0  0.17119  0  1.057345  0  0  0.085204  0.165774  0  1.058198  0
H  H5  1  0.59686688  0.47507332  0.47703814  1  0  0.149025  0  1.003075  0  0  0.168447  0  1.057181  0  0  0.171266  0  1.057329  0  0  0.085236  0.16585  0  1.058185  0
H  H6  1  0.09687159  0.02491235  0.97703647  1  0  0.148962  0  1.003023  0  0  0.168424  0  1.057094  0  0  0.171242  0  1.057243  0  0  0.085213  0.16582  0  1.058107  0
H  H7  1  0.40312899  0.52492344  0.52296300  1  0  0.148957  0  1.003043  0  0  0.168359  0  1.057187  0  0  0.171177  0  1.057337  0  0  0.085189  0.165759  0  1.058193  0
H  H8  1  0.87179980  0.85093650  0.13140116  1  0  0.151961  0  1.003666  0  0  0.169247  0  1.061172  0  0  0.172196  0  1.061271  0  0  0.086939  0.167306  0  1.06077  0
H  H9  1  0.62819705  0.35094051  0.36859707  1  0  0.152014  0  1.003649  0  0  0.169317  0  1.061131  0  0  0.172266  0  1.061231  0  0  0.08695  0.167373  0  1.060728  0
H  H10  1  0.12819610  0.14905929  0.86860661  1  0  0.151986  0  1.00358  0  0  0.169272  0  1.061089  0  0  0.172223  0  1.061188  0  0  0.086937  0.16733  0  1.060687  0
H  H11  1  0.37180397  0.64906590  0.63139504  1  0  0.151993  0  1.003626  0  0  0.169289  0  1.061117  0  0  0.17224  0  1.061214  0  0  0.086968  0.167347  0  1.060716  0
H  H12  1  0.04713826  0.12991376  0.34872194  1  0  0.145401  0  1.013739  0  0  0.160934  0  1.072953  0  0  0.162543  0  1.075555  0  0  0.08329  0.159624  0  1.071371  0
H  H13  1  0.45285917  0.62991874  0.15127652  1  0  0.145333  0  1.013768  0  0  0.160904  0  1.072948  0  0  0.162513  0  1.07555  0  0  0.083257  0.159594  0  1.071363  0
H  H14  1  0.95287410  0.87009458  0.65125715  1  0  0.145207  0  1.014127  0  0  0.160796  0  1.073266  0  0  0.162405  0  1.075869  0  0  0.083235  0.159488  0  1.071686  0
H  H15  1  0.54713162  0.37009346  0.84874691  1  0  0.145278  0  1.014027  0  0  0.160839  0  1.073193  0  0  0.162448  0  1.075796  0  0  0.083261  0.15953  0  1.071614  0
H  H16  1  0.93894995  0.26753194  0.35463631  1  0  0.153217  0  1.001074  0  0  0.169525  0  1.058415  0  0  0.172481  0  1.058511  0  0  0.088752  0.167256  0  1.058687  0
H  H17  1  0.56104655  0.76753794  0.14536218  1  0  0.15316  0  1.001133  0  0  0.169456  0  1.058506  0  0  0.172413  0  1.058601  0  0  0.08871  0.167192  0  1.058774  0
H  H18  1  0.06106347  0.73247351  0.64534686  1  0  0.153168  0  1.001132  0  0  0.169432  0  1.058544  0  0  0.172388  0  1.058637  0  0  0.088723  0.167169  0  1.058813  0
H  H19  1  0.43893696  0.23247426  0.85465643  1  0  0.153141  0  1.001151  0  0  0.169415  0  1.058547  0  0  0.17237  0  1.058642  0  0  0.088715  0.167151  0  1.058817  0
H  H20  1  0.93570683  0.12694253  0.45564847  1  0  0.161248  0  0.982734  0  0  0.175905  0  1.040345  0  0  0.179192  0  1.04013  0  0  0.090414  0.173469  0  1.040682  0
H  H21  1  0.56429221  0.62694802  0.04435130  1  0  0.161327  0  0.982643  0  0  0.175978  0  1.040266  0  0  0.179252  0  1.040068  0  0  0.090455  0.17354  0  1.040611  0
H  H22  1  0.06431386  0.87306291  0.54433761  1  0  0.161212  0  0.982866  0  0  0.175844  0  1.040514  0  0  0.179132  0  1.0403  0  0  0.090414  0.173406  0  1.040861  0
H  H23  1  0.43569025  0.37306515  0.95566324  1  0  0.16123  0  0.982919  0  0  0.175866  0  1.040557  0  0  0.179155  0  1.040343  0  0  0.090447  0.173431  0  1.040896  0
H  H24  1  0.53817377  0.19924240  0.22780434  1  0  0.149055  0  1.004055  0  0  0.164658  0  1.06535  0  0  0.167612  0  1.065129  0  0  0.086395  0.162405  0  1.065797  0
H  H25  1  0.96182350  0.69925075  0.27219654  1  0  0.149098  0  1.003921  0  0  0.164695  0  1.065236  0  0  0.167648  0  1.065014  0  0  0.086395  0.162442  0  1.065686  0
H  H26  1  0.46183975  0.80075822  0.77220158  1  0  0.149049  0  1.003899  0  0  0.164637  0  1.06524  0  0  0.167592  0  1.065019  0  0  0.086382  0.162386  0  1.065687  0
H  H27  1  0.03816509  0.30076145  0.72779788  1  0  0.149091  0  1.003899  0  0  0.164677  0  1.06523  0  0  0.167632  0  1.065011  0  0  0.086422  0.162424  0  1.065677  0
H  H28  1  0.51390261  0.15815901  0.05688553  1  0  0.146447  0  1.014681  0  0  0.165711  0  1.070308  0  0  0.167887  0  1.071862  0  0  0.085313  0.16401  0  1.069601  0
H  H29  1  0.98609449  0.65816770  0.44311452  1  0  0.146468  0  1.014578  0  0  0.165742  0  1.070198  0  0  0.167917  0  1.071751  0  0  0.085318  0.164039  0  1.069489  0
H  H30  1  0.48610364  0.84184548  0.94311652  1  0  0.146462  0  1.014626  0  0  0.165722  0  1.070277  0  0  0.167898  0  1.071834  0  0  0.085305  0.164021  0  1.069568  0
H  H31  1  0.01390136  0.34184836  0.55688187  1  0  0.146442  0  1.014657  0  0  0.165715  0  1.070289  0  0  0.16789  0  1.071845  0  0  0.085294  0.164015  0  1.069573  0
H  H32  1  0.50508309  0.03398604  0.17528909  1  0  0.147514  0  1.006906  0  0  0.164683  0  1.065858  0  0  0.167064  0  1.066893  0  0  0.085519  0.162791  0  1.065585  0
H  H33  1  0.99491143  0.53399529  0.32471268  1  0  0.147542  0  1.006862  0  0  0.164768  0  1.06574  0  0  0.167148  0  1.066776  0  0  0.085567  0.162876  0  1.065467  0
H  H34  1  0.49493042  0.96601458  0.82471494  1  0  0.147511  0  1.006941  0  0  0.164704  0  1.065849  0  0  0.167085  0  1.066884  0  0  0.085524  0.162815  0  1.065576  0
H  H35  1  0.00507821  0.46601691  0.67528487  1  0  0.147516  0  1.006964  0  0  0.164703  0  1.065878  0  0  0.167084  0  1.066913  0  0  0.085541  0.162812  0  1.065607  0
H  H36  1  0.81809471  0.34817631  0.79269247  1  0  0.121032  0  0.960633  0  0  0.131474  0  1.02252  0  0  0.13402  0  1.021185  0  0  0.110674  0.129608  0  1.02355  0
H  H37  1  0.68190362  0.84817394  0.70730115  1  0  0.121052  0  0.960603  0  0  0.131487  0  1.022509  0  0  0.134033  0  1.021173  0  0  0.110655  0.129622  0  1.023541  0
H  H38  1  0.18190427  0.65181949  0.20730666  1  0  0.120994  0  0.960692  0  0  0.131434  0  1.022579  0  0  0.13398  0  1.021245  0  0  0.110654  0.12957  0  1.023606  0
H  H39  1  0.31809534  0.15182475  0.29269609  1  0  0.121047  0  0.960644  0  0  0.131483  0  1.022544  0  0  0.134029  0  1.021209  0  0  0.110662  0.129616  0  1.023573  0
H  H40  1  0.82133334  0.59559357  0.69381316  1  0  0.13031  0  0.956817  0  0  0.140801  0  1.013432  0  0  0.144358  0  1.012249  0  0  0.112006  0.138296  0  1.014337  0
H  H41  1  0.67866292  0.09559135  0.80618095  1  0  0.130358  0  0.956625  0  0  0.140813  0  1.013295  0  0  0.144371  0  1.012113  0  0  0.112011  0.138309  0  1.014204  0
H  H42  1  0.17866462  0.40440512  0.30619138  1  0  0.130295  0  0.956823  0  0  0.140751  0  1.013478  0  0  0.144305  0  1.012302  0  0  0.112005  0.138244  0  1.014382  0
H  H43  1  0.32133395  0.90441024  0.19380908  1  0  0.130339  0  0.956784  0  0  0.140802  0  1.013426  0  0  0.144358  0  1.012246  0  0  0.11199  0.138298  0  1.014331  0
H  H44  1  0.81918268  0.75244825  0.90367032  1  0  0.094589  0  0.980057  0  0  0.10298  0  1.04324  0  0  0.105118  0  1.041325  0  0  0.119341  0.101234  0  1.044921  0
H  H45  1  0.68081631  0.25244405  0.59632672  1  0  0.094557  0  0.980109  0  0  0.102934  0  1.043312  0  0  0.10507  0  1.041398  0  0  0.119335  0.101188  0  1.044989  0
H  H46  1  0.18081530  0.24754658  0.09633897  1  0  0.094522  0  0.980165  0  0  0.103019  0  1.043248  0  0  0.105155  0  1.041332  0  0  0.11934  0.101263  0  1.044931  0
H  H47  1  0.31918262  0.74755078  0.40366008  1  0  0.094599  0  0.980092  0  0  0.10304  0  1.043223  0  0  0.105177  0  1.041309  0  0  0.119381  0.101291  0  1.044908  0
Pb  Pb48  1  0.77719397  0.08547300  0.19826427  1  0  1.268086  0  2.609392  0  0  1.147501  0  3.097637  0  0  1.180178  0  3.084669  0  0  0.540955  1.124328  0  3.1078  0
Pb  Pb49  1  0.72280491  0.58547718  0.30173848  1  0  1.268137  0  2.609393  0  0  1.147571  0  3.097671  0  0  1.180249  0  3.084698  0  0  0.540954  1.124399  0  3.107836  0
Pb  Pb50  1  0.22281537  0.91452858  0.80173484  1  0  1.268063  0  2.609332  0  0  1.147468  0  3.09759  0  0  1.180158  0  3.084623  0  0  0.540988  1.124303  0  3.10775  0
Pb  Pb51  1  0.27719099  0.41453020  0.69826835  1  0  1.268032  0  2.609383  0  0  1.147437  0  3.097641  0  0  1.18012  0  3.084675  0  0  0.540954  1.124265  0  3.107803  0
C  C52  1  0.82862220  0.93410271  0.06949097  1  0  -0.659091  0  3.468137  0  0  -0.694634  0  3.689557  0  0  -0.706481  0  3.697628  0  0  -0.329744  -0.685754  0  3.684346  0
C  C53  1  0.67137499  0.43410763  0.43050606  1  0  -0.659219  0  3.468203  0  0  -0.694826  0  3.689583  0  0  -0.706676  0  3.697648  0  0  -0.329758  -0.68594  0  3.684375  0
C  C54  1  0.17137886  0.06588730  0.93050873  1  0  -0.659189  0  3.468096  0  0  -0.69479  0  3.689483  0  0  -0.706645  0  3.697555  0  0  -0.329756  -0.685901  0  3.68428  0
C  C55  1  0.32862295  0.56589492  0.56949279  1  0  -0.659074  0  3.468205  0  0  -0.694652  0  3.689595  0  0  -0.706505  0  3.697666  0  0  -0.329751  -0.685769  0  3.68439  0
C  C56  1  0.94913451  0.16267171  0.36274545  1  0  -0.633293  0  3.451773  0  0  -0.671645  0  3.682405  0  0  -0.681669  0  3.688706  0  0  -0.318973  -0.66479  0  3.678403  0
C  C57  1  0.55086156  0.66267866  0.13725241  1  0  -0.633264  0  3.451714  0  0  -0.671642  0  3.682326  0  0  -0.681654  0  3.688647  0  0  -0.318945  -0.66479  0  3.678338  0
C  C58  1  0.05087685  0.83733180  0.63723905  1  0  -0.632981  0  3.452125  0  0  -0.671347  0  3.682741  0  0  -0.681381  0  3.689066  0  0  -0.318901  -0.664477  0  3.678696  0
C  C59  1  0.44912816  0.33733257  0.86276505  1  0  -0.633045  0  3.452131  0  0  -0.671396  0  3.682788  0  0  -0.681425  0  3.689093  0  0  -0.318951  -0.664532  0  3.678745  0
C  C60  1  0.55227865  0.12513578  0.15926760  1  0  -0.642961  0  3.470367  0  0  -0.686465  0  3.702923  0  0  -0.696939  0  3.710108  0  0  -0.323717  -0.679162  0  3.698539  0
C  C61  1  0.94771728  0.62514569  0.34073323  1  0  -0.643078  0  3.470154  0  0  -0.686656  0  3.702708  0  0  -0.697129  0  3.709888  0  0  -0.323789  -0.679354  0  3.698329  0
C  C62  1  0.44773383  0.87486484  0.84073710  1  0  -0.642952  0  3.470234  0  0  -0.686455  0  3.702783  0  0  -0.696932  0  3.709971  0  0  -0.32372  -0.679156  0  3.698399  0
C  C63  1  0.05227339  0.37486844  0.65926270  1  0  -0.642991  0  3.470306  0  0  -0.686507  0  3.702889  0  0  -0.696984  0  3.710078  0  0  -0.323751  -0.679205  0  3.698498  0
C  C64  1  0.79039352  0.35520491  0.06636326  1  0  0.606558  0  4.007071  0  0  0.554402  0  4.306817  0  0  0.588487  0  4.298769  0  0  0.207214  0.531384  0  4.311338  0
C  C65  1  0.70960543  0.85520266  0.43363742  1  0  0.606288  0  4.007144  0  0  0.554076  0  4.306919  0  0  0.588159  0  4.298874  0  0  0.207109  0.531064  0  4.311433  0
C  C66  1  0.20960755  0.64478799  0.93364023  1  0  0.606415  0  4.007114  0  0  0.554256  0  4.306888  0  0  0.588341  0  4.298839  0  0  0.207165  0.531244  0  4.311411  0
C  C67  1  0.29039563  0.14478928  0.56636512  1  0  0.606186  0  4.007193  0  0  0.554016  0  4.306993  0  0  0.588096  0  4.298953  0  0  0.207017  0.531002  0  4.311507  0
C  C68  1  0.80645469  0.45159732  0.96921802  1  0  0.053753  0  3.697808  0  0  0.050034  0  3.963788  0  0  0.050388  0  3.977769  0  0  0.057857  0.049429  0  3.955008  0
C  C69  1  0.69354613  0.95159578  0.53077394  1  0  0.053732  0  3.697894  0  0  0.050143  0  3.963696  0  0  0.0505  0  3.977666  0  0  0.05789  0.049528  0  3.954927  0
C  C70  1  0.19354532  0.54839461  0.03078139  1  0  0.053928  0  3.697625  0  0  0.050168  0  3.963648  0  0  0.050521  0  3.977626  0  0  0.057883  0.04955  0  3.954883  0
C  C71  1  0.30645801  0.04839712  0.46922091  1  0  0.054027  0  3.697581  0  0  0.050259  0  3.963591  0  0  0.050612  0  3.977568  0  0  0.057915  0.04965  0  3.954812  0
C  C72  1  0.81461797  0.43929875  0.84201970  1  0  -0.134504  0  3.745012  0  0  -0.168213  0  4.005611  0  0  -0.166286  0  4.022073  0  0  -0.103606  -0.168831  0  3.993956  0
C  C73  1  0.68538075  0.93929758  0.65797743  1  0  -0.134453  0  3.744815  0  0  -0.168205  0  4.005371  0  0  -0.166276  0  4.021825  0  0  -0.103591  -0.168823  0  3.993722  0
C  C74  1  0.18538412  0.56069704  0.15798218  1  0  -0.134443  0  3.744877  0  0  -0.168148  0  4.005489  0  0  -0.166211  0  4.021928  0  0  -0.103535  -0.168763  0  3.993834  0
C  C75  1  0.31462030  0.06070207  0.34202227  1  0  -0.134548  0  3.744796  0  0  -0.168252  0  4.005402  0  0  -0.166325  0  4.021862  0  0  -0.103594  -0.168866  0  3.993742  0
C  C76  1  0.81817112  0.56667052  0.79175599  1  0  -0.172483  0  3.790563  0  0  -0.192076  0  4.054487  0  0  -0.198702  0  4.074055  0  0  -0.118981  -0.18742  0  4.040426  0
C  C77  1  0.68182708  0.06666873  0.70823688  1  0  -0.172602  0  3.790513  0  0  -0.192176  0  4.054494  0  0  -0.198803  0  4.074061  0  0  -0.11899  -0.187524  0  4.040434  0
C  C78  1  0.18182476  0.43332625  0.20824704  1  0  -0.172467  0  3.790531  0  0  -0.192037  0  4.054493  0  0  -0.198662  0  4.074062  0  0  -0.118972  -0.18738  0  4.040422  0
C  C79  1  0.31817082  0.93332996  0.29175343  1  0  -0.172493  0  3.790481  0  0  -0.192061  0  4.054422  0  0  -0.198687  0  4.073991  0  0  -0.118915  -0.187405  0  4.040358  0
C  C80  1  0.81403703  0.64858776  0.89225279  1  0  0.088675  0  3.626498  0  0  0.049966  0  3.893211  0  0  0.059179  0  3.90658  0  0  -0.002007  0.044143  0  3.883887  0
C  C81  1  0.68596152  0.14858933  0.60774172  1  0  0.088874  0  3.626405  0  0  0.050142  0  3.89311  0  0  0.059353  0  3.906475  0  0  -0.001966  0.04432  0  3.883782  0
C  C82  1  0.18595991  0.35140321  0.10775431  1  0  0.088676  0  3.626558  0  0  0.049865  0  3.893216  0  0  0.059076  0  3.906577  0  0  -0.002079  0.044053  0  3.883879  0
C  C83  1  0.31404053  0.85140936  0.39224782  1  0  0.088636  0  3.626649  0  0  0.049859  0  3.893326  0  0  0.059067  0  3.90669  0  0  -0.002117  0.044036  0  3.884003  0
O  O84  1  0.80538219  0.23721313  0.03561253  1  0  -0.626725  0  1.962449  0  0  -0.562873  0  2.194194  0  0  -0.59003  0  2.188704  0  0  -0.305992  -0.543824  0  2.19771  0
O  O85  1  0.69461525  0.73720970  0.46439108  1  0  -0.626623  0  1.962424  0  0  -0.562767  0  2.194184  0  0  -0.589923  0  2.188694  0  0  -0.305976  -0.54372  0  2.197696  0
O  O86  1  0.19461886  0.76278170  0.96438717  1  0  -0.626657  0  1.962268  0  0  -0.562796  0  2.19402  0  0  -0.589957  0  2.188529  0  0  -0.305975  -0.543748  0  2.197535  0
O  O87  1  0.30538585  0.26278320  0.53561905  1  0  -0.626579  0  1.962307  0  0  -0.562703  0  2.194041  0  0  -0.589861  0  2.18855  0  0  -0.305933  -0.543656  0  2.197552  0
O  O88  1  0.73880050  0.88944388  0.32942639  1  0  -0.651537  0  2.022355  0  0  -0.586884  0  2.259495  0  0  -0.612768  0  2.252887  0  0  -0.300418  -0.568194  0  2.262878  0
O  O89  1  0.76120272  0.38944940  0.17057057  1  0  -0.651637  0  2.022433  0  0  -0.587002  0  2.259571  0  0  -0.612881  0  2.252954  0  0  -0.30045  -0.568315  0  2.262968  0
O  O90  1  0.26120677  0.11054613  0.67057215  1  0  -0.651459  0  2.022563  0  0  -0.586806  0  2.259694  0  0  -0.612687  0  2.253084  0  0  -0.300322  -0.568125  0  2.263091  0
O  O91  1  0.23879729  0.61054640  0.82942980  1  0  -0.651597  0  2.022597  0  0  -0.586951  0  2.259742  0  0  -0.612834  0  2.253124  0  0  -0.300425  -0.568269  0  2.263145  0
O  O92  1  0.80580660  0.58083351  0.00073811  1  0  -0.185598  0  2.432972  0  0  -0.111059  0  2.656275  0  0  -0.128343  0  2.66598  0  0  -0.117922  -0.099301  0  2.649539  0
O  O93  1  0.69419640  0.08083149  0.49926293  1  0  -0.185661  0  2.43309  0  0  -0.111106  0  2.656327  0  0  -0.128379  0  2.666023  0  0  -0.117922  -0.099349  0  2.649594  0
O  O94  1  0.19419345  0.41915746  0.99926889  1  0  -0.185684  0  2.433016  0  0  -0.111106  0  2.656339  0  0  -0.12838  0  2.666033  0  0  -0.11794  -0.099347  0  2.649605  0
O  O95  1  0.30580877  0.91916141  0.50073126  1  0  -0.185748  0  2.433063  0  0  -0.111147  0  2.656355  0  0  -0.128415  0  2.666045  0  0  -0.117959  -0.09939  0  2.649624  0
