# generated using pymatgen
data_AgH9C6(NO)4
_symmetry_space_group_name_H-M   'P 1'
_cell_length_a   8.75767309
_cell_length_b   9.18449162
_cell_length_c   12.17509466
_cell_angle_alpha   90.00000633
_cell_angle_beta   90.00001422
_cell_angle_gamma   106.29526331
_symmetry_Int_Tables_number   1
_chemical_formula_structural   AgH9C6(NO)4
_chemical_formula_sum   'Ag4 H36 C24 N16 O16'
_cell_volume   939.96100279
_cell_formula_units_Z   4
loop_
 _symmetry_equiv_pos_site_id
 _symmetry_equiv_pos_as_xyz
  1  'x, y, z'
loop_
 _atom_site_type_symbol
 _atom_site_label
 _atom_site_symmetry_multiplicity
 _atom_site_fract_x
 _atom_site_fract_y
 _atom_site_fract_z
 _atom_site_occupancy
 _atom_site_hle17_bader_spin_density
 _atom_site_hle17_ddec_charge
 _atom_site_hle17_ddec_spin_density
 _atom_site_hle17_ddec_sum_bond_order
 _atom_site_hle17_magmom
 _atom_site_hse06_10hf_bader_spin_density
 _atom_site_hse06_10hf_ddec_charge
 _atom_site_hse06_10hf_ddec_spin_density
 _atom_site_hse06_10hf_ddec_sum_bond_order
 _atom_site_hse06_10hf_magmom
 _atom_site_hse06_bader_spin_density
 _atom_site_hse06_ddec_charge
 _atom_site_hse06_ddec_spin_density
 _atom_site_hse06_ddec_sum_bond_order
 _atom_site_hse06_magmom
 _atom_site_pbe_bader_spin_density
 _atom_site_pbe_cm5_charge
 _atom_site_pbe_ddec_charge
 _atom_site_pbe_ddec_spin_density
 _atom_site_pbe_ddec_sum_bond_order
 _atom_site_pbe_magmom
Ag  Ag0  1  0.83068318  0.07657485  0.20160837  1  0  0.581806  0  1.317666  0  0  0.439308  0  1.74659  0  0  0.469775  0  1.702427  0  0  0.468322  0.417323  0  1.777886  0
Ag  Ag1  1  0.66931642  0.92342469  0.70160943  1  0  0.581823  0  1.317649  0  0  0.439323  0  1.746574  0  0  0.469798  0  1.702396  0  0  0.468332  0.417335  0  1.777872  0
Ag  Ag2  1  0.16931657  0.92342466  0.79839056  1  0  0.581804  0  1.317681  0  0  0.439335  0  1.7466  0  0  0.469797  0  1.702444  0  0  0.46833  0.417349  0  1.777898  0
Ag  Ag3  1  0.33068253  0.07657596  0.29839114  1  0  0.581812  0  1.317648  0  0  0.439326  0  1.746571  0  0  0.469795  0  1.7024  0  0  0.468332  0.417341  0  1.777869  0
H  H4  1  0.58697037  0.87066524  0.92515511  1  0  0.340326  0  0.938248  0  0  0.319163  0  1.004959  0  0  0.328229  0  0.996778  0  0  0.295027  0.312566  0  1.011148  0
H  H5  1  0.91302932  0.12933436  0.42515407  1  0  0.340323  0  0.938257  0  0  0.319162  0  1.004964  0  0  0.328228  0  0.996783  0  0  0.295025  0.312563  0  1.011159  0
H  H6  1  0.41302857  0.12933541  0.07484546  1  0  0.340311  0  0.93826  0  0  0.319151  0  1.004965  0  0  0.328217  0  0.996784  0  0  0.295029  0.312554  0  1.011153  0
H  H7  1  0.08697042  0.87066515  0.57484568  1  0  0.340365  0  0.938176  0  0  0.319195  0  1.004885  0  0  0.328268  0  0.996717  0  0  0.295042  0.312596  0  1.011082  0
H  H8  1  0.65485090  0.90999962  0.06179017  1  0  0.317303  0  0.947635  0  0  0.292323  0  1.028796  0  0  0.301276  0  1.019718  0  0  0.293176  0.285805  0  1.035598  0
H  H9  1  0.84515093  0.08999987  0.56178955  1  0  0.317296  0  0.947655  0  0  0.292316  0  1.028815  0  0  0.301269  0  1.019737  0  0  0.29319  0.285798  0  1.035618  0
H  H10  1  0.34515033  0.09000102  0.93821040  1  0  0.3173  0  0.947628  0  0  0.29232  0  1.028787  0  0  0.301273  0  1.01971  0  0  0.293178  0.285802  0  1.035589  0
H  H11  1  0.15485030  0.91000077  0.43821020  1  0  0.317303  0  0.947643  0  0  0.292325  0  1.028804  0  0  0.301279  0  1.019725  0  0  0.293198  0.285807  0  1.035607  0
H  H12  1  0.22456131  0.41622432  0.03447205  1  0  0.13497  0  0.945301  0  0  0.157927  0  0.998617  0  0  0.159938  0  0.998136  0  0  0.098766  0.156325  0  0.999412  0
H  H13  1  0.27543767  0.58377623  0.53447228  1  0  0.13498  0  0.945309  0  0  0.157937  0  0.998623  0  0  0.159948  0  0.998142  0  0  0.098762  0.156335  0  0.999419  0
H  H14  1  0.77543844  0.58377519  0.96552770  1  0  0.134993  0  0.945275  0  0  0.157944  0  0.998593  0  0  0.159954  0  0.998118  0  0  0.098762  0.156342  0  0.999388  0
H  H15  1  0.72456208  0.41622328  0.46552911  1  0  0.134991  0  0.945282  0  0  0.157947  0  0.998593  0  0  0.159957  0  0.998118  0  0  0.098766  0.156346  0  0.999389  0
H  H16  1  0.16861796  0.26354822  0.13012715  1  0  0.127406  0  0.973253  0  0  0.140398  0  1.049384  0  0  0.142822  0  1.048061  0  0  0.094968  0.13853  0  1.050612  0
H  H17  1  0.33138220  0.73645235  0.63012740  1  0  0.12742  0  0.973261  0  0  0.140412  0  1.049386  0  0  0.142836  0  1.048062  0  0  0.094968  0.138545  0  1.050613  0
H  H18  1  0.83138179  0.73645129  0.86987178  1  0  0.127411  0  0.973281  0  0  0.140402  0  1.049404  0  0  0.142826  0  1.04808  0  0  0.094972  0.138534  0  1.050632  0
H  H19  1  0.66861789  0.26354830  0.36987235  1  0  0.127402  0  0.973301  0  0  0.140391  0  1.049422  0  0  0.142816  0  1.048098  0  0  0.094969  0.138525  0  1.050651  0
H  H20  1  0.05527094  0.39558187  0.12248860  1  0  0.139312  0  0.942036  0  0  0.159822  0  1.001456  0  0  0.161944  0  1.000951  0  0  0.099761  0.157969  0  1.002279  0
H  H21  1  0.44473036  0.60441869  0.62248968  1  0  0.139331  0  0.942023  0  0  0.159841  0  1.001433  0  0  0.161962  0  1.000931  0  0  0.099773  0.157998  0  1.002247  0
H  H22  1  0.94473029  0.60441877  0.87751033  1  0  0.13933  0  0.942017  0  0  0.159837  0  1.00143  0  0  0.161959  0  1.000926  0  0  0.099775  0.157994  0  1.002242  0
H  H23  1  0.55527121  0.39558308  0.37751171  1  0  0.139338  0  0.941991  0  0  0.159831  0  1.001429  0  0  0.161952  0  1.000924  0  0  0.099759  0.157985  0  1.002246  0
H  H24  1  0.14514332  0.36572012  0.85272358  1  0  0.149699  0  0.989426  0  0  0.15074  0  1.062104  0  0  0.155865  0  1.059675  0  0  0.109072  0.146901  0  1.064119  0
H  H25  1  0.35485659  0.63427938  0.35272421  1  0  0.1497  0  0.989401  0  0  0.15074  0  1.062081  0  0  0.155867  0  1.059651  0  0  0.109082  0.146901  0  1.064095  0
H  H26  1  0.85485643  0.63427939  0.14727617  1  0  0.149702  0  0.989404  0  0  0.150749  0  1.062077  0  0  0.155876  0  1.059645  0  0  0.109074  0.146908  0  1.064089  0
H  H27  1  0.64514316  0.36572013  0.64727635  1  0  0.14969  0  0.989423  0  0  0.150733  0  1.062098  0  0  0.155859  0  1.059667  0  0  0.109073  0.146893  0  1.064114  0
H  H28  1  0.05778051  0.32734872  0.56377551  1  0  0.111056  0  0.948331  0  0  0.12815  0  1.008064  0  0  0.129005  0  1.007823  0  0  0.108553  0.127316  0  1.008494  0
H  H29  1  0.44221849  0.67265184  0.06377534  1  0  0.11102  0  0.948338  0  0  0.12813  0  1.008053  0  0  0.128983  0  1.007817  0  0  0.108564  0.127295  0  1.008483  0
H  H30  1  0.94221844  0.67265193  0.43622424  1  0  0.111067  0  0.948314  0  0  0.128165  0  1.008042  0  0  0.12902  0  1.0078  0  0  0.108567  0.127331  0  1.008473  0
H  H31  1  0.55778274  0.32734880  0.93622523  1  0  0.111043  0  0.948321  0  0  0.128131  0  1.008063  0  0  0.128985  0  1.00782  0  0  0.108536  0.127296  0  1.008494  0
H  H32  1  0.19264593  0.30537996  0.67011145  1  0  0.089967  0  0.947547  0  0  0.10579  0  1.013008  0  0  0.105559  0  1.014216  0  0  0.097071  0.10609  0  1.011864  0
H  H33  1  0.30735277  0.69461949  0.17011126  1  0  0.089938  0  0.947563  0  0  0.105762  0  1.013027  0  0  0.105534  0  1.014227  0  0  0.097067  0.106061  0  1.011881  0
H  H34  1  0.80735268  0.69461956  0.32988830  1  0  0.089954  0  0.947539  0  0  0.105776  0  1.013007  0  0  0.105547  0  1.014208  0  0  0.09707  0.106075  0  1.011863  0
H  H35  1  0.69264698  0.30538002  0.82988849  1  0  0.089949  0  0.94756  0  0  0.105773  0  1.013022  0  0  0.105546  0  1.014219  0  0  0.097069  0.106071  0  1.011876  0
H  H36  1  0.07165448  0.43337118  0.68814745  1  0  0.112752  0  0.962214  0  0  0.126887  0  1.02772  0  0  0.127905  0  1.027052  0  0  0.10556  0.125707  0  1.029061  0
H  H37  1  0.42834571  0.56662941  0.18814726  1  0  0.112748  0  0.962207  0  0  0.126881  0  1.02772  0  0  0.127896  0  1.027055  0  0  0.105566  0.125699  0  1.029062  0
H  H38  1  0.92834447  0.56662947  0.31185148  1  0  0.112731  0  0.962258  0  0  0.1269  0  1.027726  0  0  0.127887  0  1.02709  0  0  0.105553  0.125718  0  1.029068  0
H  H39  1  0.57165552  0.43337123  0.81185248  1  0  0.112709  0  0.962289  0  0  0.126876  0  1.027762  0  0  0.127864  0  1.027126  0  0  0.105533  0.125694  0  1.029104  0
C  C40  1  0.79593949  0.04049757  0.94622844  1  0  0.659664  0  3.812073  0  0  0.612336  0  4.076988  0  0  0.640492  0  4.085481  0  0  0.344097  0.593335  0  4.070281  0
C  C41  1  0.70405988  0.95950090  0.44622908  1  0  0.659711  0  3.811982  0  0  0.612366  0  4.076907  0  0  0.640521  0  4.085398  0  0  0.3441  0.593365  0  4.070203  0
C  C42  1  0.20405878  0.95950081  0.05377130  1  0  0.65968  0  3.812008  0  0  0.612349  0  4.076941  0  0  0.640505  0  4.085429  0  0  0.344107  0.593349  0  4.070234  0
C  C43  1  0.29593987  0.04049861  0.55377149  1  0  0.659693  0  3.812022  0  0  0.612339  0  4.076996  0  0  0.640498  0  4.085481  0  0  0.344091  0.593338  0  4.070292  0
C  C44  1  0.01788129  0.23987069  0.98948390  1  0  0.425523  0  3.728379  0  0  0.422513  0  3.972599  0  0  0.441672  0  3.987369  0  0  0.135664  0.409106  0  3.962378  0
C  C45  1  0.48211868  0.76012884  0.48948292  1  0  0.425547  0  3.728331  0  0  0.422459  0  3.972646  0  0  0.441617  0  3.987417  0  0  0.135622  0.409051  0  3.962431  0
C  C46  1  0.98211846  0.76012882  0.01051585  1  0  0.425489  0  3.728384  0  0  0.422484  0  3.972602  0  0  0.441643  0  3.98737  0  0  0.135634  0.409077  0  3.962382  0
C  C47  1  0.51788141  0.23987181  0.51051683  1  0  0.42553  0  3.728341  0  0  0.422477  0  3.972614  0  0  0.441636  0  3.987384  0  0  0.135618  0.40907  0  3.962399  0
C  C48  1  0.12352333  0.33480960  0.07362245  1  0  -0.395085  0  3.665808  0  0  -0.473639  0  3.894205  0  0  -0.478907  0  3.899661  0  0  -0.247468  -0.469837  0  3.891535  0
C  C49  1  0.37647681  0.66519096  0.57362271  1  0  -0.395167  0  3.665822  0  0  -0.473697  0  3.894242  0  0  -0.478963  0  3.899697  0  0  -0.247477  -0.469901  0  3.891566  0
C  C50  1  0.87647676  0.66519104  0.92637730  1  0  -0.39513  0  3.665838  0  0  -0.473664  0  3.894215  0  0  -0.478934  0  3.899671  0  0  -0.247472  -0.46987  0  3.891536  0
C  C51  1  0.62352294  0.33480856  0.42637704  1  0  -0.395167  0  3.665823  0  0  -0.473679  0  3.894208  0  0  -0.478949  0  3.899663  0  0  -0.247465  -0.469882  0  3.891536  0
C  C52  1  0.04578952  0.27153691  0.87823056  1  0  -0.406673  0  3.702441  0  0  -0.428487  0  3.965259  0  0  -0.447559  0  3.981586  0  0  -0.129042  -0.415216  0  3.953434  0
C  C53  1  0.45421040  0.72846259  0.37823039  1  0  -0.406656  0  3.702378  0  0  -0.428427  0  3.965218  0  0  -0.447503  0  3.981556  0  0  -0.129029  -0.415155  0  3.953396  0
C  C54  1  0.95421023  0.72846260  0.12176919  1  0  -0.406676  0  3.70238  0  0  -0.428484  0  3.965198  0  0  -0.447556  0  3.981526  0  0  -0.129042  -0.415209  0  3.953372  0
C  C55  1  0.54578934  0.27153692  0.62176935  1  0  -0.406637  0  3.702415  0  0  -0.428431  0  3.965229  0  0  -0.447508  0  3.981566  0  0  -0.129012  -0.41516  0  3.953407  0
C  C56  1  0.93934755  0.18093483  0.80390431  1  0  0.489216  0  3.865556  0  0  0.444825  0  4.151456  0  0  0.473018  0  4.154948  0  0  0.213129  0.425897  0  4.148148  0
C  C57  1  0.56065244  0.81906587  0.30390491  1  0  0.489289  0  3.865454  0  0  0.444858  0  4.15139  0  0  0.473043  0  4.154887  0  0  0.213158  0.425931  0  4.148084  0
C  C58  1  0.06065254  0.81906582  0.19609461  1  0  0.489292  0  3.865455  0  0  0.444857  0  4.151402  0  0  0.473042  0  4.154899  0  0  0.213158  0.425929  0  4.148097  0
C  C59  1  0.43934765  0.18093478  0.69609566  1  0  0.489238  0  3.86554  0  0  0.444864  0  4.151418  0  0  0.47305  0  4.154914  0  0  0.213149  0.425936  0  4.148111  0
C  C60  1  0.07755890  0.32576951  0.65239413  1  0  -0.071679  0  3.535399  0  0  -0.165411  0  3.784616  0  0  -0.158739  0  3.788781  0  0  -0.141515  -0.169898  0  3.781941  0
C  C61  1  0.42244013  0.67423107  0.15239395  1  0  -0.071599  0  3.535402  0  0  -0.165351  0  3.784626  0  0  -0.158683  0  3.788797  0  0  -0.141521  -0.169839  0  3.781956  0
C  C62  1  0.92244005  0.67423114  0.34760562  1  0  -0.071664  0  3.535464  0  0  -0.165437  0  3.784642  0  0  -0.158743  0  3.78884  0  0  -0.141524  -0.169926  0  3.781979  0
C  C63  1  0.57756076  0.32576843  0.84760580  1  0  -0.071591  0  3.535454  0  0  -0.165362  0  3.78464  0  0  -0.158669  0  3.788837  0  0  -0.141468  -0.169852  0  3.78197  0
N  N64  1  0.89467945  0.12437526  0.02411242  1  0  -0.531093  0  3.133742  0  0  -0.451283  0  3.408211  0  0  -0.480552  0  3.419678  0  0  -0.358248  -0.431268  0  3.399415  0
N  N65  1  0.60532122  0.87562423  0.52411265  1  0  -0.531132  0  3.133722  0  0  -0.451285  0  3.40821  0  0  -0.480554  0  3.41968  0  0  -0.358251  -0.43127  0  3.399416  0
N  N66  1  0.10532064  0.87562539  0.97588732  1  0  -0.531083  0  3.133737  0  0  -0.451308  0  3.408259  0  0  -0.480576  0  3.419723  0  0  -0.358247  -0.431293  0  3.399462  0
N  N67  1  0.39467853  0.12437528  0.47588792  1  0  -0.531096  0  3.133685  0  0  -0.451267  0  3.408185  0  0  -0.480537  0  3.419649  0  0  -0.358242  -0.431253  0  3.399392  0
N  N68  1  0.67440944  0.92604623  0.97963191  1  0  -0.68426  0  3.117637  0  0  -0.642421  0  3.352909  0  0  -0.66557  0  3.347904  0  0  -0.576996  -0.626648  0  3.357149  0
N  N69  1  0.82559257  0.07395337  0.47963249  1  0  -0.684251  0  3.117607  0  0  -0.642406  0  3.352876  0  0  -0.665555  0  3.347872  0  0  -0.576996  -0.626632  0  3.357118  0
N  N70  1  0.32559293  0.07395440  0.02036784  1  0  -0.684253  0  3.117612  0  0  -0.642391  0  3.352854  0  0  -0.665542  0  3.347849  0  0  -0.577003  -0.626617  0  3.357093  0
N  N71  1  0.17440832  0.92604614  0.52036808  1  0  -0.684303  0  3.11756  0  0  -0.642437  0  3.352822  0  0  -0.6656  0  3.347813  0  0  -0.577017  -0.626662  0  3.357067  0
N  N72  1  0.81459202  0.06621745  0.83607325  1  0  -0.56624  0  3.171167  0  0  -0.490837  0  3.465769  0  0  -0.518314  0  3.470242  0  0  -0.36223  -0.471575  0  3.461692  0
N  N73  1  0.68540799  0.93378325  0.33607305  1  0  -0.56629  0  3.171129  0  0  -0.49087  0  3.465756  0  0  -0.518338  0  3.470223  0  0  -0.362239  -0.471609  0  3.461681  0
N  N74  1  0.18540807  0.93378319  0.16392650  1  0  -0.56627  0  3.17113  0  0  -0.490874  0  3.465782  0  0  -0.51834  0  3.470243  0  0  -0.362247  -0.471614  0  3.461708  0
N  N75  1  0.31459244  0.06621853  0.66392670  1  0  -0.566286  0  3.17121  0  0  -0.490915  0  3.465864  0  0  -0.518383  0  3.470327  0  0  -0.362255  -0.471653  0  3.46179  0
N  N76  1  0.15973030  0.32497665  0.34162037  1  0  0.687637  0  4.141451  0  0  0.717269  0  4.433137  0  0  0.743107  0  4.440689  0  0  0.091982  0.698405  0  4.427405  0
N  N77  1  0.34027075  0.67502284  0.84162062  1  0  0.687608  0  4.141475  0  0  0.717213  0  4.433207  0  0  0.743049  0  4.440763  0  0  0.091949  0.698351  0  4.427469  0
N  N78  1  0.84027059  0.67502285  0.65838020  1  0  0.687623  0  4.141482  0  0  0.717413  0  4.432965  0  0  0.743276  0  4.440514  0  0  0.09203  0.698551  0  4.427229  0
N  N79  1  0.65972934  0.32497781  0.15838077  1  0  0.68763  0  4.141476  0  0  0.717232  0  4.433217  0  0  0.743073  0  4.440774  0  0  0.091965  0.69837  0  4.427485  0
O  O80  1  0.94973730  0.20102719  0.69453104  1  0  -0.282728  0  2.373648  0  0  -0.193475  0  2.614005  0  0  -0.214447  0  2.61296  0  0  -0.168664  -0.179022  0  2.614432  0
O  O81  1  0.55026230  0.79897235  0.19453081  1  0  -0.282789  0  2.373632  0  0  -0.193504  0  2.613997  0  0  -0.21447  0  2.61295  0  0  -0.16869  -0.179052  0  2.614425  0
O  O82  1  0.05026131  0.79897233  0.30546789  1  0  -0.282756  0  2.373633  0  0  -0.193462  0  2.613983  0  0  -0.214429  0  2.612933  0  0  -0.168675  -0.17901  0  2.614414  0
O  O83  1  0.44973779  0.20102830  0.80546894  1  0  -0.282752  0  2.373663  0  0  -0.193478  0  2.614012  0  0  -0.214445  0  2.612962  0  0  -0.168669  -0.179024  0  2.614436  0
O  O84  1  0.07566498  0.18469121  0.33628159  1  0  -0.530506  0  1.876781  0  0  -0.50406  0  2.134621  0  0  -0.521034  0  2.122732  0  0  -0.215802  -0.491597  0  2.143369  0
O  O85  1  0.42433492  0.81530828  0.83628104  1  0  -0.530483  0  1.876799  0  0  -0.504012  0  2.134624  0  0  -0.520973  0  2.122709  0  0  -0.215783  -0.491548  0  2.143365  0
O  O86  1  0.92433397  0.81530944  0.66372062  1  0  -0.530488  0  1.876819  0  0  -0.504078  0  2.134603  0  0  -0.521055  0  2.122684  0  0  -0.215792  -0.491614  0  2.143345  0
O  O87  1  0.57566630  0.18469236  0.16371953  1  0  -0.530497  0  1.876823  0  0  -0.504028  0  2.134637  0  0  -0.520987  0  2.122708  0  0  -0.215795  -0.491565  0  2.143378  0
O  O88  1  0.29930022  0.35925380  0.30300220  1  0  -0.462092  0  1.812922  0  0  -0.442373  0  2.041484  0  0  -0.457901  0  2.035266  0  0  -0.181047  -0.43056  0  2.046151  0
O  O89  1  0.20070115  0.64074682  0.80300243  1  0  -0.462082  0  1.812913  0  0  -0.442351  0  2.041477  0  0  -0.457877  0  2.035257  0  0  -0.181037  -0.430547  0  2.046152  0
O  O90  1  0.70069953  0.64074572  0.69699754  1  0  -0.462119  0  1.812929  0  0  -0.44244  0  2.041429  0  0  -0.457972  0  2.035201  0  0  -0.181058  -0.430625  0  2.046096  0
O  O91  1  0.79930008  0.35925382  0.19699814  1  0  -0.462089  0  1.812919  0  0  -0.442356  0  2.041483  0  0  -0.457883  0  2.035256  0  0  -0.18104  -0.430537  0  2.046139  0
O  O92  1  0.10262781  0.42230106  0.38447096  1  0  -0.436272  0  1.740257  0  0  -0.425479  0  1.94245  0  0  -0.437607  0  1.937385  0  0  -0.174134  -0.415669  0  1.94615  0
O  O93  1  0.39737246  0.57769958  0.88447121  1  0  -0.436264  0  1.740281  0  0  -0.425471  0  1.942487  0  0  -0.4376  0  1.937421  0  0  -0.174131  -0.41566  0  1.946184  0
O  O94  1  0.89737376  0.57770072  0.61552879  1  0  -0.436259  0  1.740245  0  0  -0.425556  0  1.942425  0  0  -0.437693  0  1.937362  0  0  -0.174189  -0.415747  0  1.946123  0
O  O95  1  0.60262763  0.42230106  0.11552936  1  0  -0.436292  0  1.740296  0  0  -0.425482  0  1.942492  0  0  -0.437613  0  1.937431  0  0  -0.174138  -0.415672  0  1.94619  0
