# generated using pymatgen
data_NaH7C4O7
_symmetry_space_group_name_H-M   'P 1'
_cell_length_a   6.51805577
_cell_length_b   7.03830535
_cell_length_c   7.98023004
_cell_angle_alpha   90.45094296
_cell_angle_beta   102.09950767
_cell_angle_gamma   109.92345315
_symmetry_Int_Tables_number   1
_chemical_formula_structural   NaH7C4O7
_chemical_formula_sum   'Na2 H14 C8 O14'
_cell_volume   335.28926424
_cell_formula_units_Z   2
loop_
 _symmetry_equiv_pos_site_id
 _symmetry_equiv_pos_as_xyz
  1  'x, y, z'
loop_
 _atom_site_type_symbol
 _atom_site_label
 _atom_site_symmetry_multiplicity
 _atom_site_fract_x
 _atom_site_fract_y
 _atom_site_fract_z
 _atom_site_occupancy
 _atom_site_hle17_bader_spin_density
 _atom_site_hle17_ddec_charge
 _atom_site_hle17_ddec_spin_density
 _atom_site_hle17_ddec_sum_bond_order
 _atom_site_hle17_magmom
 _atom_site_hse06_10hf_bader_spin_density
 _atom_site_hse06_10hf_ddec_charge
 _atom_site_hse06_10hf_ddec_spin_density
 _atom_site_hse06_10hf_ddec_sum_bond_order
 _atom_site_hse06_10hf_magmom
 _atom_site_hse06_bader_spin_density
 _atom_site_hse06_ddec_charge
 _atom_site_hse06_ddec_spin_density
 _atom_site_hse06_ddec_sum_bond_order
 _atom_site_hse06_magmom
 _atom_site_pbe_bader_spin_density
 _atom_site_pbe_cm5_charge
 _atom_site_pbe_ddec_charge
 _atom_site_pbe_ddec_spin_density
 _atom_site_pbe_ddec_sum_bond_order
 _atom_site_pbe_magmom
Na  Na0  1  0.09655133  0.76535245  0.98422747  1  0  0.906179  0  0.360004  0  0  0.856798  0  0.514181  0  0  0.868439  0  0.491591  0  0  0.666554  0.848318  0  0.530169  0
Na  Na1  1  0.90344649  0.23464293  0.01577161  1  0  0.906176  0  0.359995  0  0  0.856787  0  0.51417  0  0  0.868429  0  0.491583  0  0  0.666527  0.848298  0  0.530173  0
H  H2  1  0.24370385  0.64957259  0.58662452  1  0  0.398323  0  0.898743  0  0  0.36197  0  0.984043  0  0  0.376475  0  0.97028  0  0  0.294506  0.351888  0  0.993482  0
H  H3  1  0.75629517  0.35042582  0.41337481  1  0  0.398335  0  0.898731  0  0  0.361971  0  0.984038  0  0  0.376471  0  0.970281  0  0  0.294482  0.351892  0  0.993473  0
H  H4  1  0.31221476  0.16796110  0.97501980  1  0  0.390042  0  0.85469  0  0  0.366813  0  0.924904  0  0  0.376548  0  0.913195  0  0  0.319583  0.359883  0  0.933263  0
H  H5  1  0.68779028  0.83203267  0.02498297  1  0  0.390024  0  0.854664  0  0  0.366791  0  0.924906  0  0  0.376526  0  0.913197  0  0  0.319575  0.359861  0  0.933266  0
H  H6  1  0.65735419  0.44307997  0.80682092  1  0  0.380106  0  0.920876  0  0  0.356522  0  0.989999  0  0  0.367127  0  0.977849  0  0  0.294094  0.349039  0  0.9982  0
H  H7  1  0.34264327  0.55691845  0.19317815  1  0  0.380124  0  0.920845  0  0  0.356544  0  0.989954  0  0  0.367148  0  0.977818  0  0  0.294094  0.349062  0  0.998154  0
H  H8  1  0.05726232  0.08224369  0.63096939  1  0  0.091315  0  0.919161  0  0  0.096507  0  0.984742  0  0  0.099358  0  0.982035  0  0  0.123399  0.094375  0  0.986869  0
H  H9  1  0.94273575  0.91775620  0.36903482  1  0  0.09127  0  0.919147  0  0  0.096468  0  0.984733  0  0  0.099322  0  0.982024  0  0  0.123372  0.094334  0  0.986865  0
H  H10  1  0.44729387  0.24217958  0.57798253  1  0  0.070627  0  0.933086  0  0  0.077294  0  0.998993  0  0  0.079645  0  0.997299  0  0  0.115684  0.075479  0  1.000496  0
H  H11  1  0.55270009  0.75782191  0.42201601  1  0  0.070689  0  0.93302  0  0  0.077367  0  0.998915  0  0  0.079713  0  0.997235  0  0  0.115713  0.07556  0  1.000407  0
H  H12  1  0.68353760  0.75172022  0.74182847  1  0  0.418643  0  0.889775  0  0  0.385585  0  0.957937  0  0  0.396258  0  0.94238  0  0  0.291514  0.378058  0  0.968892  0
H  H13  1  0.31645890  0.24827974  0.25817046  1  0  0.418623  0  0.889807  0  0  0.385562  0  0.957971  0  0  0.396235  0  0.942413  0  0  0.291516  0.378036  0  0.968924  0
H  H14  1  0.78396558  0.63388483  0.62488118  1  0  0.420973  0  0.877177  0  0  0.390019  0  0.94104  0  0  0.400087  0  0.926221  0  0  0.297923  0.382866  0  0.951566  0
H  H15  1  0.21603248  0.36611511  0.37511802  1  0  0.42092  0  0.877237  0  0  0.389985  0  0.941071  0  0  0.400055  0  0.92625  0  0  0.297905  0.382831  0  0.9516  0
C  C16  1  0.18213957  0.39593395  0.72254170  1  0  0.675283  0  3.753804  0  0  0.623236  0  4.056285  0  0  0.655983  0  4.046644  0  0  0.234709  0.600877  0  4.062482  0
C  C17  1  0.81788047  0.60405838  0.27744476  1  0  0.675387  0  3.754259  0  0  0.623298  0  4.056753  0  0  0.656033  0  4.047117  0  0  0.234617  0.600949  0  4.062941  0
C  C18  1  0.19641869  0.18290753  0.73067275  1  0  0.052015  0  3.648252  0  0  0.026521  0  3.899777  0  0  0.027837  0  3.906026  0  0  -0.004998  0.025553  0  3.8956  0
C  C19  1  0.80358370  0.81709538  0.26933098  1  0  0.052153  0  3.648067  0  0  0.026643  0  3.899615  0  0  0.027958  0  3.90587  0  0  -0.004929  0.025674  0  3.895434  0
C  C20  1  0.42231723  0.18217730  0.70205463  1  0  0.059389  0  3.683  0  0  0.032516  0  3.938989  0  0  0.033698  0  3.946042  0  0  -0.008162  0.031607  0  3.93422  0
C  C21  1  0.57768359  0.81782568  0.29794382  1  0  0.05921  0  3.683183  0  0  0.032286  0  3.939255  0  0  0.033464  0  3.946309  0  0  -0.008234  0.031375  0  3.934488  0
C  C22  1  0.42134282  0.96398770  0.69162590  1  0  0.651438  0  3.830373  0  0  0.594697  0  4.147057  0  0  0.627916  0  4.137992  0  0  0.222324  0.572107  0  4.152683  0
C  C23  1  0.57864897  0.03601238  0.30836473  1  0  0.651536  0  3.830542  0  0  0.594821  0  4.147212  0  0  0.628042  0  4.13814  0  0  0.222346  0.572231  0  4.152842  0
O  O24  1  0.12541931  0.47216620  0.83704544  1  0  -0.622368  0  1.962299  0  0  -0.581565  0  2.201886  0  0  -0.601518  0  2.190402  0  0  -0.368583  -0.567872  0  2.209498  0
O  O25  1  0.87458262  0.52784720  0.16297342  1  0  -0.622171  0  1.963567  0  0  -0.581356  0  2.203139  0  0  -0.601295  0  2.191656  0  0  -0.368358  -0.567667  0  2.210745  0
O  O26  1  0.23423811  0.48453218  0.58518095  1  0  -0.593704  0  2.129897  0  0  -0.526795  0  2.353554  0  0  -0.552827  0  2.340369  0  0  -0.315664  -0.508699  0  2.362197  0
O  O27  1  0.76576310  0.51546761  0.41483005  1  0  -0.594006  0  2.129413  0  0  -0.526975  0  2.352969  0  0  -0.553009  0  2.339796  0  0  -0.315752  -0.508897  0  2.361627  0
O  O28  1  0.16726774  0.10715963  0.89221616  1  0  -0.602474  0  2.124021  0  0  -0.562231  0  2.359473  0  0  -0.575169  0  2.345461  0  0  -0.461626  -0.553072  0  2.369094  0
O  O29  1  0.83273538  0.89283720  0.10778633  1  0  -0.602494  0  2.124012  0  0  -0.562228  0  2.359398  0  0  -0.575166  0  2.345388  0  0  -0.46165  -0.553067  0  2.369019  0
O  O30  1  0.59478040  0.30010948  0.84040856  1  0  -0.612033  0  2.13609  0  0  -0.567737  0  2.369466  0  0  -0.582703  0  2.356631  0  0  -0.454757  -0.557012  0  2.377818  0
O  O31  1  0.40522078  0.69989048  0.15958740  1  0  -0.612067  0  2.136139  0  0  -0.567758  0  2.369545  0  0  -0.582718  0  2.356718  0  0  -0.454747  -0.557033  0  2.377895  0
O  O32  1  0.57291207  0.92038085  0.79106818  1  0  -0.631589  0  2.006578  0  0  -0.577359  0  2.240953  0  0  -0.599842  0  2.228561  0  0  -0.311405  -0.561817  0  2.249146  0
O  O33  1  0.42709536  0.07961910  0.20892506  1  0  -0.631583  0  2.006797  0  0  -0.577366  0  2.241173  0  0  -0.599849  0  2.228778  0  0  -0.311394  -0.561827  0  2.249367  0
O  O34  1  0.26034698  0.84050660  0.57754154  1  0  -0.599986  0  2.026011  0  0  -0.549435  0  2.265196  0  0  -0.575445  0  2.255481  0  0  -0.313088  -0.531323  0  2.271212  0
O  O35  1  0.73964484  0.15949331  0.42246413  1  0  -0.600057  0  2.025859  0  0  -0.549534  0  2.265068  0  0  -0.575544  0  2.255349  0  0  -0.313131  -0.531409  0  2.27106  0
O  O36  1  0.77682523  0.66427192  0.74391007  1  0  -0.852164  0  1.884135  0  0  -0.80337  0  2.06734  0  0  -0.821879  0  2.035487  0  0  -0.621996  -0.790269  0  2.089499  0
O  O37  1  0.22317342  0.33572954  0.25608925  1  0  -0.852084  0  1.884224  0  0  -0.803293  0  2.067425  0  0  -0.821802  0  2.035571  0  0  -0.621963  -0.790189  0  2.089575  0
