# generated using pymatgen
data_Co3H43C72N6O13
_symmetry_space_group_name_H-M   'P 1'
_cell_length_a   15.84034066
_cell_length_b   15.84088536
_cell_length_c   15.82881155
_cell_angle_alpha   102.36728778
_cell_angle_beta   102.36701887
_cell_angle_gamma   102.37242271
_symmetry_Int_Tables_number   1
_chemical_formula_structural   Co3H43C72N6O13
_chemical_formula_sum   'Co6 H86 C144 N12 O26'
_cell_volume   3646.08234184
_cell_formula_units_Z   2
loop_
 _symmetry_equiv_pos_site_id
 _symmetry_equiv_pos_as_xyz
  1  'x, y, z'
loop_
 _atom_site_type_symbol
 _atom_site_label
 _atom_site_symmetry_multiplicity
 _atom_site_fract_x
 _atom_site_fract_y
 _atom_site_fract_z
 _atom_site_occupancy
 _atom_site_pbe_bader_charge
 _atom_site_pbe_bader_spin_density
 _atom_site_pbe_cm5_charge
 _atom_site_pbe_ddec_charge
 _atom_site_pbe_ddec_spin_density
 _atom_site_pbe_ddec_sum_bond_order
 _atom_site_pbe_magmom
Co  Co0  1  0.65064525  0.78548988  0.79354945  1  1.414903  2.770982  0.723589  1.096086  3.052368  2.476256  2.752
Co  Co1  1  0.78458283  0.79548421  0.64819054  1  1.428403  2.784104  0.733846  1.115059  3.065971  2.484172  2.764
Co  Co2  1  0.79167892  0.64919060  0.78723983  1  1.424496  2.780491  0.729594  1.10969  3.060767  2.485285  2.761
Co  Co3  1  0.35078342  0.20842379  0.21274590  1  1.425518  2.780852  0.729623  1.109784  3.061167  2.485403  2.762
Co  Co4  1  0.21441599  0.34944425  0.20641531  1  1.414373  2.770692  0.72378  1.095907  3.051578  2.477717  2.751
Co  Co5  1  0.20448587  0.21555419  0.35177900  1  1.428345  2.783827  0.73323  1.114478  3.065362  2.483891  2.764
H  H6  1  0.68016291  0.67890116  0.67682972  1  0.602585  -0.000473  0.313556  0.396768  -0.000242  0.89387  0.0
H  H7  1  0.32111693  0.31987815  0.32312159  1  0.602903  -0.00048  0.313665  0.396809  -0.00025  0.894055  0.0
H  H8  1  0.67326173  0.04870965  0.85115035  1  0.082329  0.000311  0.102598  0.103307  0.000111  1.044368  0.0
H  H9  1  0.04881000  0.85124042  0.67444185  1  0.093011  0.000182  0.101337  0.101591  6e-06  1.04725  0.0
H  H10  1  0.85234359  0.67420431  0.04921922  1  0.085939  0.000333  0.103216  0.105332  0.000115  1.042373  0.0
H  H11  1  0.32583965  0.14763914  0.95080393  1  0.085306  0.000335  0.103366  0.105714  0.000117  1.042217  0.0
H  H12  1  0.95125067  0.32670644  0.14884543  1  0.082004  0.000312  0.102661  0.103315  0.000111  1.044417  0.0
H  H13  1  0.14877101  0.95120349  0.32553794  1  0.088932  0.000181  0.101357  0.101693  6e-06  1.047212  0.0
H  H14  1  0.74620739  0.29700475  0.78044602  1  0.087005  -7.1e-05  0.104635  0.106477  -0.000102  1.011751  0.0
H  H15  1  0.29701918  0.78020079  0.74663393  1  0.084448  -6.1e-05  0.103366  0.105956  -8.7e-05  1.013971  0.0
H  H16  1  0.78091103  0.74605216  0.29737862  1  0.085377  -7e-05  0.104665  0.10664  -0.000101  1.012052  0.0
H  H17  1  0.25396289  0.21907327  0.70264916  1  0.084818  -7e-05  0.104552  0.106384  -0.000101  1.012002  0.0
H  H18  1  0.70296085  0.25377984  0.21957288  1  0.086273  -7.1e-05  0.104623  0.106468  -0.000102  1.011622  0.0
H  H19  1  0.21979750  0.70299381  0.25336330  1  0.084583  -6.2e-05  0.103354  0.105963  -8.7e-05  1.014191  0.0
H  H20  1  0.84369984  0.23314800  0.69495246  1  0.047447  0.000256  0.096798  0.092078  0.000118  1.002006  0.0
H  H21  1  0.23322797  0.69471037  0.84424740  1  0.046684  0.000264  0.095308  0.089468  0.00012  1.003984  0.0
H  H22  1  0.69513525  0.84334245  0.23358259  1  0.053762  0.00026  0.096828  0.091822  0.00012  1.001657  0.0
H  H23  1  0.15666070  0.30483222  0.76645102  1  0.054501  0.00026  0.096948  0.092234  0.00012  1.001857  0.0
H  H24  1  0.76682236  0.15628394  0.30506262  1  0.041526  0.000256  0.096732  0.092033  0.000118  1.001769  0.0
H  H25  1  0.30530668  0.76677067  0.15576136  1  0.046577  0.000264  0.095263  0.089365  0.00012  1.004004  0.0
H  H26  1  0.85361472  0.07572453  0.68693889  1  0.076959  0.000392  0.101286  0.102293  0.000151  1.013374  0.0
H  H27  1  0.07569781  0.68660669  0.85411263  1  0.098783  0.00026  0.099815  0.100443  7.4e-05  1.017145  0.0
H  H28  1  0.68694471  0.85330060  0.07597664  1  0.080998  0.000385  0.100809  0.100936  0.000158  1.013765  0.0
H  H29  1  0.14670749  0.31300410  0.92404728  1  0.08135  0.000384  0.100916  0.101173  0.000157  1.013606  0.0
H  H30  1  0.92425079  0.14636990  0.31306569  1  0.077127  0.000392  0.101338  0.102376  0.000151  1.013629  0.0
H  H31  1  0.31343247  0.92429168  0.14588579  1  0.099696  0.000261  0.099755  0.100269  7.5e-05  1.017258  0.0
H  H32  1  0.65953137  0.12687658  0.96288237  1  0.060394  -9e-06  0.104605  0.112409  -1.2e-05  1.027114  0.0
H  H33  1  0.12682671  0.96251928  0.66001011  1  0.058335  -1.1e-05  0.103998  0.111387  -1.2e-05  1.028714  0.0
H  H34  1  0.96366155  0.65934857  0.12748189  1  0.070804  -9e-06  0.104784  0.112618  -1.4e-05  1.026146  0.0
H  H35  1  0.34066757  0.03634459  0.87253015  1  0.070613  -8e-06  0.104842  0.112741  -1.4e-05  1.026357  0.0
H  H36  1  0.87309705  0.34043711  0.03711360  1  0.060542  -1e-05  0.104618  0.112504  -1.2e-05  1.027215  0.0
H  H37  1  0.03747576  0.87320438  0.33999603  1  0.058344  -1.1e-05  0.104036  0.111461  -1.2e-05  1.028596  0.0
H  H38  1  0.44764881  0.24173248  0.08439568  1  0.125496  0.001915  0.119537  0.085675  0.000623  1.051869  0.001
H  H39  1  0.24108793  0.08298538  0.44653147  1  0.12001  0.001762  0.121606  0.089616  0.000436  1.050416  0.001
H  H40  1  0.08533575  0.44783053  0.24392034  1  0.120785  0.002045  0.119288  0.08542  0.000626  1.050649  0.001
H  H41  1  0.55215767  0.91466016  0.75607371  1  0.120763  0.002043  0.119252  0.085446  0.000625  1.050545  0.001
H  H42  1  0.75827166  0.55233637  0.91562209  1  0.125518  0.001912  0.119519  0.085691  0.000622  1.052053  0.001
H  H43  1  0.91700807  0.75891101  0.55345689  1  0.120411  0.001765  0.121609  0.089518  0.000436  1.050333  0.001
H  H44  1  0.45807743  0.06609113  0.24074001  1  0.109073  0.001734  0.121359  0.090479  0.000491  1.001068  0.001
H  H45  1  0.06657216  0.24024076  0.45905463  1  0.122167  0.00174  0.120723  0.090172  0.000547  1.003143  0.001
H  H46  1  0.24186056  0.45866252  0.06841915  1  0.105991  0.001921  0.120911  0.090189  0.000624  1.00359  0.001
H  H47  1  0.54133444  0.75812923  0.93156261  1  0.105787  0.001917  0.120845  0.090109  0.000623  1.00361  0.001
H  H48  1  0.93393350  0.54193145  0.75928459  1  0.109356  0.001733  0.121373  0.090492  0.00049  1.000822  0.001
H  H49  1  0.75975670  0.93343480  0.54099247  1  0.121489  0.001742  0.120882  0.090481  0.000548  1.003336  0.001
H  H50  1  0.57056382  0.00549015  0.17192734  1  0.071398  0.001107  0.107413  0.110372  0.000505  0.991517  0.0
H  H51  1  0.00598258  0.17141941  0.57136306  1  0.081474  0.001279  0.107422  0.110538  0.000575  0.990543  0.001
H  H52  1  0.17190142  0.56961391  0.00636961  1  0.059744  0.001254  0.107702  0.110533  0.000547  0.991429  0.001
H  H53  1  0.43040718  0.82810412  0.99364801  1  0.059695  0.001249  0.107631  0.110449  0.000546  0.991438  0.001
H  H54  1  0.99451728  0.42943805  0.82808239  1  0.071087  0.001107  0.107387  0.110382  0.000506  0.991537  0.0
H  H55  1  0.82857023  0.99405162  0.42868991  1  0.081152  0.001283  0.107415  0.110422  0.000576  0.990633  0.001
H  H56  1  0.62115832  0.06727872  0.05413758  1  0.065419  -0.000142  0.111295  0.111006  -0.000199  0.99175  0.0
H  H57  1  0.06787247  0.05360044  0.62180662  1  0.084829  -0.000133  0.111707  0.111352  -0.0002  0.990731  0.0
H  H58  1  0.05371999  0.61972341  0.06762700  1  0.08037  -0.000104  0.112472  0.112868  -0.000161  0.989031  0.0
H  H59  1  0.38030351  0.94629281  0.93240947  1  0.080048  -0.000102  0.112407  0.11301  -0.000159  0.988869  0.0
H  H60  1  0.93271944  0.37881641  0.94585455  1  0.065588  -0.000143  0.111296  0.110917  -0.0002  0.99161  0.0
H  H61  1  0.94639835  0.93217143  0.37823217  1  0.08492  -0.000134  0.111661  0.111483  -0.000201  0.990756  0.0
H  H62  1  0.48117604  0.29440315  0.99486895  1  0.066667  4.3e-05  0.102481  0.105538  1.4e-05  1.057427  0.0
H  H63  1  0.29427323  0.99421045  0.48139735  1  0.067956  2.9e-05  0.103205  0.106919  1.3e-05  1.057292  0.0
H  H64  1  0.99448337  0.48116887  0.29556972  1  0.033696  5e-05  0.102693  0.106332  2.1e-05  1.057145  0.0
H  H65  1  0.51882233  0.00546293  0.70441909  1  0.033576  5e-05  0.102696  0.10618  2.1e-05  1.057375  0.0
H  H66  1  0.70559554  0.51882270  0.00516893  1  0.067532  4.3e-05  0.102603  0.105602  1.4e-05  1.057521  0.0
H  H67  1  0.00579793  0.70575647  0.51860543  1  0.068296  2.9e-05  0.103245  0.107089  1.3e-05  1.057271  0.0
H  H68  1  0.62852757  0.43038052  0.82079614  1  0.1129  0.000188  0.10521  0.108092  1.2e-05  1.036328  0.0
H  H69  1  0.42974582  0.81969559  0.62832560  1  0.104708  0.000171  0.104679  0.106432  6e-06  1.037054  0.0
H  H70  1  0.82039085  0.62971322  0.43053075  1  0.10655  0.000222  0.104986  0.106589  3.8e-05  1.037551  0.0
H  H71  1  0.37029904  0.17957019  0.56943702  1  0.108088  0.000221  0.104776  0.106139  3.7e-05  1.037905  0.0
H  H72  1  0.56959158  0.37142711  0.17921564  1  0.112189  0.00019  0.105382  0.108359  1.3e-05  1.036339  0.0
H  H73  1  0.18029097  0.57029149  0.37166044  1  0.104687  0.00017  0.104599  0.106341  5e-06  1.036994  0.0
H  H74  1  0.44339128  0.59221254  0.83447441  1  0.059907  0.000273  0.102609  0.104849  7.3e-05  1.007968  0.0
H  H75  1  0.59158026  0.83425328  0.44317660  1  0.063239  0.000269  0.101518  0.102991  6.4e-05  1.010586  0.0
H  H76  1  0.83332505  0.44556043  0.59358332  1  0.084424  0.000287  0.101537  0.102252  8e-05  1.011527  0.0
H  H77  1  0.55446098  0.16662339  0.40638260  1  0.084154  0.000287  0.101536  0.102318  8.1e-05  1.011301  0.0
H  H78  1  0.40778919  0.55658949  0.16556926  1  0.059741  0.000273  0.102614  0.104893  7.2e-05  1.007808  0.0
H  H79  1  0.16577942  0.40846312  0.55681880  1  0.063214  0.00027  0.10153  0.102961  6.4e-05  1.010623  0.0
H  H80  1  0.35018750  0.48078625  0.89293679  1  0.044605  0.000217  0.094583  0.088167  8.8e-05  1.005026  0.0
H  H81  1  0.48009997  0.89282175  0.35008132  1  0.036436  0.000215  0.094474  0.08843  8.9e-05  1.005357  0.0
H  H82  1  0.89192020  0.35172112  0.48280234  1  0.058794  0.00022  0.094625  0.088228  9.1e-05  1.005877  0.0
H  H83  1  0.64826970  0.10799046  0.51714472  1  0.058343  0.000219  0.094626  0.088332  9.1e-05  1.005688  0.0
H  H84  1  0.51922539  0.64979009  0.10711954  1  0.045385  0.000217  0.094661  0.088176  8.9e-05  1.005103  0.0
H  H85  1  0.10721147  0.51994275  0.64993019  1  0.036777  0.000215  0.09446  0.088301  8.9e-05  1.005408  0.0
H  H86  1  0.39971395  0.35019992  0.92050470  1  0.075181  -2.2e-05  0.096739  0.091107  -3.4e-05  1.04646  0.0
H  H87  1  0.34964451  0.92026723  0.39994645  1  0.068872  -2.2e-05  0.097092  0.091659  -3.3e-05  1.045664  0.0
H  H88  1  0.91993898  0.40047794  0.35185452  1  0.06482  -1.8e-05  0.096606  0.090797  -3.1e-05  1.045269  0.0
H  H89  1  0.59951694  0.07997695  0.64808891  1  0.063829  -1.8e-05  0.096498  0.090589  -3.1e-05  1.045572  0.0
H  H90  1  0.64980386  0.60024868  0.07953827  1  0.076055  -2.2e-05  0.096881  0.091192  -3.4e-05  1.046241  0.0
H  H91  1  0.07974114  0.65038642  0.60005458  1  0.069168  -2.2e-05  0.09716  0.091827  -3.3e-05  1.045707  0.0
C  C92  1  0.76098676  0.95684582  0.76110633  1  1.55838  -0.002221  0.222654  0.600592  -0.003027  4.150453  -0.001
C  C93  1  0.95624379  0.76017285  0.76111075  1  1.577579  -0.001838  0.218054  0.601887  -0.002443  4.160583  -0.001
C  C94  1  0.76121020  0.76111358  0.95715099  1  1.5656  -0.00269  0.22254  0.599474  -0.003512  4.152734  -0.001
C  C95  1  0.23891940  0.23878881  0.04286608  1  1.563506  -0.002701  0.222617  0.599431  -0.003534  4.153008  -0.001
C  C96  1  0.04311524  0.23900867  0.23885386  1  1.557895  -0.002199  0.222538  0.599929  -0.003004  4.150571  -0.001
C  C97  1  0.23986463  0.04379896  0.23887224  1  1.57506  -0.001799  0.218301  0.601854  -0.002406  4.160282  -0.001
C  C98  1  0.76376420  0.05366821  0.76959032  1  -0.053663  0.012805  -0.018707  -0.027506  0.006809  3.974271  0.01
C  C99  1  0.05367805  0.76944306  0.76456662  1  -0.038634  0.013128  -0.020027  -0.026572  0.00703  3.969335  0.01
C  C100  1  0.77021248  0.76412769  0.05412076  1  -0.040411  0.012843  -0.019654  -0.02966  0.006827  3.977786  0.01
C  C101  1  0.23589818  0.22975098  0.94590069  1  -0.036194  0.012847  -0.01974  -0.030006  0.006831  3.978359  0.01
C  C102  1  0.94629482  0.23620795  0.23040636  1  -0.053537  0.012795  -0.019174  -0.027772  0.006803  3.975262  0.01
C  C103  1  0.23059046  0.94633658  0.23542066  1  -0.03891  0.013134  -0.020024  -0.026565  0.007034  3.967882  0.01
C  C104  1  0.71166500  0.09143720  0.81931116  1  -0.051045  -0.000393  -0.084892  -0.142161  -0.000911  3.94716  0.0
C  C105  1  0.09159978  0.81939477  0.71274762  1  -0.071593  -0.000515  -0.085629  -0.142709  -0.000994  3.951952  0.0
C  C106  1  0.82026266  0.71230211  0.09192405  1  -0.05793  -0.000391  -0.084706  -0.143062  -0.000894  3.946291  0.0
C  C107  1  0.28773427  0.17971807  0.90809436  1  -0.061201  -0.000391  -0.084836  -0.143298  -0.000896  3.946482  0.0
C  C108  1  0.90852981  0.28830622  0.18069046  1  -0.049817  -0.000389  -0.084652  -0.141835  -0.000906  3.947302  0.0
C  C109  1  0.18062088  0.90841195  0.28723162  1  -0.066487  -0.000502  -0.085673  -0.142886  -0.00098  3.951987  0.0
C  C110  1  0.70557092  0.17928599  0.82512059  1  -0.051952  0.001116  -0.007101  0.034793  0.000519  3.98783  0.001
C  C111  1  0.17940730  0.82512404  0.70647282  1  -0.052194  0.000839  -0.007668  0.035645  0.000393  3.990264  0.001
C  C112  1  0.82593348  0.70597509  0.17974079  1  -0.048168  0.001034  -0.007319  0.035106  0.000477  3.988801  0.001
C  C113  1  0.29404934  0.17405662  0.82026818  1  -0.048636  0.001037  -0.007446  0.034676  0.000478  3.988643  0.001
C  C114  1  0.82068224  0.29439821  0.17488833  1  -0.052105  0.001115  -0.007182  0.034711  0.000518  3.988192  0.001
C  C115  1  0.17487360  0.82060401  0.29351854  1  -0.051774  0.000834  -0.007908  0.035477  0.000391  3.990341  0.001
C  C116  1  0.75293204  0.22968589  0.77865526  1  -0.013718  -0.001765  -0.077582  -0.096137  -0.001942  3.942968  -0.001
C  C117  1  0.22980788  0.77856649  0.75365522  1  -0.057483  -0.00157  -0.081093  -0.10416  -0.001724  3.954441  -0.001
C  C118  1  0.77922219  0.75300783  0.23010039  1  -0.019343  -0.001723  -0.077403  -0.096488  -0.001899  3.945311  -0.001
C  C119  1  0.24699812  0.22075569  0.76991664  1  0.045485  -0.001729  -0.076888  -0.095355  -0.001905  3.944373  -0.001
C  C120  1  0.77028055  0.24704945  0.22135525  1  -0.014239  -0.001763  -0.077518  -0.096195  -0.00194  3.943172  -0.001
C  C121  1  0.22143502  0.77020066  0.24634782  1  -0.05765  -0.00155  -0.081131  -0.104311  -0.001703  3.954989  -0.001
C  C122  1  0.80668804  0.19298516  0.73018055  1  -0.047145  0.001075  -0.095557  -0.094479  0.000475  4.043194  0.001
C  C123  1  0.19310200  0.73007335  0.80739472  1  0.007723  0.000935  -0.095719  -0.091735  0.000429  4.046256  0.001
C  C124  1  0.73057034  0.80661760  0.19340948  1  -0.054577  0.001245  -0.096116  -0.09503  0.000566  4.043243  0.001
C  C125  1  0.19338515  0.26939580  0.80661073  1  -0.118911  0.001248  -0.096528  -0.095976  0.000567  4.043673  0.001
C  C126  1  0.80698472  0.19330028  0.26982715  1  -0.041457  0.001075  -0.095388  -0.094232  0.000475  4.042489  0.001
C  C127  1  0.26993953  0.80689162  0.19260941  1  0.006758  0.000928  -0.095793  -0.091622  0.000425  4.046346  0.001
C  C128  1  0.81261113  0.10538076  0.72532647  1  -0.003535  -0.000602  -0.08672  -0.099732  -0.000974  3.977367  0.0
C  C129  1  0.10545942  0.72519103  0.81330400  1  -0.063433  -0.000535  -0.087549  -0.100165  -0.000912  3.979445  0.0
C  C130  1  0.72566074  0.81262175  0.10577346  1  -0.009243  -0.000604  -0.085296  -0.095943  -0.001018  3.975758  0.0
C  C131  1  0.18739128  0.27429732  0.89425738  1  -0.009545  -0.000612  -0.085417  -0.096126  -0.001026  3.975921  0.0
C  C132  1  0.89460352  0.18736981  0.27467898  1  -0.003547  -0.000604  -0.086576  -0.099721  -0.000975  3.977481  0.0
C  C133  1  0.27483460  0.89453093  0.18668805  1  -0.06399  -0.000517  -0.087446  -0.099977  -0.000895  3.97919  0.0
C  C134  1  0.64657451  0.21421680  0.87645589  1  0.529137  -1.1e-05  0.118473  0.214529  -7.8e-05  4.030683  0.0
C  C135  1  0.21415496  0.87616154  0.64720166  1  0.526251  -4.3e-05  0.117738  0.212652  -0.000106  4.03306  0.0
C  C136  1  0.87703094  0.64685013  0.21467049  1  0.513984  -1.3e-05  0.117941  0.213639  -7.6e-05  4.032843  0.0
C  C137  1  0.35317205  0.12295669  0.78532864  1  0.514579  -1.2e-05  0.118118  0.213909  -7.5e-05  4.032821  0.0
C  C138  1  0.78576551  0.35339230  0.12355160  1  0.528926  -1.2e-05  0.118512  0.214513  -7.8e-05  4.030823  0.0
C  C139  1  0.12383092  0.78586831  0.35279626  1  0.525903  -4.3e-05  0.11781  0.212577  -0.000106  4.032916  0.0
C  C140  1  0.62624523  0.17616831  0.94440740  1  0.014062  0.000896  -0.091279  -0.227233  0.000465  3.929483  0.001
C  C141  1  0.17610240  0.94400697  0.62671700  1  0.010396  0.000933  -0.090749  -0.225444  0.000482  3.927968  0.001
C  C142  1  0.94493648  0.62617988  0.17679554  1  0.000496  0.00087  -0.089956  -0.22656  0.00045  3.926456  0.001
C  C143  1  0.37382786  0.05505436  0.82320896  1  0.000351  0.000865  -0.090097  -0.226949  0.000448  3.926935  0.001
C  C144  1  0.82382069  0.37372927  0.05559729  1  0.014207  0.000898  -0.091375  -0.227437  0.000466  3.92951  0.001
C  C145  1  0.05599232  0.82392728  0.37328302  1  0.009665  0.000936  -0.090743  -0.225134  0.000483  3.928002  0.001
C  C146  1  0.56452191  0.20229035  0.98806617  1  -0.100253  0.000276  0.00365  0.116921  7.4e-05  4.017141  0.0
C  C147  1  0.20227490  0.98746068  0.56485720  1  -0.075361  0.000145  0.002846  0.116042  -3e-06  4.023325  0.0
C  C148  1  0.98825582  0.56432650  0.20324267  1  -0.067906  0.000297  0.004273  0.119564  0.000103  4.015645  0.0
C  C149  1  0.43567335  0.01172247  0.79675762  1  -0.068065  0.000298  0.004257  0.1197  0.000105  4.015532  0.0
C  C150  1  0.79770780  0.43546304  0.01194814  1  -0.099629  0.000274  0.003773  0.116846  7.3e-05  4.017534  0.0
C  C151  1  0.01254094  0.79775406  0.43514515  1  -0.075333  0.000144  0.00289  0.115825  -4e-06  4.023466  0.0
C  C152  1  0.53910461  0.16129018  0.05783089  1  0.04451  0.004909  8.8e-05  0.022043  0.002415  3.962497  0.004
C  C153  1  0.16147278  0.05714030  0.53930058  1  0.049053  0.004919  0.000442  0.021517  0.0024  3.963848  0.004
C  C154  1  0.05813182  0.53867346  0.16261895  1  -0.025458  0.004761  0.000258  0.018227  0.002364  3.964683  0.004
C  C155  1  0.46133157  0.94185427  0.83739114  1  -0.027045  0.004741  0.000345  0.018295  0.002356  3.964564  0.004
C  C156  1  0.83870859  0.46088444  0.94218242  1  0.04304  0.004921  0.000128  0.02213  0.00242  3.962628  0.004
C  C157  1  0.94286647  0.83855134  0.46070618  1  0.04856  0.004926  0.000371  0.021668  0.002403  3.963915  0.004
C  C158  1  0.47734056  0.18952946  0.10078790  1  0.460413  -0.005389  0.056802  0.057838  -0.00604  3.894853  -0.003
C  C159  1  0.18952064  0.09966277  0.47711489  1  0.489808  -0.006559  0.058648  0.061803  -0.007559  3.894197  -0.004
C  C160  1  0.10145984  0.47737422  0.19151615  1  0.505255  -0.004847  0.059099  0.065185  -0.005618  3.888692  -0.003
C  C161  1  0.52262357  0.89852094  0.80848504  1  0.506548  -0.004791  0.059194  0.065349  -0.005558  3.889029  -0.003
C  C162  1  0.81047484  0.52265519  0.89923541  1  0.460353  -0.005416  0.056786  0.057957  -0.006068  3.894153  -0.003
C  C163  1  0.90033573  0.81048942  0.52287531  1  0.489768  -0.00659  0.058806  0.061822  -0.007593  3.894085  -0.004
C  C164  1  0.48267196  0.09086831  0.18889617  1  0.448137  -0.00594  0.053842  0.096774  -0.006871  3.938346  -0.004
C  C165  1  0.09113965  0.18810863  0.48323675  1  0.469804  -0.00526  0.050552  0.091083  -0.005967  3.942942  -0.003
C  C166  1  0.18963512  0.48280326  0.09279702  1  0.483863  -0.004132  0.052953  0.094603  -0.004902  3.938834  -0.003
C  C167  1  0.51719906  0.81035620  0.90718725  1  0.484554  -0.004085  0.053019  0.094719  -0.004849  3.938908  -0.002
C  C168  1  0.90915140  0.51732297  0.81112578  1  0.446665  -0.005982  0.053849  0.096836  -0.006914  3.938219  -0.004
C  C169  1  0.81188637  0.90888386  0.51679135  1  0.469461  -0.005277  0.050389  0.090512  -0.005986  3.94322  -0.003
C  C170  1  0.54467808  0.05816190  0.15038689  1  -0.048437  0.005456  -0.089116  -0.143717  0.002666  4.023962  0.004
C  C171  1  0.05851037  0.14976021  0.54531768  1  -0.076042  0.005755  -0.090144  -0.145012  0.002784  4.029504  0.005
C  C172  1  0.15058949  0.54404935  0.05932530  1  -0.011295  0.00534  -0.089144  -0.142849  0.00265  4.024037  0.004
C  C173  1  0.45596308  0.84940926  0.94067708  1  -0.010346  0.005316  -0.089043  -0.142694  0.002639  4.023858  0.004
C  C174  1  0.94184408  0.45531161  0.84962426  1  -0.047424  0.00546  -0.089194  -0.143942  0.002667  4.024492  0.004
C  C175  1  0.85023236  0.94151610  0.45471934  1  -0.075352  0.005769  -0.090052  -0.144441  0.002793  4.028909  0.005
C  C176  1  0.57293257  0.09311937  0.08434550  1  0.015592  -0.009091  -0.065753  -0.080056  -0.009975  3.955678  -0.006
C  C177  1  0.09350475  0.08373682  0.57342178  1  -0.045831  -0.009416  -0.064847  -0.077153  -0.010311  3.953323  -0.006
C  C178  1  0.08433367  0.57202387  0.09402986  1  -0.028081  -0.007436  -0.064515  -0.077479  -0.008164  3.955907  -0.005
C  C179  1  0.42798543  0.91566758  0.90599252  1  -0.027858  -0.007359  -0.064636  -0.077867  -0.00808  3.955852  -0.004
C  C180  1  0.90688048  0.42705525  0.91566150  1  0.014821  -0.009142  -0.065709  -0.07981  -0.010029  3.955593  -0.006
C  C181  1  0.91626548  0.90652704  0.42661210  1  -0.045991  -0.009454  -0.064947  -0.077758  -0.010353  3.953249  -0.006
C  C182  1  0.52777741  0.26881810  0.96227490  1  0.070056  0.000712  -0.085334  -0.216069  0.000341  3.90344  0.0
C  C183  1  0.26869743  0.96165043  0.52803604  1  0.05399  0.000715  -0.085547  -0.21731  0.000349  3.907767  0.0
C  C184  1  0.96215191  0.52784367  0.26981377  1  0.005371  0.00071  -0.0865  -0.21944  0.000347  3.907878  0.0
C  C185  1  0.47214826  0.03781104  0.73017531  1  0.004979  0.000706  -0.086523  -0.219543  0.000345  3.907948  0.0
C  C186  1  0.73118415  0.47221247  0.03775199  1  0.065368  0.000714  -0.085569  -0.216294  0.000342  3.903364  0.0
C  C187  1  0.03835077  0.73133330  0.47196669  1  0.051488  0.000717  -0.085665  -0.217484  0.00035  3.908432  0.0
C  C188  1  0.55400896  0.30687119  0.89658824  1  0.477613  -9.5e-05  0.123967  0.224063  -0.000148  3.997513  0.0
C  C189  1  0.30654751  0.89592097  0.55423958  1  0.491727  -0.000109  0.123242  0.223886  -0.000165  4.000458  0.0
C  C190  1  0.89651688  0.55445470  0.30767921  1  0.583435  -4.6e-05  0.124967  0.22564  -9.9e-05  4.001488  0.0
C  C191  1  0.44554680  0.10343565  0.69229444  1  0.583812  -4.5e-05  0.124595  0.22577  -9.8e-05  4.001773  0.0
C  C192  1  0.69311584  0.44596194  0.10343414  1  0.481359  -9.6e-05  0.124073  0.224486  -0.00015  3.997383  0.0
C  C193  1  0.10407272  0.69347485  0.44575736  1  0.490665  -0.00011  0.123461  0.224125  -0.000166  4.000358  0.0
C  C194  1  0.51953029  0.38186065  0.87477587  1  -0.001196  0.000873  -0.005598  0.037259  0.000421  3.95944  0.001
C  C195  1  0.38132896  0.87404749  0.51953868  1  -0.020037  0.000924  -0.005696  0.035409  0.000449  3.961323  0.001
C  C196  1  0.87437028  0.52046063  0.38282696  1  0.013312  0.000879  -0.006995  0.033955  0.000431  3.963858  0.001
C  C197  1  0.47953280  0.12556451  0.61713936  1  0.019884  0.000875  -0.007098  0.033333  0.000429  3.964889  0.001
C  C198  1  0.61813230  0.48043418  0.12525399  1  -0.000701  0.000873  -0.005774  0.036591  0.000421  3.960358  0.001
C  C199  1  0.12595473  0.61869761  0.48046288  1  -0.020455  0.000926  -0.005889  0.035311  0.00045  3.961449  0.001
C  C200  1  0.56838701  0.44228216  0.83810608  1  -0.047788  0.000269  -0.075268  -0.116141  -0.000224  3.902242  0.0
C  C201  1  0.44169355  0.83721478  0.56824058  1  -0.033156  0.000197  -0.074616  -0.113376  -0.000265  3.903983  0.0
C  C202  1  0.83753355  0.56965311  0.44285375  1  -0.08272  0.000285  -0.073959  -0.112277  -0.000242  3.908446  0.0
C  C203  1  0.43036187  0.16241931  0.55710613  1  -0.090854  0.000297  -0.07366  -0.111453  -0.000233  3.908189  0.0
C  C204  1  0.55770577  0.43157095  0.16191261  1  -0.048164  0.000268  -0.075191  -0.116029  -0.000225  3.901994  0.0
C  C205  1  0.16278031  0.55834141  0.43174867  1  -0.032648  0.000194  -0.074363  -0.112854  -0.000268  3.903604  0.0
C  C206  1  0.54205131  0.51857391  0.82541838  1  -0.038179  0.012896  -0.019342  -0.034132  0.006869  3.965953  0.01
C  C207  1  0.51796479  0.82482124  0.54180002  1  -0.049035  0.013061  -0.020682  -0.036741  0.006958  3.968942  0.01
C  C208  1  0.82449235  0.54370668  0.51924985  1  0.003753  0.013429  -0.019869  -0.036984  0.007165  3.967402  0.01
C  C209  1  0.45630329  0.17546441  0.48070593  1  0.004395  0.013428  -0.020009  -0.036936  0.007164  3.967245  0.01
C  C210  1  0.48141884  0.45792906  0.17459833  1  -0.038491  0.012906  -0.019531  -0.034385  0.006875  3.965838  0.01
C  C211  1  0.17518309  0.48207541  0.45818162  1  -0.038941  0.013017  -0.020764  -0.037264  0.006951  3.969852  0.01
C  C212  1  0.46330059  0.53283450  0.84546752  1  0.01443  0.000863  -0.085203  -0.094482  9.1e-05  3.977026  0.0
C  C213  1  0.53213132  0.84506353  0.46302616  1  -0.014167  0.000787  -0.084646  -0.091205  7.3e-05  3.977728  0.0
C  C214  1  0.84444828  0.46508778  0.53403907  1  -0.055306  0.000744  -0.084777  -0.090721  -1e-05  3.976088  0.0
C  C215  1  0.53492723  0.15549409  0.46592621  1  -0.055293  0.000751  -0.084663  -0.090931  -3e-06  3.975446  0.0
C  C216  1  0.46716420  0.53668083  0.15456761  1  0.013106  0.00086  -0.085231  -0.094402  8.7e-05  3.977146  0.0
C  C217  1  0.15495862  0.46791052  0.53696524  1  -0.013337  0.000788  -0.084647  -0.090996  7.5e-05  3.97763  0.0
C  C218  1  0.41231750  0.47114588  0.87846278  1  -0.059648  0.000837  -0.095911  -0.087345  0.000383  4.049701  0.001
C  C219  1  0.47046869  0.87813919  0.41217365  1  -0.028613  0.000825  -0.096971  -0.090095  0.000382  4.053772  0.001
C  C220  1  0.87754593  0.41375430  0.47273480  1  -0.029007  0.000782  -0.097466  -0.090695  0.000363  4.053749  0.001
C  C221  1  0.58624557  0.12237525  0.52721740  1  -0.030708  0.000779  -0.097571  -0.090655  0.000362  4.053134  0.001
C  C222  1  0.52885300  0.58765969  0.12158346  1  -0.057715  0.000839  -0.095864  -0.087504  0.000385  4.049871  0.001
C  C223  1  0.12188383  0.52956966  0.58782534  1  -0.029339  0.000823  -0.096907  -0.089899  0.000381  4.053812  0.001
C  C224  1  0.44056485  0.39701103  0.89413117  1  -0.050444  -2.5e-05  -0.08019  -0.097949  -0.000119  3.943887  0.0
C  C225  1  0.39640713  0.89372885  0.44062912  1  -0.02252  -0.000167  -0.079734  -0.095544  -0.000229  3.942807  0.0
C  C226  1  0.89349728  0.44157067  0.39842146  1  -0.058877  -0.000278  -0.080522  -0.096422  -0.00035  3.946499  0.0
C  C227  1  0.55841253  0.10641816  0.60152362  1  -0.057147  -0.000266  -0.080291  -0.096169  -0.000339  3.947545  0.0
C  C228  1  0.60299009  0.55940217  0.10591220  1  -0.051456  -2.6e-05  -0.080328  -0.097571  -0.000121  3.943745  0.0
C  C229  1  0.10628222  0.60362459  0.55937284  1  -0.023013  -0.000167  -0.079792  -0.095966  -0.000229  3.943313  0.0
C  C230  1  0.60104090  0.58739332  0.79574865  1  1.559712  -0.000593  0.220183  0.600586  -0.001141  4.145781  -0.001
C  C231  1  0.58738347  0.79566077  0.60058334  1  1.562885  0.000126  0.218022  0.597495  -0.000457  4.151591  0.0
C  C232  1  0.79433546  0.60271224  0.58782173  1  1.543456  0.000558  0.220107  0.599499  -5.3e-05  4.139387  0.001
C  C233  1  0.39731162  0.20566816  0.41215097  1  1.543654  0.000571  0.220132  0.599423  -3.8e-05  4.139245  0.001
C  C234  1  0.41256799  0.39895920  0.20424169  1  1.559584  -0.000609  0.220002  0.600335  -0.001154  4.146171  -0.001
C  C235  1  0.20433641  0.41268833  0.39938195  1  1.55327  0.000155  0.218084  0.597517  -0.000454  4.15045  0.0
N  N236  1  0.44953330  0.15562615  0.16370144  1  -1.201358  0.062595  -0.314065  -0.218258  0.03406  3.536549  0.053
N  N237  1  0.15560332  0.16259087  0.44961218  1  -1.210542  0.063942  -0.316612  -0.222491  0.034846  3.546742  0.053
N  N238  1  0.16467670  0.44995722  0.15792148  1  -1.207459  0.067348  -0.313032  -0.216861  0.036931  3.536097  0.057
N  N239  1  0.55004342  0.83530344  0.84206196  1  -1.208863  0.067242  -0.312887  -0.216975  0.036864  3.535496  0.057
N  N240  1  0.84439353  0.55047442  0.83631993  1  -1.200002  0.062583  -0.314071  -0.218431  0.034055  3.536023  0.053
N  N241  1  0.83742593  0.84441870  0.55038739  1  -1.209785  0.064012  -0.316896  -0.222312  0.034881  3.547093  0.053
N  N242  1  0.61273056  0.27976927  0.85401035  1  -1.174996  0.000595  -0.306388  -0.332807  0.000304  3.253636  0.0
N  N243  1  0.27953767  0.85355519  0.61314151  1  -1.177479  0.000574  -0.306526  -0.332525  0.00029  3.254702  0.0
N  N244  1  0.85428338  0.61320627  0.28024370  1  -1.172145  0.000518  -0.306963  -0.332776  0.000263  3.257052  0.0
N  N245  1  0.38680688  0.14568033  0.71974285  1  -1.171781  0.000515  -0.306843  -0.33279  0.000261  3.257077  0.0
N  N246  1  0.72022339  0.38724043  0.14599882  1  -1.174166  0.000596  -0.306422  -0.33285  0.000304  3.254107  0.0
N  N247  1  0.14643818  0.72047623  0.38685289  1  -1.174017  0.000576  -0.306446  -0.332519  0.000291  3.254159  0.0
O  O248  1  0.72713998  0.72571224  0.72426934  1  -1.138358  0.258588  -0.553348  -0.914628  0.142333  2.47187  0.233
O  O249  1  0.27428425  0.27294575  0.27566654  1  -1.138117  0.258657  -0.553442  -0.914749  0.142368  2.472488  0.233
O  O250  1  0.70721603  0.91434298  0.79661801  1  -1.147541  0.093202  -0.300814  -0.55657  0.048751  2.398962  0.081
O  O251  1  0.91401545  0.79403546  0.70524419  1  -1.160816  0.077979  -0.307803  -0.571722  0.040542  2.383629  0.069
O  O252  1  0.79672352  0.70692282  0.91470526  1  -1.148834  0.09896  -0.302625  -0.557001  0.051894  2.40369  0.085
O  O253  1  0.29312549  0.20328436  0.08530052  1  -1.14745  0.099223  -0.302676  -0.556738  0.052036  2.404242  0.085
O  O254  1  0.08562350  0.29280989  0.20337056  1  -1.147517  0.093283  -0.300686  -0.55612  0.048797  2.399492  0.081
O  O255  1  0.20599119  0.08601761  0.29471855  1  -1.159721  0.077666  -0.307861  -0.571627  0.040397  2.383109  0.068
O  O256  1  0.81028671  0.92359619  0.71705603  1  -1.134149  0.107545  -0.305898  -0.551107  0.055973  2.352099  0.091
O  O257  1  0.92381740  0.71682294  0.81102719  1  -1.144824  0.084306  -0.309215  -0.562068  0.04365  2.346009  0.074
O  O258  1  0.71719860  0.80998002  0.92364441  1  -1.136797  0.099081  -0.304283  -0.549804  0.051716  2.357975  0.085
O  O259  1  0.19006134  0.28280284  0.07638555  1  -1.136449  0.099049  -0.304208  -0.54962  0.051699  2.358529  0.085
O  O260  1  0.07640672  0.18971406  0.28287684  1  -1.133673  0.10764  -0.305694  -0.550573  0.05602  2.351822  0.091
O  O261  1  0.28321650  0.07618108  0.18893242  1  -1.14323  0.084221  -0.309355  -0.562137  0.043608  2.34506  0.074
O  O262  1  0.66716097  0.56646688  0.77107025  1  -1.145625  0.093224  -0.311455  -0.562405  0.048057  2.338123  0.08
O  O263  1  0.56787700  0.77101563  0.66717917  1  -1.152361  0.087776  -0.310689  -0.559891  0.045579  2.329765  0.076
O  O264  1  0.76882781  0.66826679  0.56659788  1  -1.141985  0.094485  -0.309074  -0.555029  0.049263  2.315393  0.081
O  O265  1  0.33178744  0.23122616  0.43339210  1  -1.14231  0.094228  -0.309135  -0.555348  0.049133  2.314454  0.08
O  O266  1  0.43353258  0.33286852  0.22894751  1  -1.145821  0.09341  -0.311592  -0.562412  0.04815  2.338901  0.08
O  O267  1  0.22894227  0.43217025  0.33275768  1  -1.15166  0.087804  -0.310665  -0.559766  0.045588  2.32958  0.076
O  O268  1  0.58220373  0.66242463  0.80043521  1  -1.14437  0.099792  -0.306567  -0.563086  0.051809  2.343409  0.087
O  O269  1  0.66184970  0.80092382  0.58022219  1  -1.142455  0.098172  -0.308347  -0.566477  0.050971  2.351398  0.085
O  O270  1  0.79934977  0.58356544  0.66286480  1  -1.142248  0.101638  -0.307615  -0.56114  0.053257  2.330689  0.087
O  O271  1  0.41647131  0.20064040  0.33711586  1  -1.142006  0.101522  -0.307504  -0.560951  0.053195  2.329901  0.087
O  O272  1  0.33753041  0.41777030  0.19952748  1  -1.143969  0.099725  -0.306197  -0.56273  0.05178  2.343663  0.087
O  O273  1  0.19910724  0.33821684  0.41973918  1  -1.144198  0.098353  -0.308286  -0.566171  0.051044  2.350786  0.085
