# generated using pymatgen
data_MnH13C15NO5
_symmetry_space_group_name_H-M   'P 1'
_cell_length_a   7.41769861
_cell_length_b   10.27370679
_cell_length_c   10.71802726
_cell_angle_alpha   113.83272761
_cell_angle_beta   103.25184280
_cell_angle_gamma   97.88532608
_symmetry_Int_Tables_number   1
_chemical_formula_structural   MnH13C15NO5
_chemical_formula_sum   'Mn2 H26 C30 N2 O10'
_cell_volume   702.60497974
_cell_formula_units_Z   2
loop_
 _symmetry_equiv_pos_site_id
 _symmetry_equiv_pos_as_xyz
  1  'x, y, z'
loop_
 _atom_site_type_symbol
 _atom_site_label
 _atom_site_symmetry_multiplicity
 _atom_site_fract_x
 _atom_site_fract_y
 _atom_site_fract_z
 _atom_site_occupancy
 _atom_site_pbe_cm5_charge
 _atom_site_pbe_ddec_charge
 _atom_site_pbe_ddec_spin_density
 _atom_site_pbe_ddec_sum_bond_order
 _atom_site_pbe_magmom
Mn  Mn0  1  0.50000698  0.49999792  0.49999939  1  0.605323  1.052944  4.63067  2.325928  4.438
Mn  Mn1  1  0.00000410  0.50000486  0.50000044  1  0.621307  1.066994  4.572513  2.443057  4.389
H  H2  1  0.64240578  0.72374152  0.36749571  1  0.138492  0.141341  -9.3e-05  0.985066  0.0
H  H3  1  0.35759073  0.27625636  0.63250747  1  0.138462  0.141352  -9.3e-05  0.985065  0.0
H  H4  1  0.90492912  0.18178040  0.67474975  1  0.105951  0.121253  0.000734  1.035156  0.0
H  H5  1  0.09507416  0.81822086  0.32524842  1  0.105943  0.121257  0.000734  1.035098  0.0
H  H6  1  0.98949238  0.81713227  0.76906841  1  0.135351  0.132186  -0.000226  1.005481  0.0
H  H7  1  0.01051287  0.18287117  0.23093746  1  0.135362  0.132197  -0.000226  1.005534  0.0
H  H8  1  0.70618044  0.13004366  0.44302589  1  0.098757  0.151694  -0.000287  1.008065  0.0
H  H9  1  0.29381621  0.86994987  0.55696630  1  0.098718  0.151646  -0.000287  1.008149  0.0
H  H10  1  0.50752779  0.97536330  0.37433661  1  0.092007  0.132001  -0.000107  1.027128  0.0
H  H11  1  0.49246880  0.02463021  0.62565836  1  0.092007  0.131955  -0.000107  1.027244  0.0
H  H12  1  0.69536961  0.95971444  0.29888708  1  0.090149  0.127709  -0.000201  1.036455  0.0
H  H13  1  0.30463242  0.04027470  0.70111083  1  0.090156  0.127713  -0.000201  1.036425  0.0
H  H14  1  0.08924617  0.23939965  0.91355822  1  0.092086  0.135716  0.00011  1.031275  0.0
H  H15  1  0.91075398  0.76060487  0.08644256  1  0.092088  0.135756  0.00011  1.031234  0.0
H  H16  1  0.23524392  0.11632760  0.91596836  1  0.092766  0.134801  -0.000386  1.029104  0.0
H  H17  1  0.76475619  0.88367691  0.08403427  1  0.092769  0.134818  -0.000386  1.029109  0.0
H  H18  1  0.03397366  0.10722828  0.97553460  1  0.09392  0.132878  -0.000233  1.01074  0.0
H  H19  1  0.96602716  0.89277405  0.02446543  1  0.093937  0.13292  -0.000233  1.010746  0.0
H  H20  1  0.81508403  0.48787775  0.16321217  1  0.107111  0.116072  -0.000539  1.016555  0.0
H  H21  1  0.18491148  0.51212122  0.83678941  1  0.10713  0.116092  -0.000539  1.016571  0.0
H  H22  1  0.35631335  0.56644225  0.09048012  1  0.102376  0.106567  0.000131  0.999277  0.0
H  H23  1  0.64368497  0.43355676  0.90952007  1  0.102396  0.106609  0.000131  0.999188  0.0
H  H24  1  0.65302663  0.96832080  0.81022257  1  0.099114  0.094635  0.000121  1.058208  0.0
H  H25  1  0.34697249  0.03168043  0.18977489  1  0.099094  0.094589  0.000121  1.058207  0.0
H  H26  1  0.23610716  0.79570854  0.96029382  1  0.100785  0.101049  -1e-05  1.038428  0.0
H  H27  1  0.76389611  0.20429272  0.03970434  1  0.100787  0.101075  -1e-05  1.038369  0.0
C  C28  1  0.73432487  0.81311688  0.46979759  1  0.047257  -0.101123  0.027308  3.77208  0.021
C  C29  1  0.26567060  0.18688209  0.53020585  1  0.047319  -0.1011  0.027307  3.772079  0.021
C  C30  1  0.76249699  0.96211828  0.50659549  1  0.00253  0.164729  -0.007358  4.022584  -0.007
C  C31  1  0.23749849  0.03788068  0.49340794  1  0.002458  0.16463  -0.007357  4.022621  -0.007
C  C32  1  0.87951095  0.06451907  0.64520903  1  -0.082286  -0.203428  0.032634  3.889685  0.024
C  C33  1  0.12049263  0.93548328  0.35479240  1  -0.082255  -0.203388  0.032631  3.889571  0.024
C  C34  1  0.96386547  0.01774106  0.74516441  1  0.001808  0.157365  -0.007054  4.017675  -0.007
C  C35  1  0.03613361  0.98226016  0.25483490  1  0.001803  0.157359  -0.007053  4.017609  -0.007
C  C36  1  0.93001468  0.86714175  0.70263397  1  0.045939  -0.104874  0.027866  3.786095  0.021
C  C37  1  0.06998783  0.13286168  0.29736957  1  0.045891  -0.104936  0.027862  3.786351  0.021
C  C38  1  0.66376772  0.00994070  0.40039227  1  -0.24161  -0.423353  0.000584  3.928228  0.001
C  C39  1  0.33623124  0.99005172  0.59960547  1  -0.241553  -0.423239  0.000584  3.928198  0.001
C  C40  1  0.08685499  0.12611714  0.89498798  1  -0.236719  -0.410454  0.000341  3.913988  0.001
C  C41  1  0.91314480  0.87388628  0.10501230  1  -0.236727  -0.41055  0.000341  3.914128  0.001
C  C42  1  0.19585522  0.56315192  0.29488765  1  0.218714  0.584362  0.02778  4.182117  0.024
C  C43  1  0.80414238  0.43684487  0.70511250  1  0.218685  0.5843  0.027773  4.182151  0.024
C  C44  1  0.09580146  0.53141620  0.14263290  1  -0.018385  -0.039793  0.006719  3.968174  0.005
C  C45  1  0.90419476  0.46858059  0.85736609  1  -0.018353  -0.039795  0.006721  3.968064  0.005
C  C46  1  0.89446073  0.49372241  0.09090114  1  -0.087131  -0.109014  0.00272  3.982852  0.002
C  C47  1  0.10553413  0.50627438  0.90909668  1  -0.087233  -0.109035  0.002719  3.982746  0.002
C  C48  1  0.20013373  0.53747810  0.05020720  1  -0.087312  -0.102869  0.004786  3.990618  0.003
C  C49  1  0.79986353  0.46251760  0.94979154  1  -0.087362  -0.102893  0.004784  3.990499  0.003
C  C50  1  0.36791611  0.73065241  0.73224829  1  0.226664  0.596097  0.01873  4.175237  0.017
C  C51  1  0.63208610  0.26934993  0.26775198  1  0.226662  0.596173  0.018726  4.175233  0.017
C  C52  1  0.43763699  0.86905920  0.87143350  1  -0.014212  -0.0314  0.003653  3.964081  0.003
C  C53  1  0.56236316  0.13094533  0.12856727  1  -0.014182  -0.031384  0.003653  3.963988  0.003
C  C54  1  0.58713184  0.98363598  0.89417837  1  -0.086748  -0.102081  0.00178  3.995321  0.001
C  C55  1  0.41286693  0.01636415  0.10581767  1  -0.086772  -0.102037  0.00178  3.995272  0.001
C  C56  1  0.35102779  0.88609019  0.97846124  1  -0.08898  -0.112717  0.001811  3.985908  0.001
C  C57  1  0.64897029  0.11391213  0.02153647  1  -0.089015  -0.112768  0.001811  3.985745  0.001
N  N58  1  0.81800619  0.76929323  0.56739686  1  -0.10476  0.353789  0.011456  3.919941  0.013
N  N59  1  0.18199454  0.23070907  0.43260781  1  -0.104743  0.353834  0.011454  3.920126  0.013
O  O60  1  0.78416285  0.62535012  0.52980957  1  -0.215657  -0.505944  0.063483  2.255662  0.026
O  O61  1  0.21584064  0.37465220  0.47019650  1  -0.215672  -0.505966  0.063478  2.255658  0.026
O  O62  1  0.10279661  0.60385386  0.38472078  1  -0.32003  -0.587494  0.043095  2.330381  0.025
O  O63  1  0.89720104  0.39614734  0.61528016  1  -0.319993  -0.587481  0.04309  2.330397  0.025
O  O64  1  0.36586754  0.54810239  0.32414660  1  -0.308592  -0.571681  0.050169  2.283174  0.037
O  O65  1  0.63413429  0.45189884  0.67585411  1  -0.308591  -0.57165  0.050169  2.283196  0.037
O  O66  1  0.19659333  0.65624042  0.69814440  1  -0.308545  -0.57815  0.043841  2.374374  0.027
O  O67  1  0.80341330  0.34375425  0.30185457  1  -0.308561  -0.578253  0.043843  2.374454  0.027
O  O68  1  0.48213967  0.69942608  0.65920556  1  -0.304059  -0.559797  0.045063  2.343389  0.029
O  O69  1  0.51786056  0.30057847  0.34079057  1  -0.304034  -0.559813  0.045067  2.343465  0.029
