# generated using pymatgen
data_ZnH14(C2O)7
_symmetry_space_group_name_H-M   'P 1'
_cell_length_a   8.38200677
_cell_length_b   10.76404488
_cell_length_c   16.18852620
_cell_angle_alpha   90.00025116
_cell_angle_beta   92.53188823
_cell_angle_gamma   90.00008704
_symmetry_Int_Tables_number   1
_chemical_formula_structural   ZnH14(C2O)7
_chemical_formula_sum   'Zn4 H56 C56 O28'
_cell_volume   1459.17254685
_cell_formula_units_Z   4
loop_
 _symmetry_equiv_pos_site_id
 _symmetry_equiv_pos_as_xyz
  1  'x, y, z'
loop_
 _atom_site_type_symbol
 _atom_site_label
 _atom_site_symmetry_multiplicity
 _atom_site_fract_x
 _atom_site_fract_y
 _atom_site_fract_z
 _atom_site_occupancy
 _atom_site_hle17_bader_spin_density
 _atom_site_hle17_ddec_charge
 _atom_site_hle17_ddec_spin_density
 _atom_site_hle17_ddec_sum_bond_order
 _atom_site_hle17_magmom
 _atom_site_hse06_10hf_bader_spin_density
 _atom_site_hse06_10hf_ddec_charge
 _atom_site_hse06_10hf_ddec_spin_density
 _atom_site_hse06_10hf_ddec_sum_bond_order
 _atom_site_hse06_10hf_magmom
 _atom_site_hse06_bader_spin_density
 _atom_site_hse06_ddec_charge
 _atom_site_hse06_ddec_spin_density
 _atom_site_hse06_ddec_sum_bond_order
 _atom_site_hse06_magmom
 _atom_site_pbe_bader_spin_density
 _atom_site_pbe_cm5_charge
 _atom_site_pbe_ddec_charge
 _atom_site_pbe_ddec_spin_density
 _atom_site_pbe_ddec_sum_bond_order
 _atom_site_pbe_magmom
Zn  Zn0  1  0.20081079  0.71037301  0.72807971  1  0  1.189244  0  1.711414  0  0  1.009862  0  2.18531  0  0  1.06149  0  2.119768  0  0  0.694597  0.973277  0  2.230752  0
Zn  Zn1  1  0.29919422  0.21038016  0.27191915  1  0  1.189187  0  1.711406  0  0  1.009801  0  2.185343  0  0  1.061424  0  2.119796  0  0  0.694539  0.973208  0  2.230782  0
Zn  Zn2  1  0.79919369  0.28962297  0.27191879  1  0  1.189213  0  1.711411  0  0  1.009856  0  2.185315  0  0  1.061482  0  2.119769  0  0  0.694565  0.973275  0  2.230751  0
Zn  Zn3  1  0.70080909  0.78962140  0.72808180  1  0  1.189256  0  1.711422  0  0  1.009895  0  2.185384  0  0  1.061524  0  2.119829  0  0  0.694587  0.973312  0  2.230825  0
H  H4  1  0.03523781  0.87285764  0.80793950  1  0  0.434277  0  0.870304  0  0  0.399079  0  0.939877  0  0  0.410503  0  0.923638  0  0  0.290961  0.391012  0  0.95132  0
H  H5  1  0.46476036  0.37285610  0.19205786  1  0  0.434318  0  0.870242  0  0  0.399079  0  0.939878  0  0  0.410504  0  0.923638  0  0  0.290994  0.391011  0  0.951324  0
H  H6  1  0.96475833  0.12714207  0.19206070  1  0  0.4343  0  0.870289  0  0  0.399084  0  0.939893  0  0  0.410507  0  0.923656  0  0  0.290968  0.391015  0  0.951338  0
H  H7  1  0.53524647  0.62713989  0.80793823  1  0  0.434383  0  0.870177  0  0  0.399147  0  0.939809  0  0  0.410571  0  0.92357  0  0  0.291007  0.391079  0  0.951253  0
H  H8  1  0.21560290  0.92886829  0.80837251  1  0  0.411862  0  0.868507  0  0  0.388868  0  0.931347  0  0  0.396623  0  0.920593  0  0  0.299148  0.383388  0  0.938942  0
H  H9  1  0.28439655  0.42886839  0.19162195  1  0  0.411896  0  0.868454  0  0  0.388902  0  0.931302  0  0  0.396654  0  0.92055  0  0  0.299178  0.383424  0  0.938897  0
H  H10  1  0.78439205  0.07113235  0.19162767  1  0  0.411873  0  0.868456  0  0  0.388891  0  0.931306  0  0  0.396642  0  0.920555  0  0  0.299166  0.383417  0  0.938898  0
H  H11  1  0.71560908  0.57112853  0.80837411  1  0  0.411869  0  0.868594  0  0  0.388878  0  0.931355  0  0  0.396629  0  0.920603  0  0  0.299158  0.383397  0  0.93895  0
H  H12  1  0.43224191  0.72468459  0.98324233  1  0  0.128388  0  0.932372  0  0  0.141557  0  0.986132  0  0  0.145306  0  0.983803  0  0  0.115238  0.138855  0  0.987948  0
H  H13  1  0.06775480  0.22468701  0.01675827  1  0  0.128336  0  0.932336  0  0  0.141535  0  0.986065  0  0  0.145285  0  0.983736  0  0  0.115221  0.138831  0  0.987882  0
H  H14  1  0.56777092  0.27531511  0.01675572  1  0  0.128368  0  0.932296  0  0  0.141534  0  0.986075  0  0  0.145284  0  0.983748  0  0  0.115226  0.13883  0  0.987889  0
H  H15  1  0.93222827  0.77531641  0.98324662  1  0  0.128349  0  0.932323  0  0  0.141515  0  0.986101  0  0  0.145265  0  0.983773  0  0  0.115217  0.138814  0  0.987915  0
H  H16  1  0.34365284  0.16615090  0.95013359  1  0  0.072201  0  0.92804  0  0  0.083969  0  0.992629  0  0  0.084036  0  0.992341  0  0  0.105706  0.083855  0  0.992917  0
H  H17  1  0.15634731  0.66615318  0.04986690  1  0  0.072281  0  0.927986  0  0  0.084043  0  0.992601  0  0  0.084112  0  0.992314  0  0  0.105717  0.083925  0  0.992889  0
H  H18  1  0.65634693  0.83385345  0.04987038  1  0  0.072246  0  0.928049  0  0  0.084063  0  0.992618  0  0  0.084135  0  0.992326  0  0  0.105727  0.083946  0  0.992907  0
H  H19  1  0.84365119  0.33385210  0.95013149  1  0  0.072211  0  0.928052  0  0  0.084062  0  0.992626  0  0  0.084129  0  0.992339  0  0  0.105721  0.083947  0  0.992913  0
H  H20  1  0.51378312  0.18278024  0.88826781  1  0  0.069483  0  0.924242  0  0  0.080103  0  0.990825  0  0  0.081165  0  0.98934  0  0  0.104998  0.079298  0  0.99192  0
H  H21  1  0.98621946  0.68278703  0.11173494  1  0  0.069518  0  0.924289  0  0  0.080185  0  0.990814  0  0  0.081248  0  0.989332  0  0  0.105038  0.079374  0  0.991908  0
H  H22  1  0.48621784  0.81721297  0.11173557  1  0  0.069462  0  0.924326  0  0  0.080166  0  0.990824  0  0  0.081229  0  0.989343  0  0  0.105028  0.079355  0  0.991916  0
H  H23  1  0.01377546  0.31720710  0.88826338  1  0  0.069487  0  0.924293  0  0  0.080227  0  0.990798  0  0  0.081288  0  0.989314  0  0  0.105049  0.079418  0  0.991889  0
H  H24  1  0.16615057  0.17731437  0.81336914  1  0  0.082079  0  0.94971  0  0  0.095887  0  1.00597  0  0  0.097716  0  1.006512  0  0  0.101638  0.094532  0  1.005721  0
H  H25  1  0.33385202  0.67732240  0.18663267  1  0  0.082117  0  0.949832  0  0  0.095987  0  1.006003  0  0  0.097819  0  1.006541  0  0  0.101696  0.094632  0  1.00575  0
H  H26  1  0.83384922  0.82268162  0.18663607  1  0  0.082058  0  0.949807  0  0  0.095938  0  1.005963  0  0  0.097767  0  1.006512  0  0  0.101676  0.094577  0  1.005714  0
H  H27  1  0.66614291  0.32267638  0.81336627  1  0  0.082044  0  0.950015  0  0  0.09598  0  1.006095  0  0  0.09781  0  1.006637  0  0  0.101728  0.094627  0  1.005849  0
H  H28  1  0.48230953  0.05830150  0.76168652  1  0  0.141767  0  0.969093  0  0  0.150599  0  1.030994  0  0  0.153829  0  1.030105  0  0  0.098358  0.148267  0  1.031719  0
H  H29  1  0.01769630  0.55829742  0.23830945  1  0  0.141836  0  0.96904  0  0  0.150634  0  1.030972  0  0  0.153867  0  1.030081  0  0  0.098367  0.148295  0  1.031689  0
H  H30  1  0.51769023  0.94170006  0.23831684  1  0  0.141745  0  0.969064  0  0  0.15058  0  1.030964  0  0  0.153808  0  1.030079  0  0  0.098373  0.148245  0  1.031689  0
H  H31  1  0.98229865  0.44169949  0.76169073  1  0  0.141871  0  0.969037  0  0  0.150658  0  1.030982  0  0  0.153884  0  1.030107  0  0  0.098384  0.14832  0  1.031699  0
H  H32  1  0.28401609  0.05524380  0.70467966  1  0  0.109666  0  0.995486  0  0  0.120868  0  1.060811  0  0  0.122466  0  1.062056  0  0  0.089201  0.119698  0  1.060069  0
H  H33  1  0.21598975  0.55524219  0.29531754  1  0  0.10973  0  0.995396  0  0  0.120954  0  1.060692  0  0  0.122552  0  1.061938  0  0  0.089212  0.119779  0  1.059955  0
H  H34  1  0.71598488  0.94475405  0.29532434  1  0  0.109672  0  0.995511  0  0  0.120896  0  1.060806  0  0  0.122495  0  1.062051  0  0  0.089202  0.119729  0  1.060058  0
H  H35  1  0.78400756  0.44475752  0.70468145  1  0  0.109765  0  0.995447  0  0  0.121006  0  1.060706  0  0  0.122603  0  1.061951  0  0  0.089235  0.11983  0  1.05997  0
H  H36  1  0.24429512  0.37329737  0.51303601  1  0  0.119688  0  0.98818  0  0  0.129114  0  1.05012  0  0  0.132473  0  1.048643  0  0  0.109649  0.126731  0  1.051223  0
H  H37  1  0.25570548  0.87329893  0.48696449  1  0  0.119675  0  0.988248  0  0  0.129107  0  1.050172  0  0  0.132467  0  1.048692  0  0  0.109664  0.126725  0  1.051274  0
H  H38  1  0.75570460  0.62670605  0.48696426  1  0  0.119705  0  0.988121  0  0  0.12914  0  1.050056  0  0  0.132499  0  1.048577  0  0  0.109687  0.126755  0  1.051159  0
H  H39  1  0.74429545  0.12670542  0.51303704  1  0  0.119729  0  0.988182  0  0  0.129158  0  1.050116  0  0  0.132518  0  1.048636  0  0  0.109701  0.126772  0  1.051221  0
H  H40  1  0.26145384  0.32355443  0.64445349  1  0  0.061164  0  0.936023  0  0  0.075297  0  1.000168  0  0  0.075169  0  1.000583  0  0  0.103681  0.075365  0  0.999942  0
H  H41  1  0.23855020  0.82355975  0.35554384  1  0  0.061161  0  0.936081  0  0  0.075293  0  1.000214  0  0  0.075161  0  1.00063  0  0  0.103694  0.075363  0  0.999988  0
H  H42  1  0.73854585  0.67644527  0.35554431  1  0  0.061158  0  0.93606  0  0  0.075285  0  1.000206  0  0  0.075158  0  1.00062  0  0  0.103662  0.075352  0  0.99998  0
H  H43  1  0.76145667  0.17644739  0.64445534  1  0  0.061169  0  0.936074  0  0  0.075307  0  1.000209  0  0  0.075177  0  1.000626  0  0  0.10368  0.075379  0  0.999982  0
H  H44  1  0.32522067  0.41655511  0.73087630  1  0  0.092378  0  0.932348  0  0  0.098005  0  1.002143  0  0  0.099719  0  1.000388  0  0  0.111979  0.096697  0  1.003526  0
H  H45  1  0.17478003  0.91656071  0.26912370  1  0  0.092356  0  0.932332  0  0  0.097985  0  1.002133  0  0  0.099696  0  1.000375  0  0  0.111969  0.096678  0  1.003516  0
H  H46  1  0.67478142  0.58344181  0.26912216  1  0  0.092363  0  0.932424  0  0  0.097999  0  1.002204  0  0  0.099711  0  1.000454  0  0  0.111972  0.096693  0  1.003586  0
H  H47  1  0.82522566  0.08344550  0.73087606  1  0  0.092401  0  0.932317  0  0  0.098022  0  1.002122  0  0  0.099735  0  1.000366  0  0  0.11198  0.096715  0  1.003503  0
H  H48  1  0.50409710  0.54198823  0.63320703  1  0  0.095369  0  0.945382  0  0  0.108053  0  1.002358  0  0  0.11042  0  1.001892  0  0  0.1018  0.106307  0  1.002871  0
H  H49  1  0.99589679  0.04198508  0.36679391  1  0  0.095405  0  0.94542  0  0  0.108086  0  1.002399  0  0  0.110454  0  1.001935  0  0  0.10184  0.106341  0  1.002909  0
H  H50  1  0.49590378  0.45800869  0.36679018  1  0  0.095454  0  0.9454  0  0  0.108124  0  1.002379  0  0  0.110491  0  1.001915  0  0  0.10184  0.106362  0  1.002912  0
H  H51  1  0.00410177  0.95801555  0.63320881  1  0  0.095304  0  0.945411  0  0  0.107996  0  1.002391  0  0  0.110363  0  1.001929  0  0  0.101795  0.106253  0  1.002901  0
H  H52  1  0.49181762  0.27410728  0.56430434  1  0  0.114689  0  0.978194  0  0  0.128404  0  1.038604  0  0  0.130523  0  1.038996  0  0  0.089882  0.12685  0  1.038469  0
H  H53  1  0.00818869  0.77410263  0.43569227  1  0  0.114625  0  0.978267  0  0  0.128395  0  1.038625  0  0  0.130516  0  1.039021  0  0  0.089874  0.126839  0  1.038485  0
H  H54  1  0.50817969  0.72589057  0.43569403  1  0  0.114672  0  0.978064  0  0  0.128355  0  1.038536  0  0  0.13047  0  1.038937  0  0  0.089851  0.126802  0  1.038399  0
H  H55  1  0.99181685  0.22589150  0.56429637  1  0  0.114674  0  0.978242  0  0  0.128461  0  1.038574  0  0  0.130586  0  1.038951  0  0  0.089856  0.126907  0  1.038436  0
H  H56  1  0.64857877  0.39275231  0.54836175  1  0  0.123651  0  0.97139  0  0  0.136592  0  1.031801  0  0  0.138853  0  1.032291  0  0  0.092578  0.134976  0  1.031522  0
H  H57  1  0.85141943  0.89274260  0.45163721  1  0  0.123627  0  0.971393  0  0  0.136634  0  1.031726  0  0  0.138895  0  1.032216  0  0  0.0926  0.135019  0  1.031448  0
H  H58  1  0.35141972  0.60724275  0.45163603  1  0  0.123669  0  0.971418  0  0  0.136635  0  1.031785  0  0  0.138896  0  1.032275  0  0  0.092584  0.13502  0  1.031507  0
H  H59  1  0.14857782  0.10724410  0.54835683  1  0  0.123676  0  0.97138  0  0  0.136619  0  1.031784  0  0  0.138878  0  1.032279  0  0  0.092595  0.135006  0  1.031505  0
C  C60  1  0.27310567  0.57927597  0.87110270  1  0  0.685686  0  3.862128  0  0  0.628358  0  4.168162  0  0  0.662692  0  4.158125  0  0  0.215546  0.604912  0  4.17439  0
C  C61  1  0.22689787  0.07927931  0.12889699  1  0  0.685698  0  3.862167  0  0  0.628333  0  4.168231  0  0  0.662667  0  4.158195  0  0  0.215543  0.604884  0  4.174456  0
C  C62  1  0.72690596  0.42072095  0.12889471  1  0  0.68582  0  3.86221  0  0  0.628461  0  4.168265  0  0  0.6628  0  4.158221  0  0  0.215661  0.605014  0  4.174488  0
C  C63  1  0.77308760  0.92072226  0.87110918  1  0  0.685731  0  3.862301  0  0  0.628449  0  4.168306  0  0  0.662793  0  4.158253  0  0  0.215694  0.605003  0  4.174528  0
C  C64  1  0.46124544  0.62670474  0.99186953  1  0  -0.190748  0  3.755039  0  0  -0.221847  0  4.013019  0  0  -0.223813  0  4.029941  0  0  -0.102309  -0.220525  0  4.001802  0
C  C65  1  0.03875223  0.12670428  0.00813018  1  0  -0.190566  0  3.755115  0  0  -0.221782  0  4.013012  0  0  -0.223741  0  4.029936  0  0  -0.102282  -0.220456  0  4.001793  0
C  C66  1  0.53876737  0.37329868  0.00812728  1  0  -0.190758  0  3.755217  0  0  -0.221927  0  4.013145  0  0  -0.223884  0  4.030046  0  0  -0.102402  -0.220599  0  4.001923  0
C  C67  1  0.96123084  0.87329821  0.99187471  1  0  -0.190677  0  3.755161  0  0  -0.22182  0  4.013137  0  0  -0.22378  0  4.030047  0  0  -0.102391  -0.220495  0  4.001914  0
C  C68  1  0.39013709  0.53860289  0.93859284  1  0  -0.13478  0  3.773364  0  0  -0.121332  0  4.01993  0  0  -0.126181  0  4.036958  0  0  -0.027959  -0.11825  0  4.00872  0
C  C69  1  0.10986516  0.03860564  0.06140671  1  0  -0.13491  0  3.773576  0  0  -0.121303  0  4.019972  0  0  -0.126152  0  4.037002  0  0  -0.027954  -0.11822  0  4.008756  0
C  C70  1  0.60987333  0.46139775  0.06140393  1  0  -0.13488  0  3.773645  0  0  -0.121234  0  4.01999  0  0  -0.126081  0  4.037025  0  0  -0.027902  -0.118152  0  4.008772  0
C  C71  1  0.89011910  0.96139778  0.93859820  1  0  -0.134785  0  3.773633  0  0  -0.12131  0  4.020099  0  0  -0.126154  0  4.037135  0  0  -0.027889  -0.118224  0  4.008877  0
C  C72  1  0.42933634  0.41226288  0.94588313  1  0  0.233455  0  3.827881  0  0  0.214682  0  4.097929  0  0  0.224258  0  4.114095  0  0  0.072049  0.20792  0  4.087163  0
C  C73  1  0.07066553  0.91226602  0.05411627  1  0  0.233499  0  3.827952  0  0  0.214611  0  4.097961  0  0  0.224186  0  4.114126  0  0  0.072027  0.20786  0  4.087189  0
C  C74  1  0.57067768  0.58773775  0.05411494  1  0  0.233545  0  3.827929  0  0  0.214638  0  4.098006  0  0  0.224209  0  4.114175  0  0  0.071969  0.207878  0  4.087233  0
C  C75  1  0.92931991  0.08773740  0.94588743  1  0  0.23333  0  3.828113  0  0  0.214579  0  4.098038  0  0  0.224138  0  4.114223  0  0  0.071926  0.207818  0  4.087264  0
C  C76  1  0.38542734  0.20365058  0.89141504  1  0  0.078077  0  3.636035  0  0  0.019752  0  3.899543  0  0  0.028273  0  3.903929  0  0  -0.063081  0.014024  0  3.896436  0
C  C77  1  0.11457649  0.70365505  0.10858687  1  0  0.07807  0  3.636118  0  0  0.019604  0  3.899704  0  0  0.028113  0  3.904102  0  0  -0.063108  0.013889  0  3.896593  0
C  C78  1  0.61457720  0.79634820  0.10858841  1  0  0.078052  0  3.636215  0  0  0.019537  0  3.899841  0  0  0.028046  0  3.904242  0  0  -0.063148  0.013813  0  3.896724  0
C  C79  1  0.88541845  0.29634465  0.89141331  1  0  0.077975  0  3.635887  0  0  0.019283  0  3.899769  0  0  0.027804  0  3.904147  0  0  -0.063245  0.013562  0  3.896654  0
C  C80  1  0.29291094  0.15259698  0.81792513  1  0  -0.025942  0  3.754341  0  0  -0.033801  0  4.003835  0  0  -0.035964  0  4.025356  0  0  -0.087562  -0.03233  0  3.989189  0
C  C81  1  0.20709276  0.65260205  0.18207477  1  0  -0.026083  0  3.754521  0  0  -0.034003  0  4.004106  0  0  -0.036162  0  4.025625  0  0  -0.087683  -0.032532  0  3.989453  0
C  C82  1  0.70709002  0.84740086  0.18207825  1  0  -0.02597  0  3.754428  0  0  -0.033875  0  4.004008  0  0  -0.036041  0  4.025534  0  0  -0.087607  -0.032398  0  3.989356  0
C  C83  1  0.79290097  0.34739766  0.81792414  1  0  -0.025884  0  3.754418  0  0  -0.033801  0  4.004033  0  0  -0.035962  0  4.02555  0  0  -0.087621  -0.032336  0  3.989389  0
C  C84  1  0.35711626  0.08581802  0.75826594  1  0  -0.287982  0  3.657027  0  0  -0.320464  0  3.88488  0  0  -0.325993  0  3.90279  0  0  -0.180693  -0.316542  0  3.872759  0
C  C85  1  0.14288847  0.58581783  0.24173256  1  0  -0.288059  0  3.656885  0  0  -0.320536  0  3.884776  0  0  -0.326072  0  3.902687  0  0  -0.180706  -0.316602  0  3.872651  0
C  C86  1  0.64288351  0.91418075  0.24173804  1  0  -0.287911  0  3.657011  0  0  -0.320425  0  3.884912  0  0  -0.325952  0  3.902823  0  0  -0.180706  -0.316505  0  3.87279  0
C  C87  1  0.85710767  0.41418001  0.75826702  1  0  -0.288191  0  3.656979  0  0  -0.320676  0  3.884882  0  0  -0.326212  0  3.902793  0  0  -0.180785  -0.316745  0  3.87276  0
C  C88  1  0.89231967  0.65966912  0.63084465  1  0  0.674258  0  3.857232  0  0  0.623038  0  4.142456  0  0  0.659472  0  4.132814  0  0  0.217556  0.598223  0  4.148341  0
C  C89  1  0.60768642  0.15966832  0.36915625  1  0  0.674357  0  3.856936  0  0  0.623122  0  4.142139  0  0  0.659578  0  4.132501  0  0  0.217618  0.598294  0  4.148025  0
C  C90  1  0.10768363  0.34033523  0.36915507  1  0  0.674247  0  3.856927  0  0  0.62301  0  4.142205  0  0  0.659434  0  4.132564  0  0  0.217516  0.598199  0  4.148093  0
C  C91  1  0.39232045  0.84033232  0.63084230  1  0  0.674307  0  3.856913  0  0  0.623076  0  4.142135  0  0  0.659527  0  4.132499  0  0  0.217587  0.598262  0  4.148023  0
C  C92  1  0.95516559  0.57812431  0.56528202  1  0  -0.131578  0  3.719548  0  0  -0.11721  0  3.961229  0  0  -0.124934  0  3.980206  0  0  -0.019597  -0.1121  0  3.948549  0
C  C93  1  0.54483316  0.07812480  0.43471911  1  0  -0.131854  0  3.719651  0  0  -0.117351  0  3.961257  0  0  -0.125157  0  3.980334  0  0  -0.019649  -0.112185  0  3.948509  0
C  C94  1  0.04483534  0.42187911  0.43471889  1  0  -0.131535  0  3.719501  0  0  -0.117226  0  3.96128  0  0  -0.124925  0  3.980229  0  0  -0.019577  -0.112119  0  3.948602  0
C  C95  1  0.45516659  0.92187955  0.56528301  1  0  -0.131668  0  3.719558  0  0  -0.117229  0  3.961183  0  0  -0.125029  0  3.980251  0  0  -0.019569  -0.11212  0  3.948503  0
C  C96  1  0.09495722  0.50461058  0.57480396  1  0  0.261631  0  3.770459  0  0  0.242916  0  4.034086  0  0  0.253727  0  4.049969  0  0  0.087576  0.235354  0  4.023398  0
C  C97  1  0.40504141  0.00461514  0.42519789  1  0  0.261768  0  3.770443  0  0  0.242851  0  4.03421  0  0  0.253699  0  4.050103  0  0  0.087426  0.235268  0  4.023513  0
C  C98  1  0.90504131  0.49539005  0.42519691  1  0  0.261592  0  3.770499  0  0  0.242872  0  4.03415  0  0  0.253674  0  4.050029  0  0  0.087498  0.235309  0  4.023461  0
C  C99  1  0.59495832  0.99539014  0.57480300  1  0  0.261631  0  3.770491  0  0  0.242816  0  4.034148  0  0  0.253657  0  4.050038  0  0  0.087434  0.235254  0  4.023464  0
C  C100  1  0.13623949  0.42882289  0.50914412  1  0  -0.191304  0  3.759817  0  0  -0.222038  0  4.012577  0  0  -0.224086  0  4.030654  0  0  -0.099247  -0.220631  0  4.000538  0
C  C101  1  0.36375764  0.92882460  0.49085586  1  0  -0.191194  0  3.759658  0  0  -0.221924  0  4.012397  0  0  -0.223935  0  4.030485  0  0  -0.099195  -0.220518  0  4.000364  0
C  C102  1  0.86375903  0.57117867  0.49085613  1  0  -0.191265  0  3.759741  0  0  -0.22201  0  4.012472  0  0  -0.224053  0  4.030563  0  0  -0.099266  -0.220598  0  4.000429  0
C  C103  1  0.63624211  0.07118068  0.50914627  1  0  -0.191192  0  3.759676  0  0  -0.221972  0  4.01239  0  0  -0.223984  0  4.030487  0  0  -0.099253  -0.220582  0  4.000338  0
C  C104  1  0.30709640  0.41557383  0.66332821  1  0  0.078397  0  3.617888  0  0  0.020116  0  3.877911  0  0  0.028537  0  3.882662  0  0  -0.063803  0.014321  0  3.874825  0
C  C105  1  0.19290428  0.91557618  0.33667118  1  0  0.078528  0  3.61782  0  0  0.020213  0  3.877781  0  0  0.02866  0  3.882507  0  0  -0.063836  0.014408  0  3.874707  0
C  C106  1  0.69290210  0.58442494  0.33667018  1  0  0.078399  0  3.618044  0  0  0.020111  0  3.878031  0  0  0.028531  0  3.882783  0  0  -0.06379  0.014318  0  3.874946  0
C  C107  1  0.80710140  0.08443002  0.66332859  1  0  0.078415  0  3.617934  0  0  0.020086  0  3.877937  0  0  0.028518  0  3.882683  0  0  -0.063803  0.014292  0  3.874852  0
C  C108  1  0.45815536  0.44795288  0.62246149  1  0  -0.0469  0  3.74814  0  0  -0.053494  0  4.000311  0  0  -0.056074  0  4.022111  0  0  -0.098529  -0.051683  0  3.985495  0
C  C109  1  0.04184302  0.94795253  0.37753918  1  0  -0.046989  0  3.748141  0  0  -0.053599  0  4.00036  0  0  -0.056183  0  4.022154  0  0  -0.098594  -0.051789  0  3.985548  0
C  C110  1  0.54184432  0.55204497  0.37753569  1  0  -0.0469  0  3.748289  0  0  -0.053465  0  4.000436  0  0  -0.056045  0  4.022234  0  0  -0.09854  -0.051643  0  3.985625  0
C  C111  1  0.95815670  0.05204903  0.62246109  1  0  -0.046849  0  3.748226  0  0  -0.053463  0  4.000444  0  0  -0.056045  0  4.022244  0  0  -0.098582  -0.051653  0  3.985627  0
C  C112  1  0.53715941  0.36778496  0.57644116  1  0  -0.256929  0  3.637627  0  0  -0.29758  0  3.87276  0  0  -0.302379  0  3.890787  0  0  -0.177406  -0.294152  0  3.860485  0
C  C113  1  0.96284230  0.86777798  0.42355594  1  0  -0.256809  0  3.637675  0  0  -0.297566  0  3.872743  0  0  -0.30237  0  3.89077  0  0  -0.177395  -0.294132  0  3.860463  0
C  C114  1  0.46283908  0.63221103  0.42355600  1  0  -0.256976  0  3.637615  0  0  -0.297627  0  3.872762  0  0  -0.302425  0  3.890787  0  0  -0.177399  -0.294197  0  3.860476  0
C  C115  1  0.03715853  0.13221337  0.57643817  1  0  -0.256955  0  3.637724  0  0  -0.297652  0  3.872789  0  0  -0.302451  0  3.890815  0  0  -0.177351  -0.29422  0  3.860511  0
O  O116  1  0.12759853  0.58075862  0.87953254  1  0  -0.561348  0  1.858561  0  0  -0.517792  0  2.064986  0  0  -0.539777  0  2.056754  0  0  -0.301998  -0.502383  0  2.070246  0
O  O117  1  0.37240504  0.08075929  0.12046963  1  0  -0.561359  0  1.858558  0  0  -0.517816  0  2.065033  0  0  -0.539809  0  2.056811  0  0  -0.302009  -0.502404  0  2.070294  0
O  O118  1  0.87241432  0.41923922  0.12046737  1  0  -0.56141  0  1.85869  0  0  -0.517855  0  2.065145  0  0  -0.539862  0  2.056933  0  0  -0.302035  -0.502447  0  2.070409  0
O  O119  1  0.62757924  0.91923670  0.87953652  1  0  -0.561465  0  1.858806  0  0  -0.517934  0  2.065256  0  0  -0.539955  0  2.057058  0  0  -0.302122  -0.502526  0  2.07052  0
O  O120  1  0.34242382  0.61357423  0.80294601  1  0  -0.698089  0  2.097677  0  0  -0.606504  0  2.359844  0  0  -0.639006  0  2.343018  0  0  -0.323533  -0.583634  0  2.37078  0
O  O121  1  0.15757739  0.11357886  0.19705311  1  0  -0.697903  0  2.097553  0  0  -0.606421  0  2.359829  0  0  -0.638914  0  2.342994  0  0  -0.323497  -0.583547  0  2.370762  0
O  O122  1  0.65758301  0.38642362  0.19705069  1  0  -0.698016  0  2.097637  0  0  -0.606556  0  2.359953  0  0  -0.63905  0  2.343109  0  0  -0.323603  -0.583694  0  2.370902  0
O  O123  1  0.84240927  0.88642642  0.80295246  1  0  -0.697884  0  2.097456  0  0  -0.606454  0  2.35975  0  0  -0.638951  0  2.34291  0  0  -0.32357  -0.583597  0  2.370705  0
O  O124  1  0.35616071  0.33608682  0.88751652  1  0  -0.307125  0  2.3211  0  0  -0.24032  0  2.567077  0  0  -0.257483  0  2.568408  0  0  -0.189703  -0.228119  0  2.565721  0
O  O125  1  0.14384459  0.83609229  0.11248396  1  0  -0.307307  0  2.321073  0  0  -0.240281  0  2.566946  0  0  -0.257442  0  2.56828  0  0  -0.189681  -0.228097  0  2.565589  0
O  O126  1  0.64385214  0.66391288  0.11248339  1  0  -0.307254  0  2.321097  0  0  -0.240311  0  2.567083  0  0  -0.257469  0  2.568418  0  0  -0.189697  -0.228099  0  2.565715  0
O  O127  1  0.85613965  0.16390928  0.88751972  1  0  -0.307134  0  2.320872  0  0  -0.240143  0  2.566796  0  0  -0.257303  0  2.568132  0  0  -0.189609  -0.227937  0  2.565427  0
O  O128  1  0.97122167  0.68330176  0.69807328  1  0  -0.652703  0  2.139365  0  0  -0.578588  0  2.42307  0  0  -0.606312  0  2.403875  0  0  -0.309682  -0.559303  0  2.435743  0
O  O129  1  0.52877971  0.18330786  0.30192945  1  0  -0.652683  0  2.139234  0  0  -0.578618  0  2.422995  0  0  -0.606341  0  2.403792  0  0  -0.309692  -0.559332  0  2.435677  0
O  O130  1  0.02877924  0.31669887  0.30192702  1  0  -0.652748  0  2.139301  0  0  -0.578603  0  2.422961  0  0  -0.606327  0  2.403768  0  0  -0.309684  -0.559316  0  2.435637  0
O  O131  1  0.47122602  0.81670021  0.69807402  1  0  -0.65275  0  2.13909  0  0  -0.578632  0  2.422787  0  0  -0.606361  0  2.403598  0  0  -0.309713  -0.559345  0  2.435462  0
O  O132  1  0.75083516  0.70341463  0.61943583  1  0  -0.631247  0  1.999964  0  0  -0.567193  0  2.259229  0  0  -0.595616  0  2.245877  0  0  -0.313445  -0.547377  0  2.267748  0
O  O133  1  0.74917458  0.20340200  0.38056341  1  0  -0.63125  0  1.999871  0  0  -0.567166  0  2.259079  0  0  -0.595604  0  2.245762  0  0  -0.313432  -0.54735  0  2.267602  0
O  O134  1  0.24917171  0.29659901  0.38056334  1  0  -0.631193  0  1.999829  0  0  -0.567075  0  2.259029  0  0  -0.595506  0  2.245705  0  0  -0.313372  -0.547255  0  2.267545  0
O  O135  1  0.25084064  0.79658656  0.61943531  1  0  -0.631197  0  1.999873  0  0  -0.56713  0  2.259077  0  0  -0.595567  0  2.245765  0  0  -0.313439  -0.547316  0  2.267604  0
O  O136  1  0.18195504  0.50820710  0.64825637  1  0  -0.311117  0  2.377862  0  0  -0.234243  0  2.62281  0  0  -0.254013  0  2.623806  0  0  -0.172963  -0.220248  0  2.621792  0
O  O137  1  0.31803883  0.00821387  0.35174663  1  0  -0.311295  0  2.377816  0  0  -0.234261  0  2.622707  0  0  -0.254058  0  2.623702  0  0  -0.172835  -0.220258  0  2.621695  0
O  O138  1  0.81804468  0.49179167  0.35174390  1  0  -0.31116  0  2.377895  0  0  -0.234243  0  2.622797  0  0  -0.254009  0  2.623791  0  0  -0.172931  -0.220255  0  2.621786  0
O  O139  1  0.68195853  0.99179605  0.64825544  1  0  -0.311231  0  2.377868  0  0  -0.234211  0  2.622727  0  0  -0.253993  0  2.623717  0  0  -0.172897  -0.220219  0  2.621714  0
O  O140  1  0.15272861  0.85228830  0.80670861  1  0  -0.829615  0  1.939678  0  0  -0.762722  0  2.152557  0  0  -0.785613  0  2.118931  0  0  -0.570549  -0.746597  0  2.175901  0
O  O141  1  0.34726827  0.35228755  0.19328434  1  0  -0.829682  0  1.939624  0  0  -0.762715  0  2.152443  0  0  -0.7856  0  2.118835  0  0  -0.570594  -0.746591  0  2.175783  0
O  O142  1  0.84726506  0.14771234  0.19328536  1  0  -0.829661  0  1.939644  0  0  -0.762749  0  2.152454  0  0  -0.785634  0  2.118846  0  0  -0.570567  -0.746636  0  2.175781  0
O  O143  1  0.65273858  0.64770843  0.80671298  1  0  -0.829733  0  1.939731  0  0  -0.762791  0  2.152473  0  0  -0.785676  0  2.11886  0  0  -0.570594  -0.746664  0  2.175818  0
