# generated using pymatgen
data_ZnH3C2N4Cl
_symmetry_space_group_name_H-M   'P 1'
_cell_length_a   9.34394671
_cell_length_b   10.06500435
_cell_length_c   11.59616914
_cell_angle_alpha   90.00002598
_cell_angle_beta   90.00013177
_cell_angle_gamma   89.99999613
_symmetry_Int_Tables_number   1
_chemical_formula_structural   ZnH3C2N4Cl
_chemical_formula_sum   'Zn8 H24 C16 N32 Cl8'
_cell_volume   1090.58334473
_cell_formula_units_Z   8
loop_
 _symmetry_equiv_pos_site_id
 _symmetry_equiv_pos_as_xyz
  1  'x, y, z'
loop_
 _atom_site_type_symbol
 _atom_site_label
 _atom_site_symmetry_multiplicity
 _atom_site_fract_x
 _atom_site_fract_y
 _atom_site_fract_z
 _atom_site_occupancy
 _atom_site_pbe_bader_charge
 _atom_site_pbe_bader_spin_density
 _atom_site_pbe_cm5_charge
 _atom_site_pbe_ddec_charge
 _atom_site_pbe_ddec_spin_density
 _atom_site_pbe_ddec_sum_bond_order
 _atom_site_pbe_magmom
Zn  Zn0  1  0.07292262  0.10926880  0.38653378  1  1.169733  0  0.648471  0.650948  0  2.627832  0
Zn  Zn1  1  0.42707666  0.89073207  0.88652955  1  1.169703  0  0.648463  0.650909  0  2.627838  0
Zn  Zn2  1  0.92707841  0.60926948  0.11346604  1  1.169769  0  0.648504  0.650981  0  2.62785  0
Zn  Zn3  1  0.57292258  0.39073122  0.61346958  1  1.169699  0  0.648483  0.650938  0  2.627799  0
Zn  Zn4  1  0.92707805  0.89073099  0.61347001  1  1.169706  0  0.648479  0.650958  0  2.627758  0
Zn  Zn5  1  0.57292295  0.10926872  0.11346647  1  1.169734  0  0.648483  0.650941  0  2.627814  0
Zn  Zn6  1  0.07292226  0.39073131  0.88653430  1  1.169736  0  0.648481  0.650928  0  2.627871  0
Zn  Zn7  1  0.42707702  0.60926858  0.38653075  1  1.169701  0  0.648482  0.650945  0  2.627809  0
H  H8  1  0.18207231  0.40043309  0.30651009  1  0.1646  0  0.12845  0.095135  0  1.023664  0
H  H9  1  0.31792674  0.59956576  0.80650900  1  0.164593  0  0.128469  0.095214  0  1.023671  0
H  H10  1  0.81792764  0.90043282  0.19348983  1  0.164512  0  0.128461  0.09518  0  1.023646  0
H  H11  1  0.68207358  0.09956693  0.69349002  1  0.164509  0  0.128459  0.09517  0  1.023719  0
H  H12  1  0.81792729  0.59956671  0.69348938  1  0.164601  0  0.128461  0.09517  0  1.023707  0
H  H13  1  0.68207393  0.40043403  0.19348961  1  0.164607  0  0.128451  0.095177  0  1.023673  0
H  H14  1  0.18207196  0.09956797  0.80651050  1  0.164525  0  0.128458  0.095148  0  1.023686  0
H  H15  1  0.31792602  0.90043386  0.30651118  1  0.164613  0  0.128451  0.095176  0  1.023677  0
H  H16  1  0.40713939  0.15111286  0.65801427  1  0.469928  0  0.299448  0.30423  0  0.96955  0
H  H17  1  0.09286245  0.84888591  0.15801364  1  0.469958  0  0.299452  0.304235  0  0.969552  0
H  H18  1  0.59286094  0.65111269  0.84198564  1  0.470053  0  0.299457  0.304241  0  0.969526  0
H  H19  1  0.90713857  0.34888714  0.34198540  1  0.46994  0  0.299438  0.304234  0  0.96955  0
H  H20  1  0.59286129  0.84888694  0.34198607  1  0.469945  0  0.299452  0.304254  0  0.969526  0
H  H21  1  0.90713929  0.15111289  0.84198497  1  0.469934  0  0.299438  0.30422  0  0.96956  0
H  H22  1  0.40713974  0.34888711  0.15801470  1  0.470026  0  0.299452  0.304206  0  0.969548  0
H  H23  1  0.09286103  0.65111265  0.65801494  1  0.46993  0  0.299444  0.304226  0  0.969561  0
H  H24  1  0.30224997  0.05162853  0.57486341  1  0.489708  0  0.301011  0.312442  0  0.969137  0
H  H25  1  0.19775056  0.94837218  0.07486389  1  0.490236  0  0.301017  0.312492  0  0.969129  0
H  H26  1  0.69774929  0.55162740  0.92513645  1  0.490125  0  0.301008  0.312425  0  0.969142  0
H  H27  1  0.80224939  0.44837148  0.42513606  1  0.48971  0  0.301008  0.312451  0  0.969125  0
H  H28  1  0.69774963  0.94837126  0.42513606  1  0.489715  0  0.301007  0.312454  0  0.969118  0
H  H29  1  0.80225012  0.05162861  0.92513645  1  0.489714  0  0.301009  0.312438  0  0.969129  0
H  H30  1  0.30225139  0.44837140  0.07486561  1  0.489633  0  0.301018  0.312444  0  0.969146  0
H  H31  1  0.19775022  0.55162832  0.57486428  1  0.490218  0  0.301034  0.312483  0  0.969116  0
C  C32  1  0.24080242  0.36501136  0.38114772  1  1.011526  0  0.146012  0.161266  0  4.006316  0
C  C33  1  0.25919578  0.63498952  0.88114481  1  1.011493  0  0.145934  0.161088  0  4.006478  0
C  C34  1  0.75919646  0.86501007  0.11885305  1  1.011623  0  0.145956  0.161164  0  4.006428  0
C  C35  1  0.74080348  0.13498865  0.61885336  1  1.011606  0  0.146015  0.161229  0  4.006471  0
C  C36  1  0.75919718  0.63498844  0.61885262  1  1.011519  0  0.145987  0.161201  0  4.006375  0
C  C37  1  0.74080382  0.36501128  0.11885294  1  1.011528  0  0.145964  0.16114  0  4.006442  0
C  C38  1  0.24080314  0.13499073  0.88114728  1  1.012009  0  0.145988  0.161247  0  4.00649  0
C  C39  1  0.25919613  0.86501114  0.38114697  1  1.011519  0  0.145967  0.161139  0  4.006402  0
C  C40  1  0.31471358  0.24471935  0.52187872  1  1.536773  0  0.326379  0.540172  0  4.093837  0
C  C41  1  0.18528574  0.75528234  0.02187651  1  1.536699  0  0.326433  0.540307  0  4.093671  0
C  C42  1  0.68528674  0.74471824  0.97812035  1  1.536757  0  0.326394  0.540245  0  4.09375  0
C  C43  1  0.81471315  0.25528066  0.47812163  1  1.536777  0  0.326412  0.540215  0  4.093814  0
C  C44  1  0.68528710  0.75528045  0.47812161  1  1.536775  0  0.32639  0.540234  0  4.093816  0
C  C45  1  0.81471387  0.24471846  0.97812124  1  1.536775  0  0.326383  0.540208  0  4.093764  0
C  C46  1  0.31471179  0.25528056  0.02188084  1  1.536771  0  0.326408  0.540234  0  4.093747  0
C  C47  1  0.18528645  0.74471814  0.52187870  1  1.536777  0  0.326366  0.540168  0  4.093823  0
N  N48  1  0.39452674  0.35572277  0.52198230  1  -0.822257  0  -0.284683  -0.316759  0  3.441698  0
N  N49  1  0.10547471  0.64427692  0.02198162  1  -0.822239  0  -0.284718  -0.316785  0  3.441625  0
N  N50  1  0.60547357  0.85572168  0.97801768  1  -0.822239  0  -0.284713  -0.316796  0  3.441659  0
N  N51  1  0.89452633  0.14427723  0.47801820  1  -0.822252  0  -0.28473  -0.316802  0  3.441674  0
N  N52  1  0.60547393  0.64427703  0.47801803  1  -0.82224  0  -0.284712  -0.316819  0  3.441686  0
N  N53  1  0.89452703  0.35572288  0.97801785  1  -0.822272  0  -0.284699  -0.316779  0  3.4416  0
N  N54  1  0.39452710  0.14427812  0.02198179  1  -0.822258  0  -0.284718  -0.316801  0  3.441712  0
N  N55  1  0.10547328  0.85572257  0.52198213  1  -0.822251  0  -0.284672  -0.31675  0  3.441675  0
N  N56  1  0.21690146  0.24780129  0.43460240  1  -1.213357  0  -0.369882  -0.404595  0  3.495276  0
N  N57  1  0.28309689  0.75220061  0.93459871  1  -1.21326  0  -0.369878  -0.404582  0  3.495227  0
N  N58  1  0.78309957  0.74779997  0.06539747  1  -1.213352  0  -0.36985  -0.404617  0  3.495291  0
N  N59  1  0.71690129  0.25219972  0.56539864  1  -1.21336  0  -0.369891  -0.404603  0  3.495269  0
N  N60  1  0.78309921  0.75219950  0.56539794  1  -1.213365  0  -0.369851  -0.404606  0  3.495214  0
N  N61  1  0.71690165  0.24780019  0.06539817  1  -1.213356  0  -0.369871  -0.404558  0  3.495283  0
N  N62  1  0.21690111  0.25219983  0.93460373  1  -1.213377  0  -0.36985  -0.404592  0  3.495234  0
N  N63  1  0.28309831  0.74780008  0.43460169  1  -1.213358  0  -0.369885  -0.404567  0  3.495261  0
N  N64  1  0.34538142  0.43290404  0.43112468  1  -0.842023  0  -0.277575  -0.202469  0  3.573423  0
N  N65  1  0.15461906  0.56709587  0.93112413  1  -0.84202  0  -0.277558  -0.202447  0  3.573424  0
N  N66  1  0.65461745  0.93290173  0.06887612  1  -0.841988  0  -0.277548  -0.202402  0  3.573368  0
N  N67  1  0.84538234  0.06709696  0.56887660  1  -0.842018  0  -0.277546  -0.202436  0  3.573442  0
N  N68  1  0.65461925  0.56709576  0.56887566  1  -0.842017  0  -0.277573  -0.202421  0  3.573441  0
N  N69  1  0.84538269  0.43290393  0.06887620  1  -0.842028  0  -0.277543  -0.202418  0  3.573366  0
N  N70  1  0.34538215  0.06709906  0.93112335  1  -0.842365  0  -0.277575  -0.202481  0  3.573497  0
N  N71  1  0.15461726  0.93290283  0.43112460  1  -0.842013  0  -0.277546  -0.202419  0  3.573417  0
N  N72  1  0.32584496  0.14560068  0.60022700  1  -1.294595  0  -0.585589  -0.6588  0  3.341757  0
N  N73  1  0.17415564  0.85439906  0.10022567  1  -1.295153  0  -0.585593  -0.658879  0  3.341734  0
N  N74  1  0.67415643  0.64559954  0.89977204  1  -1.295168  0  -0.585592  -0.658799  0  3.341721  0
N  N75  1  0.82584538  0.35439933  0.39977338  1  -1.294591  0  -0.585589  -0.658823  0  3.341743  0
N  N76  1  0.67415571  0.85439912  0.39977333  1  -1.294597  0  -0.585591  -0.658847  0  3.341703  0
N  N77  1  0.82584503  0.14560074  0.89977294  1  -1.294604  0  -0.585558  -0.658774  0  3.341729  0
N  N78  1  0.32584210  0.35439827  0.10023089  1  -1.294656  0  -0.585622  -0.658765  0  3.34176  0
N  N79  1  0.17415529  0.64560047  0.60022696  1  -1.295118  0  -0.585585  -0.658812  0  3.341762  0
Cl  Cl80  1  0.02790926  0.13276800  0.19903647  1  -0.670041  0  -0.332051  -0.481593  0  1.182505  0
Cl  Cl81  1  0.47208307  0.86723179  0.69903146  1  -0.670032  0  -0.332031  -0.481555  0  1.182502  0
Cl  Cl82  1  0.97209071  0.63276778  0.30096335  1  -0.67007  0  -0.332062  -0.481601  0  1.182509  0
Cl  Cl83  1  0.52790761  0.36723203  0.80096680  1  -0.670022  0  -0.332043  -0.481564  0  1.182484  0
Cl  Cl84  1  0.97209249  0.86723180  0.80096731  1  -0.670033  0  -0.332049  -0.481579  0  1.182505  0
Cl  Cl85  1  0.52790797  0.13276801  0.30096370  1  -0.670041  0  -0.332055  -0.481594  0  1.182484  0
Cl  Cl86  1  0.02790889  0.36723301  0.69903699  1  -0.670037  0  -0.332051  -0.481582  0  1.182524  0
Cl  Cl87  1  0.47209306  0.63276777  0.19903353  1  -0.670024  0  -0.332054  -0.481584  0  1.182478  0
