# generated using pymatgen
data_ZnH9C10N5O4
_symmetry_space_group_name_H-M   'P 1'
_cell_length_a   7.57742753
_cell_length_b   12.07145361
_cell_length_c   15.57410000
_cell_angle_alpha   111.23268619
_cell_angle_beta   90.00000000
_cell_angle_gamma   90.00000000
_symmetry_Int_Tables_number   1
_chemical_formula_structural   ZnH9C10N5O4
_chemical_formula_sum   'Zn4 H36 C40 N20 O16'
_cell_volume   1327.86802046
_cell_formula_units_Z   4
loop_
 _symmetry_equiv_pos_site_id
 _symmetry_equiv_pos_as_xyz
  1  'x, y, z'
loop_
 _atom_site_type_symbol
 _atom_site_label
 _atom_site_symmetry_multiplicity
 _atom_site_fract_x
 _atom_site_fract_y
 _atom_site_fract_z
 _atom_site_occupancy
 _atom_site_hle17_bader_spin_density
 _atom_site_hle17_ddec_charge
 _atom_site_hle17_ddec_spin_density
 _atom_site_hle17_ddec_sum_bond_order
 _atom_site_hle17_magmom
 _atom_site_hse06_10hf_bader_spin_density
 _atom_site_hse06_10hf_ddec_charge
 _atom_site_hse06_10hf_ddec_spin_density
 _atom_site_hse06_10hf_ddec_sum_bond_order
 _atom_site_hse06_10hf_magmom
 _atom_site_hse06_bader_spin_density
 _atom_site_hse06_ddec_charge
 _atom_site_hse06_ddec_spin_density
 _atom_site_hse06_ddec_sum_bond_order
 _atom_site_hse06_magmom
 _atom_site_pbe_bader_charge
 _atom_site_pbe_bader_spin_density
 _atom_site_pbe_cm5_charge
 _atom_site_pbe_ddec_charge
 _atom_site_pbe_ddec_spin_density
 _atom_site_pbe_ddec_sum_bond_order
 _atom_site_pbe_magmom
Zn  Zn0  1  0.53677320  0.14392627  0.84631601  1  0  1.027275  0  1.839157  0  0  0.844043  0  2.313487  0  0  0.889027  0  2.258917  0  1.23686  0  0.692076  0.812635  0  2.351012  0
Zn  Zn1  1  0.03678161  0.35607501  0.65367901  1  0  1.027238  0  1.839264  0  0  0.843997  0  2.313565  0  0  0.888984  0  2.259002  0  1.236845  0  0.692041  0.812589  0  2.351086  0
Zn  Zn2  1  0.46322449  0.85607983  0.15368082  1  0  1.027286  0  1.839187  0  0  0.844033  0  2.313491  0  0  0.889015  0  2.258922  0  1.237112  0  0.692066  0.812625  0  2.351011  0
Zn  Zn3  1  0.96322267  0.64391332  0.34632375  1  0  1.027246  0  1.839174  0  0  0.843978  0  2.31346  0  0  0.888966  0  2.258902  0  1.236928  0  0.692073  0.812569  0  2.350979  0
H  H4  1  0.77762011  0.97349973  0.08097298  1  0  0.314962  0  0.871268  0  0  0.298437  0  0.924195  0  0  0.305803  0  0.918895  0  0.515364  0  0.33609  0.293184  0  0.928127  0
H  H5  1  0.27761664  0.52649787  0.41901678  1  0  0.314975  0  0.871206  0  0  0.298483  0  0.92409  0  0  0.30585  0  0.918789  0  0.515011  0  0.336134  0.293231  0  0.928022  0
H  H6  1  0.22238022  0.02649748  0.91901814  1  0  0.314911  0  0.871259  0  0  0.298441  0  0.924083  0  0  0.305809  0  0.918778  0  0.515029  0  0.3361  0.293189  0  0.928016  0
H  H7  1  0.72238896  0.47350823  0.58099868  1  0  0.315009  0  0.871258  0  0  0.29864  0  0.923958  0  0  0.306017  0  0.91865  0  0.514704  0  0.336186  0.293381  0  0.92789  0
H  H8  1  0.55768531  0.16323126  0.13969776  1  0  0.337919  0  0.86302  0  0  0.334062  0  0.903455  0  0  0.33954  0  0.900019  0  0.448263  0  0.325364  0.330188  0  0.90596  0
H  H9  1  0.05767261  0.33676823  0.36029356  1  0  0.338056  0  0.863047  0  0  0.33414  0  0.903562  0  0  0.339619  0  0.900123  0  0.448076  0  0.325363  0.330265  0  0.906067  0
H  H10  1  0.44230710  0.83676684  0.86029490  1  0  0.338056  0  0.863018  0  0  0.334143  0  0.90353  0  0  0.33962  0  0.900094  0  0.448113  0  0.3254  0.33027  0  0.906032  0
H  H11  1  0.94233168  0.66323964  0.63971469  1  0  0.338185  0  0.863029  0  0  0.334275  0  0.903512  0  0  0.339752  0  0.900072  0  0.447931  0  0.325389  0.330401  0  0.906019  0
H  H12  1  0.50380950  0.22606447  0.05819651  1  0  0.361238  0  0.909833  0  0  0.341338  0  0.97625  0  0  0.349473  0  0.968881  0  0.531279  0  0.303301  0.335622  0  0.981389  0
H  H13  1  0.00380340  0.27393591  0.44179634  1  0  0.361351  0  0.909815  0  0  0.341463  0  0.976194  0  0  0.349596  0  0.968824  0  0.531749  0  0.303343  0.335745  0  0.981336  0
H  H14  1  0.49619082  0.77393630  0.94179369  1  0  0.361345  0  0.909829  0  0  0.341449  0  0.97621  0  0  0.349581  0  0.968842  0  0.531752  0  0.303362  0.335733  0  0.981349  0
H  H15  1  0.99620220  0.72606663  0.55820977  1  0  0.361354  0  0.909819  0  0  0.341474  0  0.976181  0  0  0.349607  0  0.968811  0  0.531657  0  0.3033  0.335757  0  0.981323  0
H  H16  1  0.95464456  0.86186191  0.35094473  1  0  0.338866  0  0.876742  0  0  0.324293  0  0.933387  0  0  0.331578  0  0.927317  0  0.486374  0  0.30411  0.319023  0  0.937873  0
H  H17  1  0.45463450  0.63813213  0.14905302  1  0  0.33892  0  0.876691  0  0  0.324321  0  0.933355  0  0  0.331603  0  0.927284  0  0.48645  0  0.304135  0.319052  0  0.937841  0
H  H18  1  0.04536104  0.13812464  0.64905304  1  0  0.338789  0  0.876807  0  0  0.324231  0  0.933425  0  0  0.331512  0  0.927357  0  0.486366  0  0.304067  0.318963  0  0.937911  0
H  H19  1  0.54535527  0.36187841  0.85094762  1  0  0.338774  0  0.876823  0  0  0.324143  0  0.933542  0  0  0.33142  0  0.92749  0  0.486314  0  0.304072  0.318876  0  0.938026  0
H  H20  1  0.80375431  0.77826797  0.27665330  1  0  0.323587  0  0.877521  0  0  0.310219  0  0.935242  0  0  0.316283  0  0.931061  0  0.462958  0  0.30544  0.305869  0  0.938292  0
H  H21  1  0.30374556  0.72172519  0.22334613  1  0  0.323623  0  0.877538  0  0  0.310247  0  0.93521  0  0  0.316306  0  0.931036  0  0.462974  0  0.305485  0.305897  0  0.938259  0
H  H22  1  0.19625394  0.22171769  0.72334807  1  0  0.323561  0  0.877598  0  0  0.310187  0  0.935284  0  0  0.316248  0  0.931102  0  0.4629  0  0.305438  0.305837  0  0.938335  0
H  H23  1  0.69625080  0.27828891  0.77665102  1  0  0.323552  0  0.877627  0  0  0.310193  0  0.9353  0  0  0.316256  0  0.931113  0  0.462886  0  0.305438  0.305842  0  0.938351  0
H  H24  1  0.80788895  0.93575981  0.81036154  1  0  0.099525  0  0.920197  0  0  0.111396  0  0.974819  0  0  0.113734  0  0.971778  0  0.131917  0  0.137551  0.10963  0  0.977073  0
H  H25  1  0.30790661  0.56423157  0.68962583  1  0  0.09964  0  0.920113  0  0  0.111482  0  0.974735  0  0  0.113823  0  0.971691  0  0.132149  0  0.137589  0.109717  0  0.976991  0
H  H26  1  0.19211665  0.06424274  0.18963044  1  0  0.099564  0  0.920151  0  0  0.111424  0  0.974763  0  0  0.113764  0  0.971725  0  0.132149  0  0.137575  0.10966  0  0.977019  0
H  H27  1  0.69209108  0.43576476  0.31038624  1  0  0.099723  0  0.920063  0  0  0.111549  0  0.974676  0  0  0.113892  0  0.971633  0  0.132482  0  0.137631  0.109785  0  0.976933  0
H  H28  1  0.36807346  0.89903304  0.60246636  1  0  0.114988  0  0.941165  0  0  0.121276  0  1.005477  0  0  0.126243  0  1.000612  0  0.126221  0  0.105239  0.117685  0  1.009055  0
H  H29  1  0.86807693  0.60097255  0.89752950  1  0  0.114987  0  0.941263  0  0  0.121327  0  1.005499  0  0  0.126296  0  1.000627  0  0.126174  0  0.105256  0.117735  0  1.009076  0
H  H30  1  0.63192686  0.10097395  0.39752880  1  0  0.11503  0  0.941171  0  0  0.121341  0  1.005445  0  0  0.126311  0  1.000575  0  0.126238  0  0.105255  0.117749  0  1.009023  0
H  H31  1  0.13191944  0.39902733  0.10247393  1  0  0.115041  0  0.941083  0  0  0.121343  0  1.005389  0  0  0.126312  0  1.000519  0  0.126246  0  0.105258  0.117751  0  1.008965  0
H  H32  1  0.53215158  0.71094489  0.32249287  1  0  0.116775  0  0.961669  0  0  0.124222  0  1.029304  0  0  0.128299  0  1.025973  0  0.13391  0  0.105297  0.121238  0  1.031777  0
H  H33  1  0.03214020  0.78905359  0.17750613  1  0  0.116839  0  0.961648  0  0  0.124289  0  1.029272  0  0  0.128367  0  1.02594  0  0.132908  0  0.105321  0.121305  0  1.031746  0
H  H34  1  0.46785535  0.28904610  0.67750871  1  0  0.116786  0  0.961697  0  0  0.12422  0  1.029341  0  0  0.128298  0  1.026006  0  0.133867  0  0.105281  0.121246  0  1.031804  0
H  H35  1  0.96785089  0.21095695  0.82249388  1  0  0.1168  0  0.961696  0  0  0.124234  0  1.029351  0  0  0.128312  0  1.026017  0  0.133853  0  0.10529  0.12126  0  1.031814  0
H  H36  1  0.88803753  0.95455023  0.51560981  1  0  0.117476  0  0.950213  0  0  0.124926  0  1.016535  0  0  0.128859  0  1.012995  0  0.126569  0  0.107985  0.122038  0  1.019241  0
H  H37  1  0.38802615  0.54544115  0.98439104  1  0  0.117431  0  0.950306  0  0  0.124873  0  1.016661  0  0  0.128807  0  1.013121  0  0.126335  0  0.107952  0.121983  0  1.019372  0
H  H38  1  0.11197336  0.04544343  0.48438995  1  0  0.117428  0  0.950373  0  0  0.124894  0  1.016688  0  0  0.128828  0  1.013147  0  0.126478  0  0.107961  0.122004  0  1.019397  0
H  H39  1  0.61196626  0.45455873  0.01560982  1  0  0.11751  0  0.950132  0  0  0.124957  0  1.016465  0  0  0.128889  0  1.012925  0  0.12639  0  0.108027  0.122074  0  1.019175  0
C  C40  1  0.77716481  0.97061580  0.88337904  1  0  0.189808  0  3.763386  0  0  0.136588  0  4.055893  0  0  0.150253  0  4.065872  0  0.961352  0  0.134215  0.127603  0  4.049021  0
C  C41  1  0.27717322  0.52937647  0.61660858  1  0  0.189818  0  3.763343  0  0  0.136637  0  4.055784  0  0  0.150303  0  4.065762  0  0.961208  0  0.134177  0.127646  0  4.048918  0
C  C42  1  0.22283948  0.02938586  0.11661269  1  0  0.189884  0  3.763266  0  0  0.136675  0  4.055745  0  0  0.150336  0  4.065732  0  0.961594  0  0.134117  0.127683  0  4.048879  0
C  C43  1  0.72282710  0.47062075  0.38340502  1  0  0.189541  0  3.763637  0  0  0.136351  0  4.056013  0  0  0.15001  0  4.065997  0  0.961108  0  0.134055  0.127358  0  4.049149  0
C  C44  1  0.66904896  0.08518477  0.01342080  1  0  0.612757  0  3.815366  0  0  0.553275  0  4.105094  0  0  0.579351  0  4.112632  0  1.570992  0  0.343054  0.535871  0  4.099453  0
C  C45  1  0.16904418  0.41481117  0.48656888  1  0  0.612962  0  3.815326  0  0  0.553448  0  4.105078  0  0  0.579531  0  4.112602  0  1.570665  0  0.343109  0.536043  0  4.099444  0
C  C46  1  0.33095533  0.91481244  0.98656969  1  0  0.613099  0  3.815032  0  0  0.553475  0  4.104877  0  0  0.579558  0  4.112406  0  1.570694  0  0.343125  0.536071  0  4.099239  0
C  C47  1  0.83095747  0.58518782  0.51343944  1  0  0.612988  0  3.815019  0  0  0.553618  0  4.104557  0  0  0.579702  0  4.112072  0  1.570678  0  0.343176  0.536202  0  4.098944  0
C  C48  1  0.63296943  0.93434140  0.56879503  1  0  -0.057738  0  3.7811  0  0  -0.031005  0  4.012911  0  0  -0.039893  0  4.037671  0  0.075072  0  -0.019499  -0.025353  0  3.996263  0
C  C49  1  0.13296333  0.56565798  0.93120357  1  0  -0.057798  0  3.781056  0  0  -0.030975  0  4.012777  0  0  -0.039868  0  4.037544  0  0.075076  0  -0.019469  -0.02532  0  3.996125  0
C  C50  1  0.36703089  0.06565937  0.43120415  1  0  -0.057588  0  3.780992  0  0  -0.030847  0  4.012784  0  0  -0.039735  0  4.037544  0  0.07474  0  -0.01947  -0.025193  0  3.996135  0
C  C51  1  0.86702116  0.43434279  0.06879947  1  0  -0.057507  0  3.78098  0  0  -0.030799  0  4.012853  0  0  -0.039691  0  4.037619  0  0.074821  0  -0.019433  -0.025147  0  3.996207  0
C  C52  1  0.46776297  0.88001866  0.54897073  1  0  -0.063419  0  3.699443  0  0  -0.105908  0  3.954581  0  0  -0.10337  0  3.972697  0  -0.042496  0  -0.078692  -0.107336  0  3.942335  0
C  C53  1  0.96775587  0.61998516  0.95102655  1  0  -0.063349  0  3.6998  0  0  -0.105905  0  3.954878  0  0  -0.103366  0  3.972996  0  -0.042563  0  -0.078752  -0.107336  0  3.942636  0
C  C54  1  0.53223736  0.11998566  0.45102881  1  0  -0.063563  0  3.699593  0  0  -0.10607  0  3.954716  0  0  -0.103534  0  3.972832  0  -0.042506  0  -0.078736  -0.107497  0  3.942468  0
C  C55  1  0.03222730  0.38001561  0.04897328  1  0  -0.06361  0  3.699571  0  0  -0.106142  0  3.954726  0  0  -0.103603  0  3.972842  0  -0.042458  0  -0.078734  -0.107565  0  3.942471  0
C  C56  1  0.42962734  0.80174377  0.45996986  1  0  -0.055362  0  3.790432  0  0  -0.032977  0  4.033335  0  0  -0.041843  0  4.057562  0  -0.052856  0  -0.021968  -0.027308  0  4.017018  0
C  C57  1  0.92962288  0.69825561  0.04002297  1  0  -0.05554  0  3.790778  0  0  -0.033189  0  4.033738  0  0  -0.042055  0  4.057961  0  -0.052979  0  -0.021972  -0.027518  0  4.017423  0
C  C58  1  0.57037563  0.19825522  0.54002819  1  0  -0.055317  0  3.790424  0  0  -0.032946  0  4.033325  0  0  -0.041811  0  4.05755  0  -0.052825  0  -0.021929  -0.027276  0  4.01701  0
C  C59  1  0.07036689  0.30174427  0.95997083  1  0  -0.055333  0  3.790582  0  0  -0.032882  0  4.033399  0  0  -0.041746  0  4.057621  0  -0.052823  0  -0.021948  -0.027214  0  4.017084  0
C  C60  1  0.55784631  0.77625055  0.39096490  1  0  -0.157798  0  3.67452  0  0  -0.193017  0  3.929162  0  0  -0.193593  0  3.9482  0  -0.029167  0  -0.09048  -0.192269  0  3.916331  0
C  C61  1  0.05784153  0.72374705  0.10903256  1  0  -0.157808  0  3.67454  0  0  -0.19303  0  3.929188  0  0  -0.193605  0  3.948229  0  -0.028007  0  -0.090533  -0.192286  0  3.916359  0
C  C62  1  0.44215929  0.22374489  0.60903536  1  0  -0.157875  0  3.674639  0  0  -0.193046  0  3.929252  0  0  -0.193615  0  3.948286  0  -0.029066  0  -0.090499  -0.192312  0  3.91642  0
C  C63  1  0.94215352  0.27625639  0.89096480  1  0  -0.157849  0  3.674625  0  0  -0.193053  0  3.929211  0  0  -0.193624  0  3.948246  0  -0.028978  0  -0.090492  -0.192316  0  3.916373  0
C  C64  1  0.72192442  0.83271068  0.41074580  1  0  0.259356  0  3.785331  0  0  0.262038  0  4.032777  0  0  0.265314  0  4.056315  0  0.258317  0  0.079231  0.259487  0  4.016871  0
C  C65  1  0.22191832  0.66728337  0.08925259  1  0  0.259321  0  3.785403  0  0  0.261987  0  4.032839  0  0  0.265255  0  4.056378  0  0.258151  0  0.079283  0.259437  0  4.016931  0
C  C66  1  0.27808646  0.16727943  0.58925039  1  0  0.259486  0  3.785125  0  0  0.262108  0  4.03262  0  0  0.265378  0  4.056149  0  0.258328  0  0.079352  0.259558  0  4.016718  0
C  C67  1  0.77808068  0.33272274  0.91075002  1  0  0.259424  0  3.785185  0  0  0.262102  0  4.032626  0  0  0.265371  0  4.056159  0  0.258376  0  0.079342  0.259554  0  4.016724  0
C  C68  1  0.75957176  0.91189385  0.49929213  1  0  -0.132047  0  3.66649  0  0  -0.166232  0  3.917076  0  0  -0.166058  0  3.935314  0  -0.036049  0  -0.080109  -0.166011  0  3.904717  0
C  C69  1  0.25956302  0.58810108  0.00070779  1  0  -0.131876  0  3.666563  0  0  -0.166096  0  3.917094  0  0  -0.165921  0  3.935337  0  -0.035625  0  -0.080057  -0.165875  0  3.904733  0
C  C70  1  0.24043384  0.08810158  0.50070684  1  0  -0.132029  0  3.666684  0  0  -0.166246  0  3.917265  0  0  -0.166069  0  3.935501  0  -0.036028  0  -0.080108  -0.166027  0  3.904908  0
C  C71  1  0.74042806  0.41189969  0.99929332  1  0  -0.132148  0  3.666486  0  0  -0.166341  0  3.917109  0  0  -0.166165  0  3.93535  0  -0.036169  0  -0.080201  -0.166133  0  3.90476  0
C  C72  1  0.67200511  0.01878509  0.66445918  1  0  0.64448  0  3.928246  0  0  0.59696  0  4.221448  0  0  0.630511  0  4.214985  0  1.559746  0  0.202567  0.574232  0  4.225038  0
C  C73  1  0.17200033  0.48121530  0.83553816  1  0  0.64419  0  3.928549  0  0  0.596656  0  4.221744  0  0  0.630209  0  4.215285  0  1.559774  0  0.202415  0.573927  0  4.22533  0
C  C74  1  0.32799786  0.98121835  0.33553883  1  0  0.644192  0  3.928476  0  0  0.596685  0  4.221661  0  0  0.630236  0  4.215205  0  1.559924  0  0.202432  0.573956  0  4.225247  0
C  C75  1  0.82798152  0.51877925  0.16446249  1  0  0.644261  0  3.928105  0  0  0.596736  0  4.221312  0  0  0.630287  0  4.214852  0  1.560151  0  0.202495  0.574009  0  4.224899  0
C  C76  1  0.24952136  0.74982416  0.43989295  1  0  0.643326  0  3.896269  0  0  0.589012  0  4.195692  0  0  0.623083  0  4.188101  0  1.522909  0  0.203537  0.565939  0  4.200096  0
C  C77  1  0.74952086  0.75017877  0.06010537  1  0  0.643323  0  3.896277  0  0  0.589014  0  4.19568  0  0  0.623082  0  4.188086  0  1.523482  0  0.203532  0.56594  0  4.200085  0
C  C78  1  0.75048161  0.25017216  0.56010820  1  0  0.643474  0  3.895964  0  0  0.589125  0  4.195447  0  0  0.623194  0  4.187852  0  1.523948  0  0.20356  0.566051  0  4.199854  0
C  C79  1  0.25047551  0.24982911  0.93989260  1  0  0.643565  0  3.896047  0  0  0.589198  0  4.195484  0  0  0.623267  0  4.187889  0  1.52398  0  0.203608  0.566125  0  4.199889  0
N  N80  1  0.67453763  0.07037764  0.92297621  1  0  -0.552521  0  3.186373  0  0  -0.472235  0  3.492772  0  0  -0.497436  0  3.498112  0  -1.249802  0  -0.370975  -0.455215  0  3.488724  0
N  N81  1  0.17454077  0.42961652  0.57701233  1  0  -0.552668  0  3.18642  0  0  -0.472331  0  3.492786  0  0  -0.497535  0  3.498119  0  -1.249487  0  -0.370923  -0.455305  0  3.488737  0
N  N82  1  0.32546534  0.92962224  0.07701631  1  0  -0.55271  0  3.186284  0  0  -0.472384  0  3.492764  0  0  -0.497569  0  3.498053  0  -1.2497  0  -0.370917  -0.455359  0  3.488727  0
N  N83  1  0.82546484  0.57038069  0.42299677  1  0  -0.552594  0  3.186432  0  0  -0.472193  0  3.492589  0  0  -0.497396  0  3.497927  0  -1.249015  0  -0.370895  -0.455156  0  3.488538  0
N  N84  1  0.83266385  0.92202538  0.94161384  1  0  -0.220943  0  2.892291  0  0  -0.220986  0  3.18139  0  0  -0.227241  0  3.193866  0  -0.684737  0  -0.244441  -0.216844  0  3.173013  0
N  N85  1  0.33267095  0.57797044  0.55837413  1  0  -0.221128  0  2.892099  0  0  -0.221205  0  3.181207  0  0  -0.227459  0  3.193679  0  -0.684707  0  -0.244551  -0.217061  0  3.172837  0
N  N86  1  0.16733647  0.07797984  0.05838017  1  0  -0.221084  0  2.89201  0  0  -0.221205  0  3.181107  0  0  -0.227463  0  3.193583  0  -0.684775  0  -0.244476  -0.217061  0  3.172737  0
N  N87  1  0.66732806  0.42203121  0.44164071  1  0  -0.220906  0  2.892361  0  0  -0.221003  0  3.181499  0  0  -0.227254  0  3.193971  0  -0.685147  0  -0.24447  -0.216855  0  3.173127  0
N  N88  1  0.76354145  0.99591794  0.02403787  1  0  -0.304029  0  3.387531  0  0  -0.239903  0  3.633724  0  0  -0.25652  0  3.646047  0  -0.854912  0  -0.284158  -0.228923  0  3.625526  0
N  N89  1  0.26353667  0.50407699  0.47594921  1  0  -0.303991  0  3.387036  0  0  -0.239866  0  3.633198  0  0  -0.256489  0  3.645515  0  -0.854322  0  -0.284116  -0.228893  0  3.62501  0
N  N90  1  0.23646548  0.00407927  0.97595325  1  0  -0.304046  0  3.387213  0  0  -0.239806  0  3.633229  0  0  -0.256425  0  3.645547  0  -0.85461  0  -0.284096  -0.22883  0  3.625039  0
N  N91  1  0.73646762  0.49592822  0.52406150  1  0  -0.304064  0  3.387211  0  0  -0.240111  0  3.633314  0  0  -0.256741  0  3.645622  0  -0.854194  0  -0.284178  -0.229129  0  3.625136  0
N  N92  1  0.58887003  0.17507537  0.08037616  1  0  -0.6978  0  3.039114  0  0  -0.666499  0  3.263328  0  0  -0.686462  0  3.25923  0  -1.247997  0  -0.572972  -0.6526  0  3.26575  0
N  N93  1  0.08886261  0.32492413  0.41961515  1  0  -0.698105  0  3.03932  0  0  -0.666761  0  3.263581  0  0  -0.686725  0  3.259476  0  -1.248551  0  -0.573041  -0.652862  0  3.266009  0
N  N94  1  0.41113425  0.82492185  0.91961496  1  0  -0.698137  0  3.039093  0  0  -0.666772  0  3.263397  0  0  -0.686735  0  3.259295  0  -1.248553  0  -0.573106  -0.652876  0  3.265826  0
N  N95  1  0.91114563  0.67508108  0.58039363  1  0  -0.698373  0  3.038949  0  0  -0.667105  0  3.263132  0  0  -0.687068  0  3.259016  0  -1.248449  0  -0.573124  -0.653202  0  3.265575  0
N  N96  1  0.85664297  0.79919845  0.34124791  1  0  -0.66745  0  3.145249  0  0  -0.601362  0  3.387572  0  0  -0.620919  0  3.381493  0  -1.193746  0  -0.597728  -0.587724  0  3.391858  0
N  N97  1  0.35663423  0.70079560  0.15875177  1  0  -0.667582  0  3.145219  0  0  -0.601398  0  3.387483  0  0  -0.620931  0  3.381376  0  -1.193795  0  -0.597793  -0.58776  0  3.391768  0
N  N98  1  0.14336396  0.20079255  0.65875239  1  0  -0.667451  0  3.145112  0  0  -0.601278  0  3.387326  0  0  -0.620837  0  3.381274  0  -1.193482  0  -0.597732  -0.587628  0  3.391575  0
N  N99  1  0.64335950  0.29921051  0.84124763  1  0  -0.667359  0  3.145125  0  0  -0.601195  0  3.387512  0  0  -0.620735  0  3.381424  0  -1.193369  0  -0.597728  -0.587545  0  3.391759  0
O  O100  1  0.80854749  0.08230084  0.68212732  1  0  -0.635617  0  1.914764  0  0  -0.588955  0  2.136959  0  0  -0.611899  0  2.127982  0  -1.205141  0  -0.328913  -0.57296  0  2.142694  0
O  O101  1  0.30854535  0.41769421  0.81787046  1  0  -0.635542  0  1.914654  0  0  -0.588868  0  2.136854  0  0  -0.611813  0  2.127882  0  -1.205064  0  -0.328886  -0.572872  0  2.142587  0
O  O102  1  0.19145944  0.91769548  0.31787063  1  0  -0.635579  0  1.91474  0  0  -0.588895  0  2.136904  0  0  -0.611845  0  2.127932  0  -1.205011  0  -0.328873  -0.572896  0  2.142634  0
O  O103  1  0.69145234  0.58230834  0.18212730  1  0  -0.635629  0  1.914551  0  0  -0.588909  0  2.136687  0  0  -0.611856  0  2.127712  0  -1.20523  0  -0.328911  -0.572912  0  2.142419  0
O  O104  1  0.55261367  0.01930055  0.72434730  1  0  -0.666171  0  2.062266  0  0  -0.592326  0  2.33389  0  0  -0.620543  0  2.317475  0  -1.18573  0  -0.346636  -0.572529  0  2.344456  0
O  O105  1  0.05261284  0.48070250  0.77564823  1  0  -0.665932  0  2.062484  0  0  -0.592111  0  2.334102  0  0  -0.620328  0  2.317688  0  -1.185835  0  -0.346499  -0.572316  0  2.344669  0
O  O106  1  0.44738402  0.98070822  0.27564964  1  0  -0.665951  0  2.062364  0  0  -0.592127  0  2.333966  0  0  -0.620346  0  2.317558  0  -1.185776  0  -0.346528  -0.57233  0  2.344526  0
O  O107  1  0.94735185  0.51928138  0.22435649  1  0  -0.666048  0  2.062365  0  0  -0.592176  0  2.333924  0  0  -0.620398  0  2.317518  0  -1.185864  0  -0.346606  -0.572378  0  2.344482  0
O  O108  1  0.12492102  0.79407314  0.49510742  1  0  -0.62542  0  1.975011  0  0  -0.568875  0  2.205447  0  0  -0.59319  0  2.196402  0  -1.195093  0  -0.309127  -0.551963  0  2.211148  0
O  O109  1  0.62491789  0.70592623  0.00489055  1  0  -0.625392  0  1.974997  0  0  -0.568849  0  2.205448  0  0  -0.593163  0  2.196404  0  -1.195117  0  -0.309116  -0.551937  0  2.211147  0
O  O110  1  0.87508458  0.20592318  0.50489245  1  0  -0.625454  0  1.974766  0  0  -0.568912  0  2.205228  0  0  -0.593222  0  2.196179  0  -1.195183  0  -0.30916  -0.552001  0  2.21093  0
O  O111  1  0.37507848  0.29407809  0.99510643  1  0  -0.625512  0  1.974763  0  0  -0.568966  0  2.205243  0  0  -0.593279  0  2.196194  0  -1.195103  0  -0.309194  -0.552056  0  2.210944  0
O  O112  1  0.22630240  0.65913816  0.36310091  1  0  -0.665971  0  1.982769  0  0  -0.59182  0  2.241322  0  0  -0.618394  0  2.224342  0  -1.170529  0  -0.33943  -0.573227  0  2.25237  0
O  O113  1  0.72630322  0.84086389  0.13689716  1  0  -0.665998  0  1.982823  0  0  -0.591789  0  2.241303  0  0  -0.618384  0  2.224365  0  -1.171105  0  -0.339429  -0.573194  0  2.252347  0
O  O114  1  0.77370453  0.34085284  0.63690067  1  0  -0.666068  0  1.982803  0  0  -0.591887  0  2.241347  0  0  -0.61848  0  2.224405  0  -1.171556  0  -0.339413  -0.573294  0  2.252398  0
O  O115  1  0.27369447  0.15914844  0.86310013  1  0  -0.666101  0  1.98283  0  0  -0.591899  0  2.241353  0  0  -0.618485  0  2.224398  0  -1.171594  0  -0.339404  -0.573307  0  2.252403  0
