# generated using pymatgen
data_ThH12C6S2(NO6)2
_symmetry_space_group_name_H-M   'P 1'
_cell_length_a   6.88039673
_cell_length_b   10.57071068
_cell_length_c   10.68984091
_cell_angle_alpha   74.21521309
_cell_angle_beta   81.99134664
_cell_angle_gamma   76.64686587
_symmetry_Int_Tables_number   1
_chemical_formula_structural   ThH12C6S2(NO6)2
_chemical_formula_sum   'Th2 H24 C12 S4 N4 O24'
_cell_volume   725.50065338
_cell_formula_units_Z   2
loop_
 _symmetry_equiv_pos_site_id
 _symmetry_equiv_pos_as_xyz
  1  'x, y, z'
loop_
 _atom_site_type_symbol
 _atom_site_label
 _atom_site_symmetry_multiplicity
 _atom_site_fract_x
 _atom_site_fract_y
 _atom_site_fract_z
 _atom_site_occupancy
 _atom_site_hle17_bader_spin_density
 _atom_site_hle17_ddec_charge
 _atom_site_hle17_ddec_spin_density
 _atom_site_hle17_ddec_sum_bond_order
 _atom_site_hle17_magmom
 _atom_site_hse06_10hf_bader_spin_density
 _atom_site_hse06_10hf_ddec_charge
 _atom_site_hse06_10hf_ddec_spin_density
 _atom_site_hse06_10hf_ddec_sum_bond_order
 _atom_site_hse06_10hf_magmom
 _atom_site_hse06_bader_spin_density
 _atom_site_hse06_ddec_charge
 _atom_site_hse06_ddec_spin_density
 _atom_site_hse06_ddec_sum_bond_order
 _atom_site_hse06_magmom
 _atom_site_pbe_bader_spin_density
 _atom_site_pbe_cm5_charge
 _atom_site_pbe_ddec_charge
 _atom_site_pbe_ddec_spin_density
 _atom_site_pbe_ddec_sum_bond_order
 _atom_site_pbe_magmom
Th  Th0  1  0.25179288  0.33608044  0.71156781  1  0  2.607136  0  2.54967  0  0  2.46138  0  3.144865  0  0  2.574496  0  3.048808  0  0  1.64497  2.377667  0  3.212355  0
Th  Th1  1  0.74820669  0.66392234  0.28843175  1  0  2.607067  0  2.549691  0  0  2.461266  0  3.144897  0  0  2.574383  0  3.048841  0  0  1.644948  2.377556  0  3.212363  0
H  H2  1  0.42481422  0.41938439  0.36449442  1  0  0.0841  0  0.967511  0  0  0.085966  0  1.040996  0  0  0.089335  0  1.037001  0  0  0.124134  0.08352  0  1.04393  0
H  H3  1  0.57519195  0.58061525  0.63550068  1  0  0.084073  0  0.967479  0  0  0.085923  0  1.040974  0  0  0.089291  0  1.036982  0  0  0.124145  0.083476  0  1.043909  0
H  H4  1  0.46423114  0.34224410  0.16160605  1  0  0.110635  0  0.957448  0  0  0.117792  0  1.020595  0  0  0.121054  0  1.019031  0  0  0.109704  0.115328  0  1.022029  0
H  H5  1  0.53578230  0.65775045  0.83838975  1  0  0.110652  0  0.957454  0  0  0.117831  0  1.020544  0  0  0.121099  0  1.018978  0  0  0.109751  0.115363  0  1.021982  0
H  H6  1  0.38788396  0.11669165  0.17321209  1  0  0.09811  0  0.935372  0  0  0.108879  0  0.994385  0  0  0.112094  0  0.991327  0  0  0.110623  0.106303  0  0.997033  0
H  H7  1  0.61210925  0.88330716  0.82678550  1  0  0.098136  0  0.935415  0  0  0.108902  0  0.994415  0  0  0.112118  0  0.991357  0  0  0.110622  0.106326  0  0.997068  0
H  H8  1  0.27056074  0.98193996  0.38754202  1  0  0.117215  0  0.94549  0  0  0.126475  0  1.005959  0  0  0.130085  0  1.004465  0  0  0.116553  0.12389  0  1.007114  0
H  H9  1  0.72942635  0.01805995  0.61245775  1  0  0.117256  0  0.945495  0  0  0.126522  0  1.005942  0  0  0.130131  0  1.004448  0  0  0.116598  0.123936  0  1.0071  0
H  H10  1  0.12795526  0.89132743  0.73701269  1  0  0.365778  0  0.887349  0  0  0.346511  0  0.945779  0  0  0.355411  0  0.938007  0  0  0.310402  0.340194  0  0.951334  0
H  H11  1  0.87204086  0.10867741  0.26298851  1  0  0.365814  0  0.887481  0  0  0.346543  0  0.945929  0  0  0.355444  0  0.938152  0  0  0.310416  0.340228  0  0.951474  0
H  H12  1  0.17373692  0.89343385  0.57256409  1  0  0.355763  0  0.914414  0  0  0.33304  0  0.982379  0  0  0.341101  0  0.975937  0  0  0.307825  0.327274  0  0.987117  0
H  H13  1  0.82625979  0.10656291  0.42743371  1  0  0.355823  0  0.914411  0  0  0.333091  0  0.98242  0  0  0.341153  0  0.975976  0  0  0.307853  0.327323  0  0.987159  0
H  H14  1  0.57336668  0.15994669  0.91598425  1  0  0.45292  0  0.836531  0  0  0.423816  0  0.895643  0  0  0.434628  0  0.879806  0  0  0.309291  0.416072  0  0.907043  0
H  H15  1  0.42663105  0.84005211  0.08401662  1  0  0.452904  0  0.836551  0  0  0.423802  0  0.89566  0  0  0.434617  0  0.879818  0  0  0.309279  0.416056  0  0.907064  0
H  H16  1  0.37340052  0.10332377  0.94748751  1  0  0.434723  0  0.814872  0  0  0.414219  0  0.875387  0  0  0.42366  0  0.864516  0  0  0.328321  0.407171  0  0.88381  0
H  H17  1  0.62659866  0.89667500  0.05251228  1  0  0.434742  0  0.814863  0  0  0.414242  0  0.875369  0  0  0.423683  0  0.864497  0  0  0.328333  0.40719  0  0.883791  0
H  H18  1  0.32408428  0.47350846  0.92169498  1  0  0.445376  0  0.854302  0  0  0.411425  0  0.922419  0  0  0.423334  0  0.905137  0  0  0.3018  0.402937  0  0.934733  0
H  H19  1  0.67591730  0.52648732  0.07830916  1  0  0.445408  0  0.854263  0  0  0.411455  0  0.922387  0  0  0.423366  0  0.905102  0  0  0.301802  0.402964  0  0.934706  0
H  H20  1  0.52939618  0.36953830  0.89913741  1  0  0.433584  0  0.866792  0  0  0.40143  0  0.93304  0  0  0.412551  0  0.916921  0  0  0.30407  0.393425  0  0.94466  0
H  H21  1  0.47060602  0.63046047  0.10086489  1  0  0.433565  0  0.866819  0  0  0.401376  0  0.933102  0  0  0.412518  0  0.916969  0  0  0.304046  0.393368  0  0.944722  0
H  H22  1  0.06622657  0.62186606  0.77550101  1  0  0.448077  0  0.832835  0  0  0.421434  0  0.891476  0  0  0.432255  0  0.876062  0  0  0.311527  0.413678  0  0.902523  0
H  H23  1  0.93377807  0.37813470  0.22450234  1  0  0.448104  0  0.832879  0  0  0.421461  0  0.891458  0  0  0.432282  0  0.876043  0  0  0.311535  0.413698  0  0.90251  0
H  H24  1  0.93360253  0.51477890  0.84303272  1  0  0.430313  0  0.879055  0  0  0.396443  0  0.947768  0  0  0.407467  0  0.93209  0  0  0.299943  0.388662  0  0.958804  0
H  H25  1  0.06640239  0.48522085  0.15697089  1  0  0.43036  0  0.879001  0  0  0.396463  0  0.947748  0  0  0.407486  0  0.932072  0  0  0.29996  0.388682  0  0.958781  0
C  C26  1  0.39049870  0.32353611  0.36659128  1  0  0.165834  0  3.662057  0  0  0.135176  0  3.924809  0  0  0.143819  0  3.939017  0  0  0.06355  0.129178  0  3.915606  0
C  C27  1  0.60950307  0.67646360  0.63340518  1  0  0.16591  0  3.661892  0  0  0.135277  0  3.924659  0  0  0.143918  0  3.938869  0  0  0.063555  0.129284  0  3.915448  0
C  C28  1  0.41301372  0.27932530  0.25295111  1  0  -0.082653  0  3.66343  0  0  -0.098899  0  3.917847  0  0  -0.103421  0  3.935079  0  0  -0.072178  -0.096133  0  3.906665  0
C  C29  1  0.58699243  0.72066937  0.74704820  1  0  -0.082658  0  3.663291  0  0  -0.09892  0  3.917714  0  0  -0.103448  0  3.93495  0  0  -0.072203  -0.096148  0  3.906537  0
C  C30  1  0.36926509  0.15564769  0.25936732  1  0  0.025691  0  3.668189  0  0  0.004994  0  3.922475  0  0  0.00906  0  3.937919  0  0  -0.057463  0.002494  0  3.912164  0
C  C31  1  0.63073259  0.84435109  0.74063169  1  0  0.025652  0  3.66794  0  0  0.004956  0  3.922246  0  0  0.009019  0  3.937686  0  0  -0.057476  0.002457  0  3.911941  0
C  C32  1  0.30450014  0.07973604  0.37970563  1  0  -0.106317  0  3.665208  0  0  -0.129579  0  3.914042  0  0  -0.134212  0  3.933281  0  0  -0.071071  -0.126736  0  3.901379  0
C  C33  1  0.69549663  0.92026571  0.62028983  1  0  -0.106275  0  3.665108  0  0  -0.129547  0  3.913943  0  0  -0.134173  0  3.933178  0  0  -0.071059  -0.126705  0  3.901283  0
C  C34  1  0.28520179  0.13146626  0.48876859  1  0  0.091431  0  3.791939  0  0  0.099226  0  4.034918  0  0  0.100881  0  4.056048  0  0  0.11651  0.098095  0  4.020639  0
C  C35  1  0.71479548  0.86853954  0.51123034  1  0  0.09145  0  3.792171  0  0  0.099206  0  4.035064  0  0  0.100848  0  4.056205  0  0  0.116512  0.098082  0  4.020785  0
C  C36  1  0.21716390  0.06029560  0.62268018  1  0  0.606989  0  3.845333  0  0  0.553917  0  4.138266  0  0  0.584762  0  4.136536  0  0  0.26132  0.532902  0  4.13872  0
C  C37  1  0.78282489  0.93969223  0.37731722  1  0  0.606736  0  3.845629  0  0  0.553903  0  4.138196  0  0  0.584765  0  4.136448  0  0  0.261263  0.532872  0  4.138666  0
S  S38  1  0.87279476  0.29792743  0.00353646  1  0  1.624133  0  5.775074  0  0  1.492445  0  6.327598  0  0  1.550174  0  6.288874  0  0  0.59507  1.452146  0  6.353452  0
S  S39  1  0.12720066  0.70207440  0.99646379  1  0  1.623993  0  5.775047  0  0  1.492267  0  6.327617  0  0  1.549996  0  6.288891  0  0  0.594968  1.451961  0  6.353489  0
S  S40  1  0.78114694  0.34349656  0.55758612  1  0  1.704383  0  5.708781  0  0  1.577275  0  6.255135  0  0  1.641564  0  6.210373  0  0  0.635418  1.532144  0  6.284927  0
S  S41  1  0.21884966  0.65650625  0.44241280  1  0  1.704349  0  5.70891  0  0  1.57722  0  6.255268  0  0  1.641505  0  6.21051  0  0  0.6354  1.532089  0  6.285066  0
N  N42  1  0.32769098  0.25169461  0.48304260  1  0  -0.405121  0  3.230102  0  0  -0.359932  0  3.492819  0  0  -0.380334  0  3.515233  0  0  -0.336019  -0.345605  0  3.477333  0
N  N43  1  0.67231226  0.74830507  0.51695372  1  0  -0.405191  0  3.229975  0  0  -0.360001  0  3.492668  0  0  -0.3804  0  3.515085  0  0  -0.336047  -0.345674  0  3.477179  0
N  N44  1  0.16538152  0.94357854  0.64348593  1  0  -0.638815  0  3.104616  0  0  -0.598532  0  3.34165  0  0  -0.62197  0  3.338428  0  0  -0.543564  -0.58252  0  3.34407  0
N  N45  1  0.83461964  0.05644027  0.35651361  1  0  -0.638959  0  3.104289  0  0  -0.59879  0  3.341252  0  0  -0.622245  0  3.338023  0  0  -0.543717  -0.582769  0  3.34367  0
O  O46  1  0.21318340  0.11486922  0.71563210  1  0  -0.644199  0  2.059426  0  0  -0.594984  0  2.313461  0  0  -0.6265  0  2.305238  0  0  -0.35995  -0.572414  0  2.31825  0
O  O47  1  0.78681217  0.88513763  0.28436858  1  0  -0.643969  0  2.059902  0  0  -0.594825  0  2.313819  0  0  -0.626334  0  2.305582  0  0  -0.359856  -0.572258  0  2.318609  0
O  O48  1  0.47055752  0.13408592  0.87664272  1  0  -0.84572  0  1.823957  0  0  -0.803389  0  2.009898  0  0  -0.825777  0  1.982041  0  0  -0.58085  -0.787235  0  2.029916  0
O  O49  1  0.52944169  0.86591286  0.12335801  1  0  -0.845719  0  1.823979  0  0  -0.80339  0  2.009916  0  0  -0.825779  0  1.982055  0  0  -0.580848  -0.787231  0  2.029932  0
O  O50  1  0.40680037  0.42473588  0.85760045  1  0  -0.896865  0  1.90504  0  0  -0.84817  0  2.112864  0  0  -0.875155  0  2.080036  0  0  -0.621488  -0.828653  0  2.135816  0
O  O51  1  0.59320008  0.57526391  0.14240174  1  0  -0.896874  0  1.904988  0  0  -0.848141  0  2.112917  0  0  -0.875154  0  2.080022  0  0  -0.621461  -0.828617  0  2.135883  0
O  O52  1  0.03147685  0.53950945  0.76602126  1  0  -0.878963  0  1.918647  0  0  -0.831814  0  2.124651  0  0  -0.859303  0  2.095625  0  0  -0.61883  -0.811987  0  2.14476  0
O  O53  1  0.96852630  0.46049131  0.23398131  1  0  -0.879013  0  1.918652  0  0  -0.831837  0  2.124635  0  0  -0.859329  0  2.095608  0  0  -0.618839  -0.812006  0  2.144748  0
O  O54  1  0.05483827  0.26589165  0.91281213  1  0  -0.813828  0  2.026268  0  0  -0.758345  0  2.307104  0  0  -0.788186  0  2.286549  0  0  -0.417968  -0.736634  0  2.320501  0
O  O55  1  0.94517049  0.73411004  0.08718961  1  0  -0.813786  0  2.026295  0  0  -0.758291  0  2.307142  0  0  -0.788132  0  2.286586  0  0  -0.417898  -0.736576  0  2.320538  0
O  O56  1  0.80165471  0.44766834  0.97065717  1  0  -0.750506  0  1.994513  0  0  -0.67965  0  2.231394  0  0  -0.702471  0  2.212434  0  0  -0.344545  -0.663563  0  2.244499  0
O  O57  1  0.19834733  0.55233149  0.02934952  1  0  -0.750477  0  1.994506  0  0  -0.679547  0  2.231315  0  0  -0.702361  0  2.212351  0  0  -0.344498  -0.663457  0  2.244414  0
O  O58  1  0.71091408  0.23621286  0.98332035  1  0  -0.737163  0  1.957415  0  0  -0.677313  0  2.197908  0  0  -0.698978  0  2.176959  0  0  -0.346943  -0.661985  0  2.212407  0
O  O59  1  0.28909216  0.76378681  0.01667754  1  0  -0.737149  0  1.957312  0  0  -0.677306  0  2.197817  0  0  -0.698977  0  2.176878  0  0  -0.346958  -0.661971  0  2.212313  0
O  O60  1  0.92893764  0.24925325  0.13914989  1  0  -0.717487  0  1.96039  0  0  -0.660047  0  2.199839  0  0  -0.682023  0  2.182619  0  0  -0.339164  -0.644357  0  2.211398  0
O  O61  1  0.07106339  0.75074454  0.86085373  1  0  -0.717441  0  1.960497  0  0  -0.659992  0  2.19996  0  0  -0.681971  0  2.182741  0  0  -0.339136  -0.644301  0  2.211532  0
O  O62  1  0.93361490  0.36556974  0.63123625  1  0  -0.788003  0  2.047897  0  0  -0.73813  0  2.337907  0  0  -0.769696  0  2.318575  0  0  -0.400754  -0.715083  0  2.350516  0
O  O63  1  0.06638492  0.63443202  0.36876263  1  0  -0.788025  0  2.047995  0  0  -0.738102  0  2.337975  0  0  -0.769672  0  2.318649  0  0  -0.400735  -0.715037  0  2.350543  0
O  O64  1  0.60520850  0.31375038  0.65115988  1  0  -0.790626  0  2.024885  0  0  -0.735514  0  2.308216  0  0  -0.76688  0  2.288633  0  0  -0.406153  -0.712504  0  2.320657  0
O  O65  1  0.39479070  0.68624841  0.34884085  1  0  -0.790557  0  2.024895  0  0  -0.735463  0  2.30826  0  0  -0.766829  0  2.288681  0  0  -0.406145  -0.712457  0  2.320699  0
O  O66  1  0.71378415  0.47265997  0.45964856  1  0  -0.805936  0  2.095082  0  0  -0.75115  0  2.390315  0  0  -0.78363  0  2.372079  0  0  -0.409963  -0.727511  0  2.402039  0
O  O67  1  0.28621434  0.52733579  0.54035029  1  0  -0.805932  0  2.095008  0  0  -0.751191  0  2.390326  0  0  -0.783676  0  2.372097  0  0  -0.409995  -0.727545  0  2.402045  0
O  O68  1  0.86095357  0.23450180  0.49435042  1  0  -0.699988  0  1.973755  0  0  -0.646381  0  2.220099  0  0  -0.669173  0  2.203847  0  0  -0.32413  -0.63016  0  2.23113  0
O  O69  1  0.13904819  0.76549293  0.50565025  1  0  -0.69997  0  1.973884  0  0  -0.646377  0  2.220284  0  0  -0.669161  0  2.204037  0  0  -0.324111  -0.630161  0  2.231321  0
