# generated using pymatgen
data_CuH9C8INO2
_symmetry_space_group_name_H-M   'P 1'
_cell_length_a   4.03837903
_cell_length_b   9.03000969
_cell_length_c   27.23287600
_cell_angle_alpha   89.99954676
_cell_angle_beta   90.00055414
_cell_angle_gamma   101.37300117
_symmetry_Int_Tables_number   1
_chemical_formula_structural   CuH9C8INO2
_chemical_formula_sum   'Cu4 H36 C32 I4 N4 O8'
_cell_volume   973.59032365
_cell_formula_units_Z   4
loop_
 _symmetry_equiv_pos_site_id
 _symmetry_equiv_pos_as_xyz
  1  'x, y, z'
loop_
 _atom_site_type_symbol
 _atom_site_label
 _atom_site_symmetry_multiplicity
 _atom_site_fract_x
 _atom_site_fract_y
 _atom_site_fract_z
 _atom_site_occupancy
 _atom_site_pbe_bader_spin_density
 _atom_site_pbe_cm5_charge
 _atom_site_pbe_ddec_charge
 _atom_site_pbe_ddec_spin_density
 _atom_site_pbe_ddec_sum_bond_order
 _atom_site_pbe_magmom
Cu  Cu0  1  0.71002094  0.40793872  0.00906879  1  0  0.242813  0.137016  0  2.774104  0
Cu  Cu1  1  0.78997548  0.09205962  0.50906787  1  0  0.242817  0.137016  0  2.774162  0
Cu  Cu2  1  0.28997539  0.59205869  0.99093185  1  0  0.24279  0.136995  0  2.774136  0
Cu  Cu3  1  0.21002772  0.90794233  0.49093019  1  0  0.242792  0.136955  0  2.774164  0
H  H4  1  0.50916790  0.90172061  0.09811917  1  0  0.093461  0.114298  0  1.052084  0
H  H5  1  0.99085911  0.59828144  0.59811376  1  0  0.0935  0.114403  0  1.052233  0
H  H6  1  0.49081803  0.09827563  0.90188110  1  0  0.093496  0.114355  0  1.052112  0
H  H7  1  0.00913722  0.40171597  0.40188798  1  0  0.09346  0.114321  0  1.052239  0
H  H8  1  0.74043758  0.08880306  0.03298775  1  0  0.103146  0.077289  0  1.019627  0
H  H9  1  0.75956362  0.41119710  0.53298521  1  0  0.103191  0.077403  0  1.019497  0
H  H10  1  0.25955970  0.91119661  0.96701252  1  0  0.103158  0.077289  0  1.01953  0
H  H11  1  0.24043605  0.58880822  0.46701543  1  0  0.103163  0.077336  0  1.019519  0
H  H12  1  0.41264584  0.43538911  0.10604581  1  0  0.102532  0.074254  0  1.049017  0
H  H13  1  0.08736119  0.06461160  0.60604504  1  0  0.102531  0.07426  0  1.049003  0
H  H14  1  0.58735831  0.56461510  0.89395520  1  0  0.102577  0.074317  0  1.049049  0
H  H15  1  0.91263762  0.93538582  0.39395266  1  0  0.102545  0.074271  0  1.048977  0
H  H16  1  0.17308510  0.26250900  0.17533271  1  0  0.113016  0.120705  0  1.014068  0
H  H17  1  0.32693565  0.23749610  0.67532999  1  0  0.113013  0.12072  0  1.014059  0
H  H18  1  0.82691313  0.73749293  0.82466793  1  0  0.113028  0.12067  0  1.014092  0
H  H19  1  0.67306669  0.76249795  0.32466808  1  0  0.11301  0.120704  0  1.014056  0
H  H20  1  0.79555080  0.72532669  0.21567900  1  0  0.104559  0.072428  0  1.009238  0
H  H21  1  0.70444504  0.77467755  0.71567784  1  0  0.104569  0.072501  0  1.009172  0
H  H22  1  0.20444505  0.27466959  0.78432017  1  0  0.104545  0.07242  0  1.009104  0
H  H23  1  0.29555568  0.22532438  0.28432244  1  0  0.104568  0.072487  0  1.009123  0
H  H24  1  0.18688571  0.72932204  0.24612447  1  0  0.102843  0.06986  0  0.989289  0
H  H25  1  0.31311175  0.77067338  0.74612201  1  0  0.102859  0.069911  0  0.989312  0
H  H26  1  0.81310556  0.27068099  0.75387507  1  0  0.10282  0.069873  0  0.989206  0
H  H27  1  0.68690537  0.22932637  0.25387643  1  0  0.102823  0.069905  0  0.989098  0
H  H28  1  0.95986125  0.54490835  0.15262909  1  0  0.078074  0.113686  0  1.051235  0
H  H29  1  0.54014288  0.95510161  0.65262905  1  0  0.078105  0.113717  0  1.051111  0
H  H30  1  0.04015235  0.45509476  0.84737008  1  0  0.078147  0.113734  0  1.051224  0
H  H31  1  0.45986633  0.04489698  0.34736939  1  0  0.078148  0.113757  0  1.051232  0
H  H32  1  0.94103674  0.46960854  0.21356142  1  0  0.091679  0.129558  0  1.021109  0
H  H33  1  0.55895667  0.03039274  0.71356290  1  0  0.091659  0.129526  0  1.021092  0
H  H34  1  0.05897390  0.53039344  0.78643702  1  0  0.091662  0.129533  0  1.021063  0
H  H35  1  0.44105301  0.96960698  0.28643700  1  0  0.091693  0.129552  0  1.021078  0
H  H36  1  0.33864432  0.54413231  0.18651269  1  0  0.09038  0.13008  0  1.015674  0
H  H37  1  0.16135762  0.95587100  0.68651208  1  0  0.090337  0.130047  0  1.015691  0
H  H38  1  0.66137119  0.45587532  0.81348758  1  0  0.090385  0.130063  0  1.015717  0
H  H39  1  0.83863871  0.04412641  0.31348819  1  0  0.090376  0.130057  0  1.01583  0
C  C40  1  0.16783992  0.96526530  0.18214706  1  0  0.236108  0.506465  0  4.120552  0
C  C41  1  0.33217226  0.53473363  0.68214819  1  0  0.235976  0.506281  0  4.121381  0
C  C42  1  0.83214448  0.03473320  0.81784991  1  0  0.236052  0.506366  0  4.120692  0
C  C43  1  0.66783208  0.46525930  0.31785465  1  0  0.236114  0.50645  0  4.12075  0
C  C44  1  0.32335715  0.06872573  0.14216875  1  0  -0.001596  -0.003787  0  3.985033  0
C  C45  1  0.17666822  0.43127776  0.64216456  1  0  -0.001484  -0.003578  0  3.984692  0
C  C46  1  0.67662678  0.93127163  0.85783152  1  0  -0.001526  -0.003692  0  3.984778  0
C  C47  1  0.82333354  0.56872080  0.35783571  1  0  -0.001536  -0.003692  0  3.984866  0
C  C48  1  0.48419993  0.01906708  0.10157902  1  0  -0.08262  -0.137378  0  3.94748  0
C  C49  1  0.01582460  0.48094054  0.60157336  1  0  -0.082765  -0.137654  0  3.947736  0
C  C50  1  0.51578095  0.98093478  0.89842345  1  0  -0.082712  -0.137502  0  3.947615  0
C  C51  1  0.98417364  0.51906139  0.39842691  1  0  -0.082662  -0.137436  0  3.94773  0
C  C52  1  0.61150986  0.12241476  0.06513295  1  0  0.037678  0.08694  0  3.919219  0
C  C53  1  0.88850650  0.37758712  0.56512995  1  0  0.037639  0.086841  0  3.919297  0
C  C54  1  0.38848743  0.87758491  0.93486732  1  0  0.037709  0.087021  0  3.919185  0
C  C55  1  0.11149316  0.62241820  0.43487032  1  0  0.037548  0.086738  0  3.919253  0
C  C56  1  0.43038779  0.31642049  0.10626667  1  0  0.037824  0.086245  0  3.919051  0
C  C57  1  0.06962812  0.18358364  0.60626592  1  0  0.037826  0.086262  0  3.919078  0
C  C58  1  0.56961693  0.68357921  0.89373397  1  0  0.037845  0.086229  0  3.919284  0
C  C59  1  0.93037164  0.81641604  0.39373288  1  0  0.037824  0.08623  0  3.91916  0
C  C60  1  0.29840038  0.22082469  0.14438203  1  0  -0.075022  -0.13149  0  3.933112  0
C  C61  1  0.20162216  0.27917762  0.64437938  1  0  -0.075065  -0.131599  0  3.933313  0
C  C62  1  0.70159299  0.77917158  0.85561971  1  0  -0.075066  -0.13149  0  3.933243  0
C  C63  1  0.79838209  0.72082095  0.35561979  1  0  -0.075019  -0.131506  0  3.933203  0
C  C64  1  0.05609030  0.71029102  0.21061878  1  0  -0.068149  0.085288  0  3.861753  0
C  C65  1  0.44390307  0.78971181  0.71061720  1  0  -0.068231  0.085074  0  3.861984  0
C  C66  1  0.94389315  0.28970521  0.78938259  1  0  -0.068131  0.085255  0  3.86172  0
C  C67  1  0.55610957  0.21028905  0.28938601  1  0  -0.068126  0.085202  0  3.861687  0
C  C68  1  0.07576123  0.55817859  0.18924814  1  0  -0.253748  -0.40145  0  3.948813  0
C  C69  1  0.42423247  0.94182238  0.68924796  1  0  -0.253745  -0.40142  0  3.948759  0
C  C70  1  0.92424245  0.44182448  0.81075286  1  0  -0.253855  -0.401481  0  3.948818  0
C  C71  1  0.57577788  0.05816719  0.31075489  1  0  -0.253925  -0.401539  0  3.948981  0
I  I72  1  0.15986607  0.31795121  0.95308191  1  0  -0.159749  -0.257962  0  2.220165  0
I  I73  1  0.34013250  0.18205314  0.45308142  1  0  -0.159721  -0.257939  0  2.220225  0
I  I74  1  0.84013417  0.68204960  0.04691799  1  0  -0.159723  -0.257921  0  2.220166  0
I  I75  1  0.65987365  0.81794995  0.54691702  1  0  -0.159733  -0.257946  0  2.220214  0
N  N76  1  0.58508770  0.26888639  0.06702126  1  0  -0.356357  -0.173477  0  3.631371  0
N  N77  1  0.91491636  0.23111540  0.56701979  1  0  -0.356328  -0.173428  0  3.631299  0
N  N78  1  0.41491445  0.73111893  0.93297827  1  0  -0.356386  -0.17352  0  3.631375  0
N  N79  1  0.08508283  0.76888879  0.43297828  1  0  -0.356288  -0.173309  0  3.631371  0
O  O80  1  0.22258237  0.82437816  0.17596689  1  0  -0.162162  -0.227443  0  2.518528  0
O  O81  1  0.27743634  0.67562542  0.67596573  1  0  -0.162105  -0.22741  0  2.51847  0
O  O82  1  0.77740986  0.17562713  0.82403118  1  0  -0.162146  -0.227454  0  2.518426  0
O  O83  1  0.72258632  0.32436984  0.32403564  1  0  -0.162115  -0.227463  0  2.518475  0
O  O84  1  0.00369798  0.00435961  0.21603667  1  0  -0.274707  -0.471151  0  2.172462  0
O  O85  1  0.49626256  0.49564337  0.71603498  1  0  -0.274575  -0.470927  0  2.173408  0
O  O86  1  0.99626915  0.99563317  0.78396066  1  0  -0.274645  -0.471035  0  2.172966  0
O  O87  1  0.50372384  0.50435400  0.28396603  1  0  -0.274691  -0.471078  0  2.172921  0
