# generated using pymatgen
data_NiH29C32N8O5
_symmetry_space_group_name_H-M   'P 1'
_cell_length_a   8.71205859
_cell_length_b   15.15922955
_cell_length_c   15.66637017
_cell_angle_alpha   118.93094161
_cell_angle_beta   103.99720441
_cell_angle_gamma   90.00423595
_symmetry_Int_Tables_number   1
_chemical_formula_structural   NiH29C32N8O5
_chemical_formula_sum   'Ni2 H58 C64 N16 O10'
_cell_volume   1740.27295040
_cell_formula_units_Z   2
loop_
 _symmetry_equiv_pos_site_id
 _symmetry_equiv_pos_as_xyz
  1  'x, y, z'
loop_
 _atom_site_type_symbol
 _atom_site_label
 _atom_site_symmetry_multiplicity
 _atom_site_fract_x
 _atom_site_fract_y
 _atom_site_fract_z
 _atom_site_occupancy
 _atom_site_pbe_bader_charge
 _atom_site_pbe_bader_spin_density
 _atom_site_pbe_cm5_charge
 _atom_site_pbe_ddec_charge
 _atom_site_pbe_ddec_spin_density
 _atom_site_pbe_ddec_sum_bond_order
 _atom_site_pbe_magmom
Ni  Ni0  1  0.49636961  0.33320373  0.57691012  1  1.133364  1.541607  0.648416  0.683663  1.760294  2.55873  1.525
Ni  Ni1  1  0.50380668  0.75608798  0.42315127  1  1.136874  1.541592  0.648408  0.683279  1.760546  2.558323  1.525
H  H2  1  0.64841046  0.43611337  0.47714118  1  0.185416  0.000933  0.120074  0.130559  0.00026  1.037028  0.001
H  H3  1  0.59198114  0.35142561  0.27093879  1  0.126246  0.000987  0.123351  0.127387  0.000453  1.020205  0.001
H  H4  1  0.31709779  0.17099045  0.33646590  1  0.131924  0.000685  0.132141  0.099289  0.00011  1.034093  0.001
H  H5  1  0.77260563  0.23114029  0.45635533  1  0.093978  0.000943  0.115025  0.110404  0.000309  1.017874  0.001
H  H6  1  0.97798881  0.11982576  0.51957826  1  0.182092  0.000681  0.118451  0.125136  0.000269  1.073158  0.0
H  H7  1  0.63465751  0.21296735  0.68736152  1  0.159472  0.000594  0.136613  0.10832  6.5e-05  1.023215  0.001
H  H8  1  0.44299842  0.56480540  0.64372356  1  0.164925  0.000478  0.140269  0.111436  -2.8e-05  0.991063  0.0
H  H9  1  0.97857616  0.49370042  0.65591854  1  0.156946  0.001248  0.125158  0.134371  0.000712  1.027969  0.001
H  H10  1  0.12397520  0.31999252  0.58282097  1  0.142635  0.000729  0.116511  0.108921  0.000213  1.031878  0.001
H  H11  1  0.30618131  0.04258601  0.17964301  1  0.051296  2e-06  0.107458  0.108454  -1.5e-05  1.010415  0.0
H  H12  1  0.17232541  0.93094456  0.99797688  1  0.098629  2e-06  0.107942  0.118093  2e-06  0.996126  0.0
H  H13  1  0.28568183  0.16958263  0.93921161  1  0.08316  3e-05  0.110244  0.12247  1.7e-05  0.988323  0.0
H  H14  1  0.41231518  0.28320064  0.12142707  1  0.076447  5.8e-05  0.113552  0.122136  2.9e-05  0.98426  0.0
H  H15  1  0.41093967  0.90064187  0.86203490  1  0.08762  -1.1e-05  0.099829  0.108259  -1.2e-05  1.039041  0.0
H  H16  1  0.44114180  0.71784953  0.77946081  1  0.067652  -5e-06  0.107384  0.106079  -1e-05  1.032948  0.0
H  H17  1  0.92970415  0.64063146  0.64929173  1  0.140701  0.000132  0.110054  0.127203  9.1e-05  1.033362  0.0
H  H18  1  0.90232006  0.82358606  0.73524672  1  0.055761  8.1e-05  0.101556  0.103686  6.4e-05  1.038979  0.0
H  H19  1  0.11759766  0.91299694  0.65590142  1  0.086519  5.9e-05  0.102835  0.107905  4.1e-05  1.023958  0.0
H  H20  1  0.98051383  0.98709328  0.55420702  1  0.103714  7.4e-05  0.106742  0.113684  3.9e-05  1.033408  0.0
H  H21  1  0.83773755  0.21229474  0.81220079  1  0.062573  4.4e-05  0.110193  0.118245  1.7e-05  0.991759  0.0
H  H22  1  0.96716060  0.13377765  0.91200009  1  0.080179  -7e-06  0.099359  0.104264  -8e-06  1.036014  0.0
H  H23  1  0.92838251  0.50146086  0.83811574  1  0.023357  5e-06  0.101066  0.114623  -0.000146  0.969183  0.0
H  H24  1  0.87740864  0.59743448  0.80690204  1  0.021136  0.001773  0.08815  0.09492  0.000847  1.007075  0.001
H  H25  1  0.87895533  0.64871486  0.98776281  1  0.006017  0.000549  0.084888  0.075365  0.000199  1.014849  0.0
H  H26  1  0.72819941  0.54514572  0.93886248  1  0.039769  0.000493  0.092369  0.092063  0.000286  0.978694  0.0
H  H27  1  0.69192112  0.72111631  0.89439440  1  -0.018515  2.4e-05  0.076642  0.061436  -0.0  0.997786  0.0
H  H28  1  0.54471202  0.61686036  0.84926800  1  0.025353  -3.7e-05  0.085627  0.075344  -0.000116  1.014568  0.0
H  H29  1  0.64183523  0.80389491  0.05366370  1  0.0348  -3e-06  0.076366  0.067367  -4e-06  1.025765  0.0
H  H30  1  0.63868347  0.69183817  0.06068335  1  0.020314  2.5e-05  0.088883  0.083125  -0.0  0.980476  0.0
H  H31  1  0.35166610  0.95888214  0.52287700  1  0.181492  0.00093  0.120093  0.130421  0.000261  1.036459  0.001
H  H32  1  0.40793338  0.08030118  0.72905127  1  0.133113  0.000993  0.123407  0.127496  0.000454  1.020422  0.001
H  H33  1  0.68269017  0.83431236  0.66357008  1  0.142364  0.000684  0.132062  0.099263  0.00011  1.034258  0.001
H  H34  1  0.22784028  0.77465586  0.54370371  1  0.104973  0.000944  0.114931  0.110079  0.00031  1.018303  0.001
H  H35  1  0.02206104  0.60033945  0.48055965  1  0.174467  0.000684  0.118428  0.125161  0.000268  1.072941  0.0
H  H36  1  0.36500443  0.52528916  0.31247945  1  0.168251  0.000597  0.136697  0.108535  6.6e-05  1.023181  0.001
H  H37  1  0.55743467  0.92101066  0.35657294  1  0.166332  0.00048  0.140311  0.111387  -2.7e-05  0.990998  0.0
H  H38  1  0.02146208  0.83723307  0.34379112  1  0.159512  0.001243  0.124989  0.134309  0.000712  1.028353  0.001
H  H39  1  0.87604488  0.73661409  0.41685268  1  0.138625  0.000728  0.116655  0.108943  0.000212  1.032205  0.001
H  H40  1  0.69415727  0.86279027  0.82038850  1  0.055586  1e-06  0.10745  0.108592  -1.5e-05  1.010292  0.0
H  H41  1  0.82793482  0.93286367  0.00208830  1  0.088574  2e-06  0.108031  0.11814  2e-06  0.995894  0.0
H  H42  1  0.71366696  0.23011008  0.06083560  1  0.082068  3e-05  0.11014  0.122559  1.7e-05  0.987698  0.0
H  H43  1  0.58701377  0.16147328  0.87861827  1  0.076707  5.8e-05  0.113379  0.121664  2.9e-05  0.984674  0.0
H  H44  1  0.58902077  0.03858990  0.13828210  1  0.090773  -1.1e-05  0.099774  0.108113  -1.2e-05  1.038599  0.0
H  H45  1  0.55897787  0.93831121  0.22083427  1  0.05593  -5e-06  0.107198  0.10574  -1.1e-05  1.033145  0.0
H  H46  1  0.07048612  0.99089875  0.35048005  1  0.136511  0.000132  0.110289  0.127527  9.1e-05  1.033241  0.0
H  H47  1  0.09775986  0.08793787  0.26451584  1  0.07321  8e-05  0.101804  0.103699  6.3e-05  1.038641  0.0
H  H48  1  0.88242148  0.25692333  0.34417156  1  0.072355  6e-05  0.103111  0.108089  4.1e-05  1.024358  0.0
H  H49  1  0.01940559  0.43274009  0.44583301  1  0.141296  7.5e-05  0.106741  0.11345  3.9e-05  1.033887  0.0
H  H50  1  0.16134352  0.40012474  0.18762633  1  0.057486  4.5e-05  0.110688  0.118671  1.7e-05  0.991506  0.0
H  H51  1  0.03215499  0.22178405  0.08788945  1  0.035166  -7e-06  0.099245  0.104276  -8e-06  1.03571  0.0
H  H52  1  0.07184046  0.66315265  0.16180834  1  0.023698  6e-06  0.100932  0.114374  -0.000145  0.969163  0.0
H  H53  1  0.12291078  0.79037338  0.19312323  1  0.030751  0.001753  0.087915  0.094719  0.000845  1.006883  0.001
H  H54  1  0.12115884  0.66097440  0.01220294  1  0.004085  0.000546  0.085112  0.075584  0.000199  1.014768  0.0
H  H55  1  0.27176627  0.60606636  0.06090761  1  0.034543  0.000497  0.092409  0.091942  0.000285  0.978664  0.0
H  H56  1  0.30865119  0.82654282  0.10554840  1  -0.013151  2.4e-05  0.076856  0.062014  -0.0  0.997474  0.0
H  H57  1  0.45554469  0.76726507  0.15066211  1  0.018897  -3.7e-05  0.085379  0.075174  -0.000116  1.014544  0.0
H  H58  1  0.35783303  0.74941723  0.94591323  1  0.011256  -3e-06  0.076193  0.067314  -4e-06  1.026694  0.0
H  H59  1  0.36235690  0.63069157  0.93960391  1  0.049081  2.5e-05  0.089101  0.083337  -0.0  0.980377  0.0
C  C60  1  0.56964305  0.36809968  0.41655912  1  0.343299  -0.000266  0.001255  -0.028422  -0.000708  3.965175  0.0
C  C61  1  0.54196194  0.32636185  0.31372250  1  0.336688  0.004406  -0.003215  -0.109984  0.002556  3.922158  0.003
C  C62  1  0.39984959  0.23058619  0.34650047  1  0.961156  -0.006508  0.14005  0.096237  -0.007607  3.884725  -0.004
C  C63  1  0.77401592  0.20988984  0.51334680  1  0.371167  -0.000621  -0.00544  -0.032938  -0.001156  3.998262  0.0
C  C64  1  0.87501526  0.15389770  0.54249655  1  0.279792  0.002721  -0.007538  -0.113944  0.001524  3.911877  0.002
C  C65  1  0.70046948  0.20387759  0.63383870  1  0.974104  -0.003705  0.141751  0.098823  -0.004491  3.882887  -0.002
C  C66  1  0.33835687  0.52166806  0.63811022  1  0.932807  -0.005698  0.142266  0.092305  -0.006931  3.897006  -0.004
C  C67  1  0.09572110  0.48285896  0.64299334  1  0.256596  0.003768  0.002705  -0.104235  0.002102  3.884519  0.003
C  C68  1  0.16921611  0.39720557  0.60665565  1  0.403046  0.000288  0.002572  -0.017381  -4.7e-05  3.983629  0.001
C  C69  1  0.69794062  0.46757249  0.73574285  1  1.533472  -0.003918  0.187326  0.593114  -0.005634  4.160273  -0.006
C  C70  1  0.36566526  0.17173684  0.16392827  1  0.303568  0.000757  0.08733  0.149408  0.000428  4.042316  0.001
C  C71  1  0.29952414  0.07164330  0.12759290  1  -0.023793  -0.000568  -0.092322  -0.159825  -0.000618  4.020922  0.0
C  C72  1  0.22467583  0.00824021  0.02489761  1  0.018858  0.000159  -0.093512  -0.160648  6.4e-05  3.987032  0.0
C  C73  1  0.21629531  0.04269182  0.95531295  1  0.332546  -0.000531  0.093694  0.178079  -0.000602  4.039824  0.0
C  C74  1  0.28862415  0.14192359  0.99200648  1  -0.060815  0.000178  -0.093822  -0.163715  7.2e-05  4.004344  0.0
C  C75  1  0.36100707  0.20578760  0.09479606  1  -0.008041  -6.1e-05  -0.088822  -0.152266  -0.000148  4.010628  0.0
C  C76  1  0.15421112  0.87393497  0.80459778  1  0.30518  -0.000428  0.086375  0.164196  -0.000496  4.060118  0.0
C  C77  1  0.30598547  0.84338851  0.81564824  1  -0.010699  0.000141  -0.095528  -0.158609  4.6e-05  3.999174  0.0
C  C78  1  0.32277693  0.74069488  0.76873065  1  -0.027682  -0.000475  -0.08954  -0.158445  -0.000516  4.013737  0.0
C  C79  1  0.18760044  0.66710425  0.70995858  1  0.324907  0.000678  0.093878  0.156279  0.000402  4.029383  0.001
C  C80  1  0.03541916  0.69684677  0.69797731  1  -0.081044  -3e-05  -0.08756  -0.150483  -8.6e-05  3.973842  0.0
C  C81  1  0.01992269  0.79977856  0.74528543  1  0.052296  0.000153  -0.091295  -0.148641  7.3e-05  3.987704  0.0
C  C82  1  0.05502868  0.01938446  0.79207380  1  0.297373  -0.000141  0.087375  0.16599  -0.000171  4.04763  0.0
C  C83  1  0.05530074  0.97806009  0.69026177  1  -0.006912  0.00018  -0.092846  -0.158033  8e-05  3.988599  0.0
C  C84  1  0.97776989  0.01993020  0.63272455  1  -0.0139  7.7e-05  -0.084104  -0.130625  -2.7e-05  3.97046  0.0
C  C85  1  0.90048669  0.10491208  0.67643795  1  0.276193  0.000985  0.090786  0.16189  0.000609  4.011953  0.001
C  C86  1  0.89752584  0.14592307  0.77744239  1  0.031659  -0.00013  -0.092679  -0.158543  -0.000158  4.008794  0.0
C  C87  1  0.97214012  0.10254245  0.83404525  1  -0.00456  0.00012  -0.100961  -0.169388  5.6e-05  4.034779  0.0
C  C88  1  0.83065372  0.54415731  0.82645914  1  -0.013138  0.00575  -0.167612  -0.290231  0.003831  3.958004  0.004
C  C89  1  0.77599094  0.60097619  0.92272004  1  -0.006993  0.001428  -0.167232  -0.129695  0.000898  3.97028  0.001
C  C90  1  0.64728964  0.66678421  0.91376515  1  -0.028362  -3.7e-05  -0.16811  -0.136643  -0.000116  3.930574  0.0
C  C91  1  0.59107267  0.72293455  0.01032336  1  -0.015223  1.5e-05  -0.16868  -0.139568  7e-06  3.926045  0.0
C  C92  1  0.43039171  0.95140783  0.58344138  1  0.420998  -0.000321  0.000751  -0.028811  -0.0007  3.965473  0.0
C  C93  1  0.45795166  0.01246705  0.68627840  1  0.254649  0.004478  -0.002788  -0.109618  0.002558  3.921557  0.003
C  C94  1  0.60003049  0.88391677  0.65355010  1  0.962664  -0.006481  0.139612  0.095818  -0.007604  3.884822  -0.004
C  C95  1  0.22618430  0.69640644  0.48667039  1  0.403602  -0.000686  -0.005106  -0.032388  -0.001178  3.998187  0.0
C  C96  1  0.12498603  0.61135511  0.45752740  1  0.249626  0.002742  -0.007578  -0.114302  0.00152  3.912464  0.002
C  C97  1  0.29939224  0.56982762  0.36607794  1  0.9753  -0.00374  0.141513  0.098037  -0.004468  3.882917  -0.002
C  C98  1  0.66195305  0.88335708  0.36202950  1  0.935523  -0.005695  0.142755  0.093255  -0.006938  3.897147  -0.004
C  C99  1  0.90439083  0.83943398  0.35683839  1  0.252957  0.003771  0.002671  -0.104145  0.002103  3.883754  0.003
C  C100  1  0.83089166  0.79012387  0.39319007  1  0.410174  0.000316  0.003274  -0.016534  -4.1e-05  3.984795  0.001
C  C101  1  0.30237632  0.73158965  0.26420927  1  1.530541  -0.003894  0.187573  0.593511  -0.00563  4.158863  -0.006
C  C102  1  0.63406024  0.00757159  0.83610056  1  0.27199  0.000766  0.087807  0.149321  0.000428  4.042558  0.001
C  C103  1  0.70046296  0.94385921  0.87244024  1  -0.061392  -0.000569  -0.09267  -0.160499  -0.000619  4.02101  0.0
C  C104  1  0.77530201  0.98317196  0.97514277  1  0.04207  0.000159  -0.093479  -0.160473  6.4e-05  3.986301  0.0
C  C105  1  0.78343114  0.08718463  0.04471405  1  0.347936  -0.000529  0.093293  0.17785  -0.000602  4.040323  0.0
C  C106  1  0.71084893  0.14967141  0.00802664  1  -0.02109  0.000179  -0.093491  -0.164167  7.1e-05  4.002997  0.0
C  C107  1  0.63846826  0.11071694  0.90523144  1  0.016336  -6.5e-05  -0.088926  -0.151358  -0.000146  4.010059  0.0
C  C108  1  0.84576848  0.06918734  0.19548391  1  0.285561  -0.000428  0.086388  0.163525  -0.000497  4.060241  0.0
C  C109  1  0.69402949  0.02765439  0.18457678  1  0.021844  0.000142  -0.095359  -0.158332  4.6e-05  3.998131  0.0
C  C110  1  0.67732787  0.97185754  0.23149436  1  -0.019205  -0.000475  -0.089421  -0.158224  -0.000517  4.014667  0.0
C  C111  1  0.81258755  0.95692335  0.29009805  1  0.309293  0.000685  0.093859  0.156743  0.000401  4.030344  0.001
C  C112  1  0.96475158  0.99854142  0.30191160  1  -0.033856  -3e-05  -0.087688  -0.151159  -8.6e-05  3.974803  0.0
C  C113  1  0.98015066  0.05420041  0.25461737  1  -0.016671  0.000155  -0.091215  -0.147545  7.3e-05  3.987902  0.0
C  C114  1  0.94465045  0.22720264  0.20792329  1  0.248758  -0.000138  0.087335  0.164873  -0.000166  4.048506  0.0
C  C115  1  0.94461262  0.28765135  0.30978549  1  0.060935  0.000177  -0.093183  -0.157673  7.9e-05  3.989133  0.0
C  C116  1  0.02197911  0.38710234  0.36727649  1  -0.04924  8.2e-05  -0.084605  -0.130966  -2.4e-05  3.970908  0.0
C  C117  1  0.09904584  0.42841966  0.32351115  1  0.321679  0.000981  0.090941  0.161917  0.00061  4.012526  0.001
C  C118  1  0.10179032  0.36846924  0.22245645  1  -0.015434  -0.000127  -0.093207  -0.159631  -0.000154  4.010219  0.0
C  C119  1  0.02723598  0.26847495  0.16586736  1  0.029667  0.000118  -0.100864  -0.168794  5.5e-05  4.034672  0.0
C  C120  1  0.16960835  0.71751851  0.17350955  1  -0.012769  0.005737  -0.167329  -0.289686  0.003836  3.956096  0.004
C  C121  1  0.22412934  0.67811278  0.07718926  1  0.004062  0.00143  -0.167602  -0.130183  0.000897  3.969234  0.001
C  C122  1  0.35303470  0.75278022  0.08616393  1  -0.026079  -3.6e-05  -0.168168  -0.136964  -0.000115  3.930461  0.0
C  C123  1  0.40926952  0.71227580  0.98962015  1  -0.069205  1.5e-05  -0.168899  -0.139572  7e-06  3.926878  0.0
N  N124  1  0.48019934  0.30775809  0.43556944  1  -1.18799  0.071301  -0.348669  -0.256151  0.041274  3.627096  0.064
N  N125  1  0.43388112  0.23833054  0.26914864  1  -1.254936  0.001459  -0.22765  0.000768  0.000344  3.812583  0.001
N  N126  1  0.66641559  0.24044320  0.57078679  1  -1.174378  0.063513  -0.353917  -0.262638  0.037264  3.628235  0.056
N  N127  1  0.82717320  0.15072695  0.61948555  1  -1.265443  0.001942  -0.225247  0.014905  0.000758  3.798498  0.002
N  N128  1  0.31990265  0.42237992  0.60399425  1  -1.171386  0.058239  -0.346157  -0.26125  0.034294  3.61788  0.052
N  N129  1  0.20516186  0.56235403  0.66381906  1  -1.271463  0.001013  -0.225821  0.006979  0.000242  3.805917  0.001
N  N130  1  0.13757472  0.97897382  0.85176575  1  -1.200546  -0.000106  -0.258862  -0.159648  -7.9e-05  3.692728  0.0
N  N131  1  0.29483077  0.16266382  0.56259849  1  0.793114  -0.001367  0.096947  0.712235  -0.002023  4.413916  -0.002
N  N132  1  0.51981755  0.87206091  0.56446713  1  -1.196473  0.071284  -0.347799  -0.255334  0.041286  3.626391  0.064
N  N133  1  0.56593216  0.96898226  0.73087750  1  -1.260553  0.001454  -0.227836  0.000807  0.000345  3.812819  0.001
N  N134  1  0.33369584  0.66943030  0.42917267  1  -1.183111  0.063521  -0.353772  -0.261771  0.037234  3.628322  0.056
N  N135  1  0.17256504  0.53114589  0.38045634  1  -1.273527  0.001952  -0.225268  0.01521  0.000759  3.797567  0.002
N  N136  1  0.68032610  0.81808689  0.39602639  1  -1.167973  0.058142  -0.347368  -0.262249  0.034258  3.619671  0.052
N  N137  1  0.79507068  0.89825194  0.33619716  1  -1.265103  0.001007  -0.225789  0.00584  0.000241  3.804992  0.001
N  N138  1  0.86224480  0.12705952  0.14827058  1  -1.219325  -0.000107  -0.258474  -0.158683  -7.8e-05  3.692202  0.0
N  N139  1  0.70530492  0.60005590  0.43759870  1  0.819535  -0.0014  0.09745  0.712264  -0.002048  4.413292  -0.002
O  O140  1  0.60618543  0.41006316  0.74548511  1  -1.139289  0.074943  -0.320582  -0.53808  0.041902  2.156639  0.067
O  O141  1  0.68203028  0.46121382  0.64905877  1  -1.146225  0.100219  -0.325972  -0.551615  0.055781  2.177783  0.09
O  O142  1  0.32188366  0.20290695  0.51001916  1  -0.583455  0.068273  -0.203128  -0.46658  0.039098  2.115016  0.064
O  O143  1  0.35299262  0.20831882  0.65684331  1  -0.484309  -0.001813  -0.185516  -0.436999  -0.002283  1.910568  -0.001
O  O144  1  0.20756320  0.07747550  0.51514432  1  -0.549099  0.011521  -0.189282  -0.450267  0.00612  1.99573  0.01
O  O145  1  0.39409569  0.66431797  0.25441014  1  -1.139782  0.074952  -0.32038  -0.538388  0.041842  2.154547  0.067
O  O146  1  0.31823245  0.81187622  0.35091803  1  -1.154743  0.100237  -0.326464  -0.551904  0.055773  2.178403  0.09
O  O147  1  0.67816606  0.69282411  0.49029822  1  -0.565618  0.068403  -0.203234  -0.466411  0.039161  2.114646  0.064
O  O148  1  0.64721203  0.55161718  0.34335001  1  -0.522788  -0.001796  -0.185186  -0.436496  -0.00227  1.910466  -0.001
O  O149  1  0.79257912  0.56221985  0.48493405  1  -0.554205  0.011487  -0.189644  -0.45048  0.0061  1.996316  0.01
