# generated using pymatgen
data_CdH7C10S2N5
_symmetry_space_group_name_H-M   'P 1'
_cell_length_a   8.47805106
_cell_length_b   9.26222894
_cell_length_c   16.26152123
_cell_angle_alpha   89.99999157
_cell_angle_beta   97.54517234
_cell_angle_gamma   90.00032211
_symmetry_Int_Tables_number   1
_chemical_formula_structural   CdH7C10S2N5
_chemical_formula_sum   'Cd4 H28 C40 S8 N20'
_cell_volume   1265.89026724
_cell_formula_units_Z   4
loop_
 _symmetry_equiv_pos_site_id
 _symmetry_equiv_pos_as_xyz
  1  'x, y, z'
loop_
 _atom_site_type_symbol
 _atom_site_label
 _atom_site_symmetry_multiplicity
 _atom_site_fract_x
 _atom_site_fract_y
 _atom_site_fract_z
 _atom_site_occupancy
 _atom_site_hle17_bader_spin_density
 _atom_site_hle17_ddec_charge
 _atom_site_hle17_ddec_spin_density
 _atom_site_hle17_ddec_sum_bond_order
 _atom_site_hle17_magmom
 _atom_site_hse06_10hf_bader_spin_density
 _atom_site_hse06_10hf_ddec_charge
 _atom_site_hse06_10hf_ddec_spin_density
 _atom_site_hse06_10hf_ddec_sum_bond_order
 _atom_site_hse06_10hf_magmom
 _atom_site_hse06_bader_spin_density
 _atom_site_hse06_ddec_charge
 _atom_site_hse06_ddec_spin_density
 _atom_site_hse06_ddec_sum_bond_order
 _atom_site_hse06_magmom
 _atom_site_pbe_bader_spin_density
 _atom_site_pbe_cm5_charge
 _atom_site_pbe_ddec_charge
 _atom_site_pbe_ddec_spin_density
 _atom_site_pbe_ddec_sum_bond_order
 _atom_site_pbe_magmom
Cd  Cd0  1  0.98987087  0.19981936  0.63042702  1  0  0.93028  0  2.006823  0  0  0.75396  0  2.468568  0  0  0.797493  0  2.434657  0  0  0.721911  0.723699  0  2.491302  0
Cd  Cd1  1  0.01012796  0.69981420  0.86957609  1  0  0.930299  0  2.006881  0  0  0.753992  0  2.468613  0  0  0.797521  0  2.434702  0  0  0.721924  0.723733  0  2.491351  0
Cd  Cd2  1  0.01013013  0.80017779  0.36957224  1  0  0.93033  0  2.006763  0  0  0.753993  0  2.468544  0  0  0.797526  0  2.434632  0  0  0.72193  0.723732  0  2.491281  0
Cd  Cd3  1  0.98987058  0.30018727  0.13042482  1  0  0.930293  0  2.006888  0  0  0.753978  0  2.468625  0  0  0.797509  0  2.434711  0  0  0.72191  0.723718  0  2.491364  0
H  H4  1  0.44895948  0.89450388  0.80643635  1  0  0.113829  0  0.931606  0  0  0.128057  0  0.987775  0  0  0.130752  0  0.985109  0  0  0.126778  0.126084  0  0.989697  0
H  H5  1  0.55104093  0.39450248  0.69355763  1  0  0.113862  0  0.931568  0  0  0.12807  0  0.98775  0  0  0.130764  0  0.985083  0  0  0.126785  0.126097  0  0.989674  0
H  H6  1  0.55104152  0.10549759  0.19356291  1  0  0.113842  0  0.931583  0  0  0.128074  0  0.987749  0  0  0.130772  0  0.985074  0  0  0.12678  0.126099  0  0.989673  0
H  H7  1  0.44895771  0.60549791  0.30644083  1  0  0.113871  0  0.931562  0  0  0.128081  0  0.987744  0  0  0.130776  0  0.985072  0  0  0.126792  0.126109  0  0.989668  0
H  H8  1  0.27316693  0.33658374  0.79714025  1  0  0.100174  0  0.974234  0  0  0.107654  0  1.044098  0  0  0.109418  0  1.042808  0  0  0.114099  0.106381  0  1.044964  0
H  H9  1  0.72683523  0.83658442  0.70286065  1  0  0.100222  0  0.974183  0  0  0.107676  0  1.04408  0  0  0.109454  0  1.042749  0  0  0.114081  0.1064  0  1.044939  0
H  H10  1  0.72683164  0.66341557  0.20286006  1  0  0.10018  0  0.974227  0  0  0.107688  0  1.044054  0  0  0.109458  0  1.042748  0  0  0.114091  0.10641  0  1.044931  0
H  H11  1  0.27316928  0.16341489  0.29714012  1  0  0.100213  0  0.974202  0  0  0.107686  0  1.044087  0  0  0.109452  0  1.042792  0  0  0.114094  0.106415  0  1.044945  0
H  H12  1  0.47870267  0.40123175  0.90057152  1  0  0.104053  0  0.952954  0  0  0.115235  0  1.014377  0  0  0.1182  0  1.013625  0  0  0.103343  0.113071  0  1.01515  0
H  H13  1  0.52130354  0.90122925  0.59942784  1  0  0.104006  0  0.952884  0  0  0.115196  0  1.014311  0  0  0.118161  0  1.013557  0  0  0.103303  0.113031  0  1.015085  0
H  H14  1  0.52129714  0.59876864  0.09942765  1  0  0.103977  0  0.952924  0  0  0.115172  0  1.014343  0  0  0.118136  0  1.013593  0  0  0.103327  0.113007  0  1.015114  0
H  H15  1  0.47869869  0.09876682  0.40057029  1  0  0.104032  0  0.952959  0  0  0.115222  0  1.01437  0  0  0.118188  0  1.01362  0  0  0.103341  0.113053  0  1.015155  0
H  H16  1  0.68941991  0.45903165  0.01595633  1  0  0.064603  0  0.981596  0  0  0.071038  0  1.054639  0  0  0.07284  0  1.053153  0  0  0.102626  0.069682  0  1.055714  0
H  H17  1  0.31058523  0.95903015  0.48404475  1  0  0.064603  0  0.981632  0  0  0.071078  0  1.05462  0  0  0.072875  0  1.05315  0  0  0.102636  0.06969  0  1.055724  0
H  H18  1  0.31058110  0.54097090  0.98404232  1  0  0.064594  0  0.981622  0  0  0.071063  0  1.054626  0  0  0.072865  0  1.05314  0  0  0.102641  0.069704  0  1.055704  0
H  H19  1  0.68941456  0.04096592  0.51595504  1  0  0.064569  0  0.981598  0  0  0.07103  0  1.054614  0  0  0.072829  0  1.053139  0  0  0.102618  0.069673  0  1.05569  0
H  H20  1  0.83437500  0.03122247  0.03888627  1  0  0.078717  0  0.979408  0  0  0.080667  0  1.057038  0  0  0.08335  0  1.054504  0  0  0.103872  0.078668  0  1.058962  0
H  H21  1  0.16562394  0.53121915  0.46111254  1  0  0.078801  0  0.979295  0  0  0.080738  0  1.056931  0  0  0.083425  0  1.054393  0  0  0.10389  0.078738  0  1.058856  0
H  H22  1  0.16562347  0.96878116  0.96111649  1  0  0.078813  0  0.979319  0  0  0.080737  0  1.056982  0  0  0.083422  0  1.054443  0  0  0.103877  0.07874  0  1.058902  0
H  H23  1  0.83436975  0.46877800  0.53889045  1  0  0.078826  0  0.979326  0  0  0.080763  0  1.05693  0  0  0.083455  0  1.054398  0  0  0.103921  0.078763  0  1.058855  0
H  H24  1  0.62885865  0.95495738  0.92509570  1  0  0.106437  0  0.950891  0  0  0.121344  0  1.005248  0  0  0.124076  0  1.004925  0  0  0.101765  0.119382  0  1.005642  0
H  H25  1  0.37114319  0.45495617  0.57490208  1  0  0.106456  0  0.950898  0  0  0.121315  0  1.005315  0  0  0.124048  0  1.004991  0  0  0.101758  0.11936  0  1.00571  0
H  H26  1  0.37113855  0.04504193  0.07490942  1  0  0.106473  0  0.950931  0  0  0.121354  0  1.005311  0  0  0.124086  0  1.00499  0  0  0.101772  0.119398  0  1.005707  0
H  H27  1  0.62885417  0.54504314  0.42509874  1  0  0.106397  0  0.950978  0  0  0.121326  0  1.005313  0  0  0.124058  0  1.004989  0  0  0.101748  0.119364  0  1.005707  0
H  H28  1  0.20943925  0.93765489  0.69375971  1  0  0.294098  0  0.905588  0  0  0.267838  0  0.98184  0  0  0.275344  0  0.976247  0  0  0.320582  0.262534  0  0.98585  0
H  H29  1  0.79056009  0.43765360  0.80623787  1  0  0.294131  0  0.9055  0  0  0.267885  0  0.98175  0  0  0.27539  0  0.97616  0  0  0.320593  0.262583  0  0.985757  0
H  H30  1  0.79056536  0.06234766  0.30623861  1  0  0.294146  0  0.905459  0  0  0.267877  0  0.981743  0  0  0.275382  0  0.976153  0  0  0.320573  0.262573  0  0.985754  0
H  H31  1  0.20944209  0.56234463  0.19376149  1  0  0.29417  0  0.905527  0  0  0.267838  0  0.981864  0  0  0.275342  0  0.976275  0  0  0.320577  0.262536  0  0.985873  0
C  C32  1  0.38923437  0.99734399  0.79457583  1  0  0.035603  0  3.622108  0  0  -0.021745  0  3.889717  0  0  -0.012164  0  3.902162  0  0  0.034163  -0.027623  0  3.880881  0
C  C33  1  0.61076892  0.49734397  0.70542206  1  0  0.035541  0  3.62225  0  0  -0.021762  0  3.889857  0  0  -0.012176  0  3.902296  0  0  0.0342  -0.027642  0  3.881023  0
C  C34  1  0.61076775  0.00265532  0.20542537  1  0  0.035539  0  3.622177  0  0  -0.021808  0  3.889792  0  0  -0.012225  0  3.902236  0  0  0.034147  -0.027685  0  3.880955  0
C  C35  1  0.38923321  0.50265750  0.29457852  1  0  0.035591  0  3.621902  0  0  -0.021708  0  3.889483  0  0  -0.012126  0  3.901927  0  0  0.034222  -0.027584  0  3.880647  0
C  C36  1  0.41425523  0.13258028  0.83292089  1  0  -0.0778  0  3.836854  0  0  -0.062881  0  4.089395  0  0  -0.072603  0  4.114854  0  0  -0.029886  -0.056634  0  4.072042  0
C  C37  1  0.58574940  0.63257809  0.66707532  1  0  -0.077704  0  3.836872  0  0  -0.062828  0  4.089422  0  0  -0.072558  0  4.114898  0  0  -0.029931  -0.05658  0  4.072067  0
C  C38  1  0.58574331  0.86742011  0.16708003  1  0  -0.077695  0  3.836761  0  0  -0.06278  0  4.089309  0  0  -0.072502  0  4.114768  0  0  -0.029874  -0.05653  0  4.071955  0
C  C39  1  0.41425280  0.36742122  0.33292343  1  0  -0.077718  0  3.836806  0  0  -0.062845  0  4.08937  0  0  -0.072567  0  4.114831  0  0  -0.029902  -0.056602  0  4.072028  0
C  C40  1  0.29844986  0.22316078  0.78831677  1  0  0.027837  0  3.670879  0  0  -0.019643  0  3.94025  0  0  -0.011727  0  3.956299  0  0  0.026545  -0.024555  0  3.92907  0
C  C41  1  0.70155525  0.72315917  0.71168192  1  0  0.027616  0  3.671103  0  0  -0.019842  0  3.940465  0  0  -0.011919  0  3.956517  0  0  0.02648  -0.024746  0  3.929284  0
C  C42  1  0.70155109  0.77683961  0.21168372  1  0  0.027602  0  3.671032  0  0  -0.019913  0  3.940432  0  0  -0.011994  0  3.956483  0  0  0.026426  -0.024823  0  3.929247  0
C  C43  1  0.29844931  0.27683906  0.28831763  1  0  0.027753  0  3.670959  0  0  -0.019723  0  3.940319  0  0  -0.011806  0  3.956367  0  0  0.02656  -0.024629  0  3.92914  0
C  C44  1  0.53408493  0.17148590  0.90166377  1  0  0.125435  0  3.820665  0  0  0.13344  0  4.05414  0  0  0.141315  0  4.075392  0  0  0.011199  0.128461  0  4.039599  0
C  C45  1  0.46591873  0.67148204  0.59833296  1  0  0.125302  0  3.820652  0  0  0.133354  0  4.054046  0  0  0.141226  0  4.075299  0  0  0.011142  0.128365  0  4.039539  0
C  C46  1  0.46591361  0.82851233  0.09833714  1  0  0.125437  0  3.820683  0  0  0.133457  0  4.054134  0  0  0.141331  0  4.075388  0  0  0.011216  0.12847  0  4.039613  0
C  C47  1  0.53408343  0.32851403  0.40166701  1  0  0.125335  0  3.820594  0  0  0.133384  0  4.054037  0  0  0.141256  0  4.075289  0  0  0.011129  0.128397  0  4.039531  0
C  C48  1  0.55359008  0.31490391  0.92968284  1  0  -0.171259  0  3.712385  0  0  -0.189727  0  3.962498  0  0  -0.198154  0  3.982696  0  0  -0.091586  -0.18441  0  3.949057  0
C  C49  1  0.44641325  0.81489995  0.57031507  1  0  -0.17124  0  3.712424  0  0  -0.189728  0  3.962536  0  0  -0.198153  0  3.982738  0  0  -0.091566  -0.184406  0  3.949083  0
C  C50  1  0.44640970  0.68509756  0.07031694  1  0  -0.171167  0  3.712355  0  0  -0.189662  0  3.962509  0  0  -0.198087  0  3.982706  0  0  -0.091591  -0.184341  0  3.949065  0
C  C51  1  0.55358657  0.18509720  0.42968348  1  0  -0.171225  0  3.712417  0  0  -0.189702  0  3.962524  0  0  -0.198131  0  3.982726  0  0  -0.091596  -0.184385  0  3.949082  0
C  C52  1  0.67129568  0.34801394  0.99452362  1  0  0.131831  0  3.729614  0  0  0.101009  0  3.979816  0  0  0.109353  0  3.998109  0  0  0.036106  0.095663  0  3.967342  0
C  C53  1  0.32870784  0.84801264  0.50547493  1  0  0.131875  0  3.729553  0  0  0.101024  0  3.979724  0  0  0.109367  0  3.998011  0  0  0.036155  0.095707  0  3.967257  0
C  C54  1  0.32870532  0.65198969  0.00547565  1  0  0.131855  0  3.72961  0  0  0.101006  0  3.97981  0  0  0.10935  0  3.998103  0  0  0.03611  0.095668  0  3.967326  0
C  C55  1  0.67129313  0.15198451  0.49452495  1  0  0.131804  0  3.729539  0  0  0.100954  0  3.979755  0  0  0.109298  0  3.998042  0  0  0.036133  0.09561  0  3.967276  0
C  C56  1  0.75225533  0.10976167  0.00689183  1  0  0.131144  0  3.714887  0  0  0.100109  0  3.966835  0  0  0.108231  0  3.985055  0  0  0.038711  0.094893  0  3.954404  0
C  C57  1  0.24774651  0.60975877  0.49310658  1  0  0.13098  0  3.714881  0  0  0.099965  0  3.966802  0  0  0.10808  0  3.985034  0  0  0.038679  0.094751  0  3.954372  0
C  C58  1  0.24774435  0.89024088  0.99311041  1  0  0.131134  0  3.714817  0  0  0.100137  0  3.966711  0  0  0.10826  0  3.984929  0  0  0.038765  0.094922  0  3.95428  0
C  C59  1  0.75225078  0.39023946  0.50689608  1  0  0.130994  0  3.714888  0  0  0.100009  0  3.966811  0  0  0.108117  0  3.98504  0  0  0.038683  0.094796  0  3.954376  0
C  C60  1  0.63694723  0.06816977  0.94289320  1  0  -0.156646  0  3.70164  0  0  -0.17356  0  3.946953  0  0  -0.182619  0  3.968419  0  0  -0.086842  -0.167832  0  3.932688  0
C  C61  1  0.36305576  0.56816648  0.55710411  1  0  -0.156482  0  3.701476  0  0  -0.173378  0  3.946766  0  0  -0.182434  0  3.968232  0  0  -0.086732  -0.167659  0  3.932516  0
C  C62  1  0.36305005  0.93183062  0.05710946  1  0  -0.156728  0  3.701789  0  0  -0.173635  0  3.947091  0  0  -0.182696  0  3.96856  0  0  -0.086862  -0.167915  0  3.932836  0
C  C63  1  0.63694635  0.43183175  0.44289709  1  0  -0.156524  0  3.701457  0  0  -0.1735  0  3.946786  0  0  -0.182554  0  3.968253  0  0  -0.086759  -0.167773  0  3.932526  0
C  C64  1  0.93153722  0.86852327  0.56108284  1  0  0.309981  0  3.993371  0  0  0.2911  0  4.294639  0  0  0.312492  0  4.309226  0  0  0.147488  0.276567  0  4.284452  0
C  C65  1  0.06845940  0.36853015  0.93891208  1  0  0.310102  0  3.993721  0  0  0.291226  0  4.294973  0  0  0.312617  0  4.309553  0  0  0.147546  0.276696  0  4.284785  0
C  C66  1  0.06846139  0.13147604  0.43891624  1  0  0.310086  0  3.993631  0  0  0.2912  0  4.294883  0  0  0.312592  0  4.309464  0  0  0.14756  0.276672  0  4.284704  0
C  C67  1  0.93154166  0.63147347  0.06108534  1  0  0.309988  0  3.99358  0  0  0.291103  0  4.294836  0  0  0.312493  0  4.30942  0  0  0.147483  0.276572  0  4.28465  0
C  C68  1  0.11150532  0.52754169  0.70314733  1  0  0.318826  0  3.976529  0  0  0.298645  0  4.279496  0  0  0.320324  0  4.293035  0  0  0.149634  0.283854  0  4.270105  0
C  C69  1  0.88850066  0.02753334  0.79685883  1  0  0.318921  0  3.976352  0  0  0.298736  0  4.279317  0  0  0.320413  0  4.292859  0  0  0.149646  0.283944  0  4.269926  0
C  C70  1  0.88848611  0.47245330  0.29685241  1  0  0.318745  0  3.976479  0  0  0.298556  0  4.279467  0  0  0.320233  0  4.293011  0  0  0.149565  0.283766  0  4.270078  0
C  C71  1  0.11149910  0.97246921  0.20314156  1  0  0.318826  0  3.976215  0  0  0.298639  0  4.27919  0  0  0.320318  0  4.292728  0  0  0.149578  0.283845  0  4.269802  0
S  S72  1  0.82431174  0.76398445  0.49586578  1  0  -0.319256  0  2.17283  0  0  -0.290677  0  2.498485  0  0  -0.307746  0  2.494262  0  0  -0.131046  -0.278589  0  2.500959  0
S  S73  1  0.17569235  0.26398766  0.00413032  1  0  -0.319313  0  2.17263  0  0  -0.290733  0  2.49828  0  0  -0.30781  0  2.494069  0  0  -0.131051  -0.278651  0  2.500768  0
S  S74  1  0.17568925  0.23601917  0.50413348  1  0  -0.319326  0  2.172767  0  0  -0.290733  0  2.498391  0  0  -0.307802  0  2.494174  0  0  -0.131066  -0.278645  0  2.500867  0
S  S75  1  0.82430748  0.73601381  0.99586824  1  0  -0.31927  0  2.172636  0  0  -0.29069  0  2.498274  0  0  -0.307764  0  2.494061  0  0  -0.131054  -0.278604  0  2.500759  0
S  S76  1  0.22144163  0.64282415  0.76104766  1  0  -0.354386  0  2.154672  0  0  -0.325189  0  2.482604  0  0  -0.342659  0  2.477802  0  0  -0.153549  -0.312937  0  2.48566  0
S  S77  1  0.77856741  0.14281741  0.73895996  1  0  -0.354371  0  2.154891  0  0  -0.325171  0  2.482832  0  0  -0.342645  0  2.478032  0  0  -0.153531  -0.312924  0  2.485888  0
S  S78  1  0.77855102  0.35717084  0.23895157  1  0  -0.354369  0  2.154745  0  0  -0.325174  0  2.482711  0  0  -0.342645  0  2.47791  0  0  -0.153542  -0.312925  0  2.485768  0
S  S79  1  0.22143472  0.85718729  0.26104062  1  0  -0.354291  0  2.154845  0  0  -0.325087  0  2.482787  0  0  -0.342557  0  2.477987  0  0  -0.153474  -0.312836  0  2.485846  0
N  N80  1  0.21172144  0.14893653  0.72801303  1  0  -0.227163  0  3.171138  0  0  -0.170893  0  3.442567  0  0  -0.186362  0  3.463944  0  0  -0.247271  -0.16028  0  3.427736  0
N  N81  1  0.78828077  0.64893535  0.77198667  1  0  -0.227085  0  3.171232  0  0  -0.170783  0  3.442632  0  0  -0.186254  0  3.464015  0  0  -0.247169  -0.160171  0  3.427799  0
N  N82  1  0.78828072  0.85106494  0.27198694  1  0  -0.227032  0  3.171182  0  0  -0.170738  0  3.442593  0  0  -0.186208  0  3.463974  0  0  -0.247159  -0.160125  0  3.427764  0
N  N83  1  0.21172260  0.35106396  0.22801278  1  0  -0.227196  0  3.171256  0  0  -0.170903  0  3.442649  0  0  -0.186371  0  3.464027  0  0  -0.247277  -0.16029  0  3.427818  0
N  N84  1  0.26877775  0.01283445  0.73276908  1  0  -0.140623  0  3.531589  0  0  -0.077463  0  3.764919  0  0  -0.089845  0  3.785296  0  0  -0.272847  -0.069251  0  3.751072  0
N  N85  1  0.73122135  0.51283514  0.76722733  1  0  -0.140554  0  3.531631  0  0  -0.077449  0  3.764978  0  0  -0.089832  0  3.785356  0  0  -0.272847  -0.069237  0  3.751129  0
N  N86  1  0.73122445  0.98716486  0.26722967  1  0  -0.140617  0  3.531547  0  0  -0.077468  0  3.76488  0  0  -0.089852  0  3.785256  0  0  -0.272824  -0.069258  0  3.751037  0
N  N87  1  0.26877734  0.48716525  0.23276991  1  0  -0.140705  0  3.531489  0  0  -0.077514  0  3.764875  0  0  -0.089897  0  3.785253  0  0  -0.272884  -0.069301  0  3.751029  0
N  N88  1  0.76989788  0.24758167  0.03286406  1  0  -0.342651  0  3.28744  0  0  -0.258831  0  3.540266  0  0  -0.280449  0  3.561698  0  0  -0.339972  -0.244166  0  3.525304  0
N  N89  1  0.23010483  0.74757761  0.46713440  1  0  -0.342684  0  3.287386  0  0  -0.258859  0  3.540206  0  0  -0.280478  0  3.561637  0  0  -0.340042  -0.244191  0  3.525232  0
N  N90  1  0.23010307  0.75242196  0.96713643  1  0  -0.342718  0  3.287294  0  0  -0.258915  0  3.540133  0  0  -0.28053  0  3.561555  0  0  -0.340025  -0.244249  0  3.525173  0
N  N91  1  0.76989255  0.25241738  0.53286581  1  0  -0.342575  0  3.287544  0  0  -0.258751  0  3.540334  0  0  -0.280366  0  3.561767  0  0  -0.339987  -0.244085  0  3.525367  0
N  N92  1  0.00906151  0.94562007  0.60887551  1  0  -0.560311  0  2.865104  0  0  -0.509831  0  3.136907  0  0  -0.529428  0  3.144707  0  0  -0.396882  -0.496451  0  3.131514  0
N  N93  1  0.99093782  0.44561762  0.89112392  1  0  -0.560396  0  2.865669  0  0  -0.509921  0  3.137483  0  0  -0.529513  0  3.145277  0  0  -0.396932  -0.496541  0  3.13209  0
N  N94  1  0.99094184  0.05438248  0.39112456  1  0  -0.560382  0  2.86543  0  0  -0.5099  0  3.137258  0  0  -0.529497  0  3.145059  0  0  -0.396916  -0.496495  0  3.1318  0
N  N95  1  0.00906439  0.55438277  0.10887483  1  0  -0.560316  0  2.865511  0  0  -0.509809  0  3.137301  0  0  -0.529404  0  3.145102  0  0  -0.396855  -0.496423  0  3.13189  0
N  N96  1  0.03327125  0.44219055  0.66178371  1  0  -0.522776  0  2.848762  0  0  -0.469692  0  3.124496  0  0  -0.489466  0  3.13132  0  0  -0.388974  -0.456251  0  3.119832  0
N  N97  1  0.96673610  0.94218271  0.83822373  1  0  -0.522879  0  2.848381  0  0  -0.469776  0  3.1241  0  0  -0.48955  0  3.130925  0  0  -0.389  -0.456338  0  3.119436  0
N  N98  1  0.96672253  0.55780660  0.33821683  1  0  -0.522707  0  2.848562  0  0  -0.469616  0  3.124294  0  0  -0.489389  0  3.131119  0  0  -0.388924  -0.456177  0  3.119634  0
N  N99  1  0.03326249  0.05781984  0.16177596  1  0  -0.522841  0  2.848238  0  0  -0.469745  0  3.123966  0  0  -0.489518  0  3.130788  0  0  -0.388981  -0.456303  0  3.119301  0
