# generated using pymatgen
data_CdH12C10N5O6
_symmetry_space_group_name_H-M   'P 1'
_cell_length_a   7.60241944
_cell_length_b   7.32714762
_cell_length_c   26.21801353
_cell_angle_alpha   90.00042606
_cell_angle_beta   89.99955888
_cell_angle_gamma   109.25565944
_symmetry_Int_Tables_number   1
_chemical_formula_structural   CdH12C10N5O6
_chemical_formula_sum   'Cd4 H48 C40 N20 O24'
_cell_volume   1378.74679393
_cell_formula_units_Z   4
loop_
 _symmetry_equiv_pos_site_id
 _symmetry_equiv_pos_as_xyz
  1  'x, y, z'
loop_
 _atom_site_type_symbol
 _atom_site_label
 _atom_site_symmetry_multiplicity
 _atom_site_fract_x
 _atom_site_fract_y
 _atom_site_fract_z
 _atom_site_occupancy
 _atom_site_hle17_bader_spin_density
 _atom_site_hle17_ddec_charge
 _atom_site_hle17_ddec_spin_density
 _atom_site_hle17_ddec_sum_bond_order
 _atom_site_hle17_magmom
 _atom_site_hse06_10hf_bader_spin_density
 _atom_site_hse06_10hf_ddec_charge
 _atom_site_hse06_10hf_ddec_spin_density
 _atom_site_hse06_10hf_ddec_sum_bond_order
 _atom_site_hse06_10hf_magmom
 _atom_site_hse06_bader_spin_density
 _atom_site_hse06_ddec_charge
 _atom_site_hse06_ddec_spin_density
 _atom_site_hse06_ddec_sum_bond_order
 _atom_site_hse06_magmom
 _atom_site_pbe_bader_spin_density
 _atom_site_pbe_cm5_charge
 _atom_site_pbe_ddec_charge
 _atom_site_pbe_ddec_spin_density
 _atom_site_pbe_ddec_sum_bond_order
 _atom_site_pbe_magmom
Cd  Cd0  1  0.31093711  0.00629322  0.15084824  1  0  1.163065  0  1.68345  0  0  0.981357  0  2.132964  0  0  1.034267  0  2.080278  0  0  0.773686  0.943779  0  2.169055  0
Cd  Cd1  1  0.18905644  0.99370392  0.65084684  1  0  1.163198  0  1.683388  0  0  0.981476  0  2.132925  0  0  1.034383  0  2.080241  0  0  0.773703  0.943902  0  2.169017  0
Cd  Cd2  1  0.68906229  0.99370409  0.84915192  1  0  1.163118  0  1.683376  0  0  0.981361  0  2.132953  0  0  1.034273  0  2.080264  0  0  0.773693  0.94378  0  2.169047  0
Cd  Cd3  1  0.81094475  0.00629478  0.34915332  1  0  1.163182  0  1.683385  0  0  0.981452  0  2.132932  0  0  1.034359  0  2.080245  0  0  0.773713  0.943875  0  2.169024  0
H  H4  1  0.74968308  0.36031140  0.21618258  1  0  0.096704  0  0.941239  0  0  0.10266  0  1.007481  0  0  0.10643  0  1.003904  0  0  0.123895  0.099818  0  1.010336  0
H  H5  1  0.75031774  0.63968950  0.71618413  1  0  0.09667  0  0.94129  0  0  0.102662  0  1.007467  0  0  0.106433  0  1.003892  0  0  0.123904  0.09982  0  1.010322  0
H  H6  1  0.25031752  0.63969318  0.78381910  1  0  0.096701  0  0.941205  0  0  0.102663  0  1.007417  0  0  0.106433  0  1.003842  0  0  0.123897  0.09982  0  1.010272  0
H  H7  1  0.24969045  0.36031041  0.28381679  1  0  0.096582  0  0.94147  0  0  0.10264  0  1.00759  0  0  0.106413  0  1.004008  0  0  0.123894  0.099798  0  1.010446  0
H  H8  1  0.24276957  0.34685561  0.18055000  1  0  0.381013  0  0.94144  0  0  0.337962  0  1.025453  0  0  0.349102  0  1.009685  0  0  0.273513  0.330113  0  1.036534  0
H  H9  1  0.25721798  0.65313794  0.68054927  1  0  0.380983  0  0.941493  0  0  0.337935  0  1.025501  0  0  0.349077  0  1.009727  0  0  0.273462  0.330085  0  1.036583  0
H  H10  1  0.75723603  0.65314440  0.81945054  1  0  0.380932  0  0.941555  0  0  0.337868  0  1.025585  0  0  0.349009  0  1.009817  0  0  0.273476  0.330019  0  1.036666  0
H  H11  1  0.74277702  0.34685806  0.31944898  1  0  0.380986  0  0.941479  0  0  0.337938  0  1.025492  0  0  0.349079  0  1.009717  0  0  0.273456  0.330089  0  1.036573  0
H  H12  1  0.04217612  0.18804724  0.16818261  1  0  0.408225  0  0.900283  0  0  0.372997  0  0.971833  0  0  0.384749  0  0.954728  0  0  0.277478  0.364692  0  0.983896  0
H  H13  1  0.45781097  0.81194023  0.66818062  1  0  0.408125  0  0.900415  0  0  0.372983  0  0.971899  0  0  0.384736  0  0.954793  0  0  0.277413  0.364671  0  0.983971  0
H  H14  1  0.95783019  0.81195860  0.83181641  1  0  0.408231  0  0.900278  0  0  0.373009  0  0.971836  0  0  0.384762  0  0.954729  0  0  0.277481  0.364702  0  0.983901  0
H  H15  1  0.54218562  0.18805278  0.33181611  1  0  0.408098  0  0.900461  0  0  0.372978  0  0.971917  0  0  0.384739  0  0.954799  0  0  0.277439  0.364666  0  0.983989  0
H  H16  1  0.61470403  0.35549941  0.12929628  1  0  0.434358  0  0.865472  0  0  0.401733  0  0.931641  0  0  0.412553  0  0.91608  0  0  0.291533  0.394069  0  0.942611  0
H  H17  1  0.88529225  0.64450436  0.62929792  1  0  0.434348  0  0.865481  0  0  0.401725  0  0.931653  0  0  0.412545  0  0.916092  0  0  0.291518  0.394062  0  0.942623  0
H  H18  1  0.38529456  0.64449939  0.87070426  1  0  0.43435  0  0.86548  0  0  0.401724  0  0.931655  0  0  0.412546  0  0.916091  0  0  0.291524  0.39406  0  0.942626  0
H  H19  1  0.11470835  0.35550021  0.37070147  1  0  0.434367  0  0.865458  0  0  0.40174  0  0.931632  0  0  0.412562  0  0.916067  0  0  0.29154  0.394076  0  0.942602  0
H  H20  1  0.68537125  0.17355019  0.14116190  1  0  0.425406  0  0.869044  0  0  0.394929  0  0.931595  0  0  0.404569  0  0.91752  0  0  0.295024  0.38811  0  0.94155  0
H  H21  1  0.81462349  0.82645387  0.64116484  1  0  0.425406  0  0.869031  0  0  0.394979  0  0.931509  0  0  0.404612  0  0.917442  0  0  0.295024  0.388161  0  0.941463  0
H  H22  1  0.31462684  0.82644716  0.85883864  1  0  0.425364  0  0.869117  0  0  0.394859  0  0.931685  0  0  0.404494  0  0.91762  0  0  0.294982  0.388041  0  0.941638  0
H  H23  1  0.18537581  0.17355075  0.35883532  1  0  0.425366  0  0.869082  0  0  0.394933  0  0.931569  0  0  0.404577  0  0.917488  0  0  0.295038  0.388114  0  0.941523  0
H  H24  1  0.28857997  0.78353217  0.03050699  1  0  0.09334  0  0.945044  0  0  0.104879  0  1.004226  0  0  0.106801  0  1.002085  0  0  0.136407  0.103424  0  1.005846  0
H  H25  1  0.21142182  0.21647552  0.53051043  1  0  0.093335  0  0.944973  0  0  0.104884  0  1.00415  0  0  0.106807  0  1.002005  0  0  0.136405  0.103428  0  1.00577  0
H  H26  1  0.71142102  0.21646215  0.96949317  1  0  0.093308  0  0.94509  0  0  0.104847  0  1.004263  0  0  0.106769  0  1.002118  0  0  0.136374  0.103391  0  1.005883  0
H  H27  1  0.78858489  0.78353908  0.46948973  1  0  0.093266  0  0.945054  0  0  0.104891  0  1.004155  0  0  0.106815  0  1.002005  0  0  0.136399  0.103434  0  1.005777  0
H  H28  1  0.96559556  0.58733751  0.15137903  1  0  0.107876  0  0.920805  0  0  0.115061  0  0.979752  0  0  0.11935  0  0.976388  0  0  0.128931  0.111868  0  0.98244  0
H  H29  1  0.53439558  0.41266834  0.65138213  1  0  0.107938  0  0.92071  0  0  0.115131  0  0.979642  0  0  0.119422  0  0.976271  0  0  0.128952  0.111936  0  0.982329  0
H  H30  1  0.03439784  0.41266147  0.84862074  1  0  0.107871  0  0.920779  0  0  0.115064  0  0.979726  0  0  0.119352  0  0.976363  0  0  0.128938  0.111871  0  0.982413  0
H  H31  1  0.46560552  0.58733768  0.34861993  1  0  0.107863  0  0.920798  0  0  0.115095  0  0.979688  0  0  0.119384  0  0.976321  0  0  0.128949  0.111901  0  0.982375  0
H  H32  1  0.86621126  0.94050975  0.10286324  1  0  0.118979  0  0.948278  0  0  0.128725  0  1.010056  0  0  0.131216  0  1.006974  0  0  0.143869  0.12679  0  1.012349  0
H  H33  1  0.63378346  0.05949503  0.60286463  1  0  0.119011  0  0.948119  0  0  0.128748  0  1.009894  0  0  0.131251  0  1.006808  0  0  0.143848  0.126812  0  1.012188  0
H  H34  1  0.13378454  0.05948476  0.89713806  1  0  0.119006  0  0.948219  0  0  0.128748  0  1.010008  0  0  0.131237  0  1.006929  0  0  0.143836  0.126812  0  1.0123  0
H  H35  1  0.36621333  0.94050237  0.39713285  1  0  0.11903  0  0.948057  0  0  0.128775  0  1.009838  0  0  0.131284  0  1.006748  0  0  0.14386  0.126838  0  1.012133  0
H  H36  1  0.68739334  0.82561766  0.97764203  1  0  0.074119  0  0.939947  0  0  0.091388  0  1.000619  0  0  0.091022  0  1.001852  0  0  0.109044  0.091546  0  0.999829  0
H  H37  1  0.81260630  0.17437372  0.47764377  1  0  0.074091  0  0.940043  0  0  0.091369  0  1.000704  0  0  0.090996  0  1.001944  0  0  0.109033  0.091552  0  0.999892  0
H  H38  1  0.31260705  0.17438254  0.02235660  1  0  0.074157  0  0.939954  0  0  0.091403  0  1.000624  0  0  0.091043  0  1.001851  0  0  0.109068  0.091562  0  0.999833  0
H  H39  1  0.18739600  0.82562056  0.52235562  1  0  0.074133  0  0.940021  0  0  0.091395  0  1.000658  0  0  0.091022  0  1.001898  0  0  0.109065  0.091564  0  0.999856  0
H  H40  1  0.61047217  0.79329085  0.04262541  1  0  0.08695  0  0.942205  0  0  0.100177  0  1.00964  0  0  0.101711  0  1.008368  0  0  0.113839  0.098886  0  1.010746  0
H  H41  1  0.88953056  0.20670956  0.54262690  1  0  0.086945  0  0.9422  0  0  0.100167  0  1.009652  0  0  0.101703  0  1.008375  0  0  0.113816  0.098877  0  1.010759  0
H  H42  1  0.38952483  0.20671093  0.95737551  1  0  0.08695  0  0.942283  0  0  0.100173  0  1.009689  0  0  0.101704  0  1.008422  0  0  0.113847  0.098882  0  1.010796  0
H  H43  1  0.11047584  0.79328896  0.45737478  1  0  0.086981  0  0.942246  0  0  0.100193  0  1.009662  0  0  0.101722  0  1.008391  0  0  0.113849  0.098901  0  1.010771  0
H  H44  1  0.63549411  0.45255409  0.03713453  1  0  0.083377  0  0.934887  0  0  0.101442  0  0.992892  0  0  0.102645  0  0.992811  0  0  0.09563  0.100493  0  0.993065  0
H  H45  1  0.86450433  0.54744490  0.53713564  1  0  0.083388  0  0.934898  0  0  0.10142  0  0.992896  0  0  0.102624  0  0.992817  0  0  0.09562  0.10047  0  0.99307  0
H  H46  1  0.36450318  0.54744476  0.96286677  1  0  0.083362  0  0.93488  0  0  0.101438  0  0.992894  0  0  0.102641  0  0.992813  0  0  0.09564  0.100491  0  0.993062  0
H  H47  1  0.13549687  0.45255381  0.46286528  1  0  0.083301  0  0.934861  0  0  0.101372  0  0.992908  0  0  0.102572  0  0.992831  0  0  0.095623  0.100425  0  0.993076  0
H  H48  1  0.67119241  0.49133441  0.97027693  1  0  0.077318  0  0.937203  0  0  0.094158  0  0.997739  0  0  0.095026  0  0.997571  0  0  0.09477  0.093457  0  0.997976  0
H  H49  1  0.82880498  0.50866129  0.47027664  1  0  0.077292  0  0.937225  0  0  0.094108  0  0.997742  0  0  0.094978  0  0.997575  0  0  0.094742  0.093408  0  0.997979  0
H  H50  1  0.32880749  0.50866434  0.02972437  1  0  0.077304  0  0.937184  0  0  0.094158  0  0.997718  0  0  0.095027  0  0.99755  0  0  0.094758  0.093449  0  0.997966  0
H  H51  1  0.17119621  0.49133741  0.52972122  1  0  0.077307  0  0.937229  0  0  0.094162  0  0.997765  0  0  0.095031  0  0.997597  0  0  0.094773  0.093455  0  0.998011  0
C  C52  1  0.86373812  0.48846141  0.22764112  1  0  0.111968  0  3.650421  0  0  0.078006  0  3.918675  0  0  0.082931  0  3.930617  0  0  0.064592  0.074584  0  3.911075  0
C  C53  1  0.63625988  0.51153981  0.72764380  1  0  0.111956  0  3.650561  0  0  0.077996  0  3.918785  0  0  0.08292  0  3.930724  0  0  0.064609  0.074573  0  3.911182  0
C  C54  1  0.13625418  0.51154200  0.77235904  1  0  0.112001  0  3.650333  0  0  0.07806  0  3.918631  0  0  0.082983  0  3.930578  0  0  0.064647  0.074641  0  3.911024  0
C  C55  1  0.36374442  0.48846024  0.27235749  1  0  0.111981  0  3.650647  0  0  0.077955  0  3.918907  0  0  0.082881  0  3.930846  0  0  0.064568  0.074532  0  3.911306  0
C  C56  1  0.04384429  0.69251883  0.35130073  1  0  0.651727  0  3.951447  0  0  0.591055  0  4.267915  0  0  0.626562  0  4.257153  0  0  0.212265  0.566814  0  4.274357  0
C  C57  1  0.45616120  0.30747153  0.85130267  1  0  0.651721  0  3.951647  0  0  0.5911  0  4.268047  0  0  0.626607  0  4.257285  0  0  0.212216  0.566854  0  4.274498  0
C  C58  1  0.95616000  0.30748123  0.64869942  1  0  0.651667  0  3.951463  0  0  0.590983  0  4.267926  0  0  0.626488  0  4.257166  0  0  0.212226  0.566739  0  4.274372  0
C  C59  1  0.54383819  0.69252578  0.14869787  1  0  0.651571  0  3.951725  0  0  0.590922  0  4.268145  0  0  0.626428  0  4.257384  0  0  0.212174  0.566686  0  4.274579  0
C  C60  1  0.13798500  0.81139281  0.25831582  1  0  0.034936  0  3.693797  0  0  0.033248  0  3.940803  0  0  0.031043  0  3.960359  0  0  0.113589  0.0342  0  3.92818  0
C  C61  1  0.36201699  0.18861051  0.75831773  1  0  0.035024  0  3.693594  0  0  0.03335  0  3.940574  0  0  0.031139  0  3.960141  0  0  0.113577  0.034295  0  3.927956  0
C  C62  1  0.86201501  0.18861764  0.74168357  1  0  0.035078  0  3.69378  0  0  0.033374  0  3.940738  0  0  0.031167  0  3.960312  0  0  0.113587  0.03432  0  3.928123  0
C  C63  1  0.63798471  0.81138964  0.24168319  1  0  0.03495  0  3.693696  0  0  0.033258  0  3.940659  0  0  0.031045  0  3.960228  0  0  0.113569  0.034205  0  3.928034  0
C  C64  1  0.15627999  0.80364966  0.03820187  1  0  0.192273  0  3.734829  0  0  0.138163  0  4.028998  0  0  0.149802  0  4.041889  0  0  0.141986  0.1305  0  4.020148  0
C  C65  1  0.34371784  0.19635101  0.53820650  1  0  0.192367  0  3.734919  0  0  0.138246  0  4.029112  0  0  0.149887  0  4.042002  0  0  0.142117  0.130582  0  4.020263  0
C  C66  1  0.84371710  0.19634480  0.96179829  1  0  0.192392  0  3.734971  0  0  0.138306  0  4.029131  0  0  0.149947  0  4.042025  0  0  0.142064  0.130641  0  4.02028  0
C  C67  1  0.65628537  0.80365348  0.46179518  1  0  0.192595  0  3.734845  0  0  0.138399  0  4.029029  0  0  0.150041  0  4.041919  0  0  0.142141  0.130734  0  4.020181  0
C  C68  1  0.98019780  0.61353089  0.19227535  1  0  0.095765  0  3.661294  0  0  0.059926  0  3.932251  0  0  0.064699  0  3.944753  0  0  0.058427  0.056235  0  3.924347  0
C  C69  1  0.51979801  0.38647266  0.69227843  1  0  0.095656  0  3.661382  0  0  0.059814  0  3.932299  0  0  0.064588  0  3.9448  0  0  0.058347  0.056129  0  3.924391  0
C  C70  1  0.01979530  0.38647103  0.80772442  1  0  0.095671  0  3.661298  0  0  0.059803  0  3.932278  0  0  0.064575  0  3.944783  0  0  0.058349  0.056115  0  3.924372  0
C  C71  1  0.48020079  0.61353052  0.30772325  1  0  0.095753  0  3.661402  0  0  0.059854  0  3.932391  0  0  0.064627  0  3.944894  0  0  0.058348  0.056165  0  3.924485  0
C  C72  1  0.02382658  0.68080406  0.29378113  1  0  0.066569  0  3.670685  0  0  0.060759  0  3.92642  0  0  0.062855  0  3.940536  0  0  0.129777  0.058798  0  3.917519  0
C  C73  1  0.47617259  0.31920150  0.79378381  1  0  0.06658  0  3.670576  0  0  0.060733  0  3.926353  0  0  0.062828  0  3.940469  0  0  0.129824  0.058777  0  3.917451  0
C  C74  1  0.97617343  0.31920639  0.70621865  1  0  0.066406  0  3.670972  0  0  0.060667  0  3.926614  0  0  0.062761  0  3.940731  0  0  0.12973  0.058709  0  3.917714  0
C  C75  1  0.52382910  0.68079865  0.20621749  1  0  0.066614  0  3.670703  0  0  0.06081  0  3.926401  0  0  0.062909  0  3.940517  0  0  0.129825  0.058852  0  3.917496  0
C  C76  1  0.94561982  0.88628866  0.07604452  1  0  0.190054  0  3.630951  0  0  0.106456  0  3.901224  0  0  0.121419  0  3.912926  0  0  0.163987  0.096817  0  3.8931  0
C  C77  1  0.55437504  0.11370682  0.57604543  1  0  0.190129  0  3.630815  0  0  0.106512  0  3.901057  0  0  0.121458  0  3.912776  0  0  0.164016  0.096874  0  3.892932  0
C  C78  1  0.05437518  0.11370734  0.92395678  1  0  0.189902  0  3.630949  0  0  0.106303  0  3.90122  0  0  0.12126  0  3.912932  0  0  0.163967  0.096664  0  3.893094  0
C  C79  1  0.44562546  0.88628606  0.42395282  1  0  0.190077  0  3.63066  0  0  0.106434  0  3.900936  0  0  0.121375  0  3.912659  0  0  0.163934  0.096796  0  3.892812  0
C  C80  1  0.68835196  0.74607546  0.01304027  1  0  -0.009825  0  3.624272  0  0  -0.087157  0  3.883296  0  0  -0.083468  0  3.894413  0  0  -0.049186  -0.089403  0  3.875695  0
C  C81  1  0.81164085  0.25391302  0.51304280  1  0  -0.009757  0  3.624355  0  0  -0.087129  0  3.883275  0  0  -0.083433  0  3.894395  0  0  -0.049105  -0.089389  0  3.875659  0
C  C82  1  0.31165204  0.25392753  0.98695951  1  0  -0.009891  0  3.624447  0  0  -0.087151  0  3.883397  0  0  -0.083468  0  3.894515  0  0  -0.04921  -0.089398  0  3.875796  0
C  C83  1  0.18835113  0.74607431  0.48695888  1  0  -0.009922  0  3.624512  0  0  -0.087161  0  3.883446  0  0  -0.083462  0  3.894559  0  0  -0.049203  -0.089413  0  3.875836  0
C  C84  1  0.60482201  0.52909995  0.00402534  1  0  -0.123513  0  3.675476  0  0  -0.164981  0  3.938873  0  0  -0.166481  0  3.952245  0  0  -0.163944  -0.163779  0  3.929561  0
C  C85  1  0.89518590  0.47090098  0.50402623  1  0  -0.123699  0  3.675627  0  0  -0.165037  0  3.938894  0  0  -0.166539  0  3.952265  0  0  -0.163985  -0.163837  0  3.92959  0
C  C86  1  0.39516837  0.47089036  0.99597367  1  0  -0.123422  0  3.675583  0  0  -0.164964  0  3.939018  0  0  -0.166467  0  3.952395  0  0  -0.163921  -0.163758  0  3.92971  0
C  C87  1  0.10483851  0.52911152  0.49597393  1  0  -0.123178  0  3.675502  0  0  -0.164794  0  3.938965  0  0  -0.166294  0  3.952335  0  0  -0.163911  -0.163592  0  3.929664  0
C  C88  1  0.29587347  0.99462977  0.27266017  1  0  0.632694  0  3.919294  0  0  0.574487  0  4.228298  0  0  0.608307  0  4.221776  0  0  0.207125  0.551712  0  4.231924  0
C  C89  1  0.20413213  0.00537369  0.77266510  1  0  0.632807  0  3.919015  0  0  0.57462  0  4.227971  0  0  0.608423  0  4.221463  0  0  0.207266  0.551849  0  4.231593  0
C  C90  1  0.70413133  0.00537173  0.72733770  1  0  0.632835  0  3.919006  0  0  0.574614  0  4.22802  0  0  0.608415  0  4.221516  0  0  0.207286  0.551842  0  4.231643  0
C  C91  1  0.79586827  0.99462651  0.22733505  1  0  0.632834  0  3.919077  0  0  0.574665  0  4.227997  0  0  0.608469  0  4.221484  0  0  0.207261  0.551895  0  4.231621  0
N  N92  1  0.88704046  0.52188248  0.27759990  1  0  -0.269881  0  3.131193  0  0  -0.218282  0  3.378904  0  0  -0.227903  0  3.392841  0  0  -0.281989  -0.211752  0  3.369843  0
N  N93  1  0.61295683  0.47811681  0.77760296  1  0  -0.269896  0  3.131211  0  0  -0.218306  0  3.378942  0  0  -0.227923  0  3.392883  0  0  -0.282049  -0.211779  0  3.369881  0
N  N94  1  0.11295595  0.47812517  0.72239911  1  0  -0.269832  0  3.131472  0  0  -0.218274  0  3.37916  0  0  -0.227894  0  3.393099  0  0  -0.281995  -0.211744  0  3.370097  0
N  N95  1  0.38704517  0.52188040  0.22239796  1  0  -0.269875  0  3.131203  0  0  -0.218294  0  3.378939  0  0  -0.227911  0  3.392878  0  0  -0.282008  -0.211767  0  3.369879  0
N  N96  1  0.12234775  0.89149120  0.08145050  1  0  -0.441496  0  3.211133  0  0  -0.365508  0  3.50824  0  0  -0.390114  0  3.52284  0  0  -0.358618  -0.34872  0  3.497721  0
N  N97  1  0.37765591  0.10851448  0.58145450  1  0  -0.44168  0  3.21132  0  0  -0.365656  0  3.508413  0  0  -0.390261  0  3.523019  0  0  -0.358757  -0.348866  0  3.497891  0
N  N98  1  0.87764444  0.10850051  0.91855042  1  0  -0.441442  0  3.211188  0  0  -0.365442  0  3.508275  0  0  -0.390051  0  3.522881  0  0  -0.358582  -0.348653  0  3.497752  0
N  N99  1  0.62235489  0.89148535  0.41854604  1  0  -0.441723  0  3.211099  0  0  -0.36567  0  3.508191  0  0  -0.390277  0  3.5228  0  0  -0.358714  -0.348881  0  3.497676  0
N  N100  1  0.11351048  0.77273575  0.20816594  1  0  -0.302398  0  3.280713  0  0  -0.241728  0  3.548118  0  0  -0.254775  0  3.565966  0  0  -0.306357  -0.232554  0  3.536176  0
N  N101  1  0.38648472  0.22726683  0.70816787  1  0  -0.302487  0  3.28078  0  0  -0.241834  0  3.548165  0  0  -0.254882  0  3.566015  0  0  -0.306373  -0.232661  0  3.536222  0
N  N102  1  0.88648312  0.22726761  0.79183269  1  0  -0.302374  0  3.280944  0  0  -0.241679  0  3.548325  0  0  -0.254732  0  3.566181  0  0  -0.306311  -0.232505  0  3.536384  0
N  N103  1  0.61351308  0.77273346  0.29183305  1  0  -0.302418  0  3.280802  0  0  -0.241738  0  3.548195  0  0  -0.254786  0  3.566048  0  0  -0.306344  -0.232564  0  3.536251  0
N  N104  1  0.01174808  0.74582032  0.00684948  1  0  -0.258017  0  2.825032  0  0  -0.264592  0  3.09155  0  0  -0.27217  0  3.104233  0  0  -0.223189  -0.259511  0  3.083115  0
N  N105  1  0.48825168  0.25417967  0.50685352  1  0  -0.25805  0  2.825334  0  0  -0.264676  0  3.091884  0  0  -0.272249  0  3.104568  0  0  -0.223247  -0.259596  0  3.083449  0
N  N106  1  0.98824942  0.25418290  0.99315030  1  0  -0.258209  0  2.825028  0  0  -0.264821  0  3.09158  0  0  -0.272404  0  3.104261  0  0  -0.223297  -0.259739  0  3.083144  0
N  N107  1  0.51175362  0.74582328  0.49314816  1  0  -0.25823  0  2.825189  0  0  -0.264839  0  3.091776  0  0  -0.272417  0  3.104457  0  0  -0.223311  -0.259757  0  3.083341  0
N  N108  1  0.87901953  0.79917616  0.03181575  1  0  0.0454  0  3.554574  0  0  0.168526  0  3.740619  0  0  0.159543  0  3.761718  0  0  -0.130777  0.174133  0  3.726581  0
N  N109  1  0.62097822  0.20082421  0.53181822  1  0  0.045418  0  3.554751  0  0  0.168616  0  3.740748  0  0  0.159627  0  3.761863  0  0  -0.130712  0.17422  0  3.726716  0
N  N110  1  0.12098087  0.20082404  0.96818479  1  0  0.045576  0  3.554385  0  0  0.168706  0  3.740427  0  0  0.159747  0  3.761481  0  0  -0.130714  0.174315  0  3.726389  0
N  N111  1  0.37902088  0.79917603  0.46818194  1  0  0.0455  0  3.554607  0  0  0.16864  0  3.740613  0  0  0.159671  0  3.761686  0  0  -0.130638  0.174248  0  3.726576  0
O  O112  1  0.40404410  0.08425330  0.23745889  1  0  -0.627778  0  2.0016  0  0  -0.573029  0  2.259756  0  0  -0.600771  0  2.250411  0  0  -0.322611  -0.553623  0  2.265531  0
O  O113  1  0.09595671  0.91575258  0.73746136  1  0  -0.62795  0  2.001463  0  0  -0.573198  0  2.259592  0  0  -0.600947  0  2.250263  0  0  -0.322725  -0.55379  0  2.265363  0
O  O114  1  0.59595570  0.91575277  0.76253783  1  0  -0.62789  0  2.001615  0  0  -0.57314  0  2.259786  0  0  -0.600886  0  2.250458  0  0  -0.322704  -0.553732  0  2.265557  0
O  O115  1  0.90404449  0.08424612  0.26253918  1  0  -0.627961  0  2.001477  0  0  -0.573249  0  2.259659  0  0  -0.600997  0  2.250327  0  0  -0.322745  -0.553842  0  2.265432  0
O  O116  1  0.17247978  0.24577492  0.15550078  1  0  -0.825784  0  1.888906  0  0  -0.759516  0  2.086797  0  0  -0.781346  0  2.051691  0  0  -0.598699  -0.744031  0  2.111087  0
O  O117  1  0.32750798  0.75422105  0.65550163  1  0  -0.825679  0  1.889065  0  0  -0.75954  0  2.086766  0  0  -0.78135  0  2.051634  0  0  -0.598612  -0.744062  0  2.111097  0
O  O118  1  0.82752602  0.75422947  0.84449899  1  0  -0.825722  0  1.888961  0  0  -0.759461  0  2.086849  0  0  -0.781288  0  2.051729  0  0  -0.598661  -0.743974  0  2.11114  0
O  O119  1  0.67248622  0.24577644  0.34449662  1  0  -0.825694  0  1.889132  0  0  -0.759568  0  2.086787  0  0  -0.781375  0  2.051645  0  0  -0.598644  -0.744077  0  2.111093  0
O  O120  1  0.13330798  0.59121937  0.37015398  1  0  -0.621301  0  1.968508  0  0  -0.565653  0  2.197923  0  0  -0.594747  0  2.191154  0  0  -0.30375  -0.544482  0  2.201589  0
O  O121  1  0.36669994  0.40877566  0.87015937  1  0  -0.621256  0  1.968314  0  0  -0.565679  0  2.197773  0  0  -0.594778  0  2.191005  0  0  -0.303775  -0.544506  0  2.201441  0
O  O122  1  0.86669842  0.40877915  0.62984465  1  0  -0.621183  0  1.968387  0  0  -0.565578  0  2.197859  0  0  -0.594671  0  2.191091  0  0  -0.303713  -0.544407  0  2.201526  0
O  O123  1  0.63329845  0.59121876  0.12984193  1  0  -0.621236  0  1.968359  0  0  -0.565614  0  2.197782  0  0  -0.59471  0  2.191014  0  0  -0.303737  -0.544445  0  2.201447  0
O  O124  1  0.96400984  0.79130150  0.37601716  1  0  -0.625362  0  1.997068  0  0  -0.563569  0  2.252281  0  0  -0.593325  0  2.240625  0  0  -0.318106  -0.542289  0  2.259363  0
O  O125  1  0.53599026  0.20869082  0.87601831  1  0  -0.625374  0  1.997394  0  0  -0.563592  0  2.252597  0  0  -0.593352  0  2.240944  0  0  -0.318088  -0.542311  0  2.259681  0
O  O126  1  0.03599756  0.20869991  0.62398337  1  0  -0.62538  0  1.997121  0  0  -0.563582  0  2.25235  0  0  -0.59334  0  2.240696  0  0  -0.318126  -0.542302  0  2.259434  0
O  O127  1  0.46401044  0.79130644  0.12398184  1  0  -0.625287  0  1.99734  0  0  -0.563509  0  2.252547  0  0  -0.593268  0  2.240896  0  0  -0.318076  -0.542232  0  2.259626  0
O  O128  1  0.59213981  0.21545835  0.12283877  1  0  -0.824565  0  1.83823  0  0  -0.757807  0  2.019121  0  0  -0.779578  0  1.986075  0  0  -0.584772  -0.742465  0  2.042143  0
O  O129  1  0.90785711  0.78454674  0.62284217  1  0  -0.824583  0  1.838283  0  0  -0.757836  0  2.01906  0  0  -0.779612  0  1.986055  0  0  -0.584759  -0.742493  0  2.042081  0
O  O130  1  0.40785749  0.78454050  0.87716253  1  0  -0.824534  0  1.83824  0  0  -0.75771  0  2.019191  0  0  -0.779476  0  1.986135  0  0  -0.584716  -0.742367  0  2.042212  0
O  O131  1  0.09214349  0.21545784  0.37715875  1  0  -0.824563  0  1.838275  0  0  -0.757813  0  2.019092  0  0  -0.779588  0  1.986039  0  0  -0.5848  -0.742471  0  2.042115  0
O  O132  1  0.31182524  0.04349432  0.31948576  1  0  -0.642134  0  2.008731  0  0  -0.576235  0  2.230836  0  0  -0.601924  0  2.221101  0  0  -0.307332  -0.558189  0  2.2367  0
O  O133  1  0.18817921  0.95650570  0.81948810  1  0  -0.642165  0  2.00884  0  0  -0.5762  0  2.230855  0  0  -0.601821  0  2.221062  0  0  -0.307309  -0.558161  0  2.236724  0
O  O134  1  0.68816766  0.95650322  0.68051172  1  0  -0.642267  0  2.008589  0  0  -0.576322  0  2.230664  0  0  -0.601953  0  2.220879  0  0  -0.307369  -0.558274  0  2.236526  0
O  O135  1  0.81182018  0.04349161  0.18051205  1  0  -0.642159  0  2.008875  0  0  -0.576187  0  2.230867  0  0  -0.601817  0  2.221095  0  0  -0.307287  -0.558144  0  2.236721  0
