# generated using pymatgen
data_CuH7C11IN
_symmetry_space_group_name_H-M   'P 1'
_cell_length_a   8.14625556
_cell_length_b   9.02364789
_cell_length_c   31.77629175
_cell_angle_alpha   89.99979536
_cell_angle_beta   90.00021885
_cell_angle_gamma   99.97143143
_symmetry_Int_Tables_number   1
_chemical_formula_structural   CuH7C11IN
_chemical_formula_sum   'Cu8 H56 C88 I8 N8'
_cell_volume   2300.55685854
_cell_formula_units_Z   8
loop_
 _symmetry_equiv_pos_site_id
 _symmetry_equiv_pos_as_xyz
  1  'x, y, z'
loop_
 _atom_site_type_symbol
 _atom_site_label
 _atom_site_symmetry_multiplicity
 _atom_site_fract_x
 _atom_site_fract_y
 _atom_site_fract_z
 _atom_site_occupancy
 _atom_site_pbe_bader_charge
 _atom_site_pbe_bader_spin_density
 _atom_site_pbe_cm5_charge
 _atom_site_pbe_ddec_charge
 _atom_site_pbe_ddec_spin_density
 _atom_site_pbe_ddec_sum_bond_order
 _atom_site_pbe_magmom
Cu  Cu0  1  0.81601404  0.36558650  0.98219317  1  0.428764  0  0.269266  0.202983  0  2.603217  0
Cu  Cu1  1  0.68398721  0.63441716  0.48219378  1  0.428787  0  0.269253  0.203  0  2.603197  0
Cu  Cu2  1  0.18399315  0.63441037  0.01780769  1  0.428827  0  0.269243  0.202973  0  2.60326  0
Cu  Cu3  1  0.31600239  0.36558412  0.51780708  1  0.428866  0  0.269242  0.202955  0  2.603184  0
Cu  Cu4  1  0.66244440  0.59800632  0.00573007  1  0.429314  0  0.25868  0.182851  0  2.618963  0
Cu  Cu5  1  0.83755520  0.40200005  0.50572850  1  0.429259  0  0.258676  0.182842  0  2.619112  0
Cu  Cu6  1  0.33755994  0.40199503  0.99427110  1  0.429244  0  0.258658  0.182814  0  2.619062  0
Cu  Cu7  1  0.16244139  0.59800577  0.49426984  1  0.429288  0  0.258681  0.182875  0  2.618967  0
H  H8  1  0.85591052  0.68008609  0.93838112  1  0.069007  0  0.076629  0.105589  0  1.105071  0
H  H9  1  0.64408893  0.31991802  0.43837761  1  0.068956  0  0.076668  0.105628  0  1.10502  0
H  H10  1  0.14409729  0.31991415  0.06162100  1  0.068969  0  0.076637  0.105571  0  1.104939  0
H  H11  1  0.35590703  0.68008442  0.56162074  1  0.068934  0  0.076675  0.105633  0  1.104966  0
H  H12  1  0.41263661  0.23354138  0.85373438  1  0.03822  0  0.09215  0.099918  0  1.014224  0
H  H13  1  0.08735652  0.76645298  0.35373413  1  0.038165  0  0.092147  0.099906  0  1.014126  0
H  H14  1  0.58735401  0.76645879  0.14626586  1  0.038232  0  0.092182  0.099944  0  1.014141  0
H  H15  1  0.91263859  0.23354496  0.64626579  1  0.038189  0  0.092134  0.099896  0  1.014191  0
H  H16  1  0.60249791  0.86380304  0.05349602  1  0.116304  0  0.10265  0.086598  0  1.048014  0
H  H17  1  0.89750560  0.13620734  0.55349415  1  0.116233  0  0.102671  0.086634  0  1.048059  0
H  H18  1  0.39750233  0.13619605  0.94650484  1  0.116341  0  0.102658  0.086596  0  1.048067  0
H  H19  1  0.10250534  0.86380303  0.44650356  1  0.116289  0  0.102651  0.0866  0  1.048036  0
H  H20  1  0.02027038  0.66876956  0.86778343  1  0.066422  0  0.096424  0.097666  0  0.982683  0
H  H21  1  0.47972275  0.33123027  0.36778055  1  0.066435  0  0.096424  0.097623  0  0.982695  0
H  H22  1  0.97972965  0.33122840  0.13221712  1  0.066449  0  0.09643  0.097659  0  0.982647  0
H  H23  1  0.52027625  0.66876881  0.63221811  1  0.066414  0  0.096466  0.097729  0  0.98269  0
H  H24  1  0.09028645  0.20433633  0.85012494  1  0.044677  0  0.106357  0.09791  0  0.953738  0
H  H25  1  0.40971341  0.79566146  0.35012466  1  0.044802  0  0.106386  0.097949  0  0.953715  0
H  H26  1  0.90971214  0.79566050  0.14987530  1  0.044788  0  0.106384  0.097924  0  0.953701  0
H  H27  1  0.59028272  0.20433535  0.64987589  1  0.044693  0  0.106374  0.097929  0  0.953725  0
H  H28  1  0.73747231  0.72978020  0.73426376  1  0.062689  0  0.096038  0.092464  0  1.012993  0
H  H29  1  0.76253065  0.27022605  0.23426262  1  0.0627  0  0.096098  0.092487  0  1.012918  0
H  H30  1  0.26253020  0.27022452  0.26573616  1  0.062667  0  0.096066  0.092448  0  1.013016  0
H  H31  1  0.23746629  0.72976852  0.76573572  1  0.062662  0  0.096126  0.092542  0  1.012892  0
H  H32  1  0.66859735  0.14381519  0.04727260  1  0.123641  0  0.113382  0.094747  0  1.014615  0
H  H33  1  0.83140976  0.85619528  0.54727182  1  0.123439  0  0.113336  0.094626  0  1.014758  0
H  H34  1  0.33140310  0.85618502  0.95272857  1  0.12373  0  0.11336  0.094665  0  1.014719  0
H  H35  1  0.16859461  0.14381282  0.45272810  1  0.123666  0  0.11334  0.094649  0  1.014725  0
H  H36  1  0.92811319  0.17739963  0.77895249  1  0.021177  0  0.098294  0.097637  0  0.998686  0
H  H37  1  0.57188747  0.82260390  0.27894965  1  0.021213  0  0.098314  0.097655  0  0.998655  0
H  H38  1  0.07188582  0.82259945  0.22104963  1  0.021163  0  0.098317  0.097672  0  0.99868  0
H  H39  1  0.42811316  0.17739069  0.72104933  1  0.021287  0  0.098298  0.097591  0  0.998595  0
H  H40  1  0.66129358  0.10774395  0.86004398  1  0.043783  0  0.092716  0.092867  0  1.025818  0
H  H41  1  0.83870073  0.89225196  0.36004385  1  0.043724  0  0.092697  0.092856  0  1.025883  0
H  H42  1  0.33870423  0.89226187  0.13995436  1  0.043799  0  0.092727  0.092861  0  1.025897  0
H  H43  1  0.16129603  0.10774823  0.63995575  1  0.043772  0  0.092692  0.092831  0  1.025843  0
H  H44  1  0.34136855  0.67543273  0.87069739  1  0.062576  0  0.088033  0.097799  0  1.033187  0
H  H45  1  0.15862891  0.32456372  0.37069609  1  0.062609  0  0.08806  0.097876  0  1.033115  0
H  H46  1  0.65863846  0.32456976  0.12930316  1  0.06252  0  0.088053  0.097797  0  1.033159  0
H  H47  1  0.84137235  0.67543425  0.62930351  1  0.062607  0  0.088048  0.097831  0  1.033145  0
H  H48  1  0.85410942  0.61993948  0.79772314  1  0.068186  0  0.097994  0.097887  0  1.001093  0
H  H49  1  0.64588983  0.38006160  0.29772240  1  0.068164  0  0.097999  0.097814  0  1.001143  0
H  H50  1  0.14589204  0.38005961  0.20227552  1  0.068195  0  0.098005  0.097878  0  1.001058  0
H  H51  1  0.35410732  0.61993410  0.70227626  1  0.068217  0  0.098023  0.097941  0  1.001055  0
H  H52  1  0.93320336  0.23738369  0.91883442  1  0.093484  0  0.081136  0.107551  0  1.089891  0
H  H53  1  0.56679953  0.76262064  0.41883479  1  0.093575  0  0.081114  0.107559  0  1.089931  0
H  H54  1  0.06679997  0.76261878  0.08116644  1  0.093513  0  0.081116  0.107537  0  1.089932  0
H  H55  1  0.43319723  0.23737955  0.58116608  1  0.093561  0  0.081132  0.107592  0  1.089881  0
H  H56  1  0.77472710  0.00513968  0.72515642  1  0.078945  0  0.093208  0.088084  0  1.05255  0
H  H57  1  0.72527287  0.99486440  0.22515481  1  0.078855  0  0.093165  0.088045  0  1.052497  0
H  H58  1  0.22527377  0.99486278  0.27484444  1  0.078929  0  0.093187  0.088061  0  1.052523  0
H  H59  1  0.27472509  0.00512905  0.77484448  1  0.078914  0  0.093218  0.088113  0  1.052451  0
H  H60  1  0.62571223  0.83048209  0.86794162  1  0.086045  0  0.093193  0.093386  0  1.034841  0
H  H61  1  0.87428484  0.16951487  0.36794038  1  0.086049  0  0.093187  0.093368  0  1.03483  0
H  H62  1  0.37429214  0.16952601  0.13205767  1  0.086108  0  0.093196  0.093384  0  1.034874  0
H  H63  1  0.12571581  0.83048646  0.63205923  1  0.086056  0  0.093178  0.093381  0  1.034789  0
C  C64  1  0.87364978  0.80113025  0.93358315  1  -0.024273  0  -0.099385  -0.20639  0  3.954792  0
C  C65  1  0.62635329  0.19887393  0.43358069  1  -0.024221  0  -0.099386  -0.206376  0  3.954768  0
C  C66  1  0.12635681  0.19886999  0.06641866  1  -0.024232  0  -0.099279  -0.206271  0  3.954669  0
C  C67  1  0.37364347  0.80112626  0.56641860  1  -0.024256  0  -0.09935  -0.206347  0  3.954741  0
C  C68  1  0.39728605  0.11148851  0.85690787  1  -0.06205  0  -0.098484  -0.141103  0  4.0228  0
C  C69  1  0.10270878  0.88850807  0.35690751  1  -0.061485  0  -0.098525  -0.141106  0  4.022875  0
C  C70  1  0.60270991  0.88851393  0.14309142  1  -0.062025  0  -0.098588  -0.141178  0  4.02285  0
C  C71  1  0.89728757  0.11148987  0.64309210  1  -0.061635  0  -0.098453  -0.141025  0  4.022856  0
C  C72  1  0.67234473  0.91575538  0.02645197  1  0.481958  0  0.041012  0.045769  0  3.912384  0
C  C73  1  0.82765678  0.08425302  0.52645071  1  0.482188  0  0.040876  0.045578  0  3.912639  0
C  C74  1  0.32765797  0.08424371  0.97354921  1  0.481944  0  0.040967  0.045734  0  3.912435  0
C  C75  1  0.17234738  0.91575395  0.47354826  1  0.482017  0  0.040964  0.04569  0  3.912563  0
C  C76  1  0.80867018  0.89015055  0.96397554  1  0.412856  0  0.107418  0.165914  0  3.946724  0
C  C77  1  0.69133371  0.10985556  0.46397355  1  0.413198  0  0.107432  0.165929  0  3.946797  0
C  C78  1  0.19133887  0.10984970  0.03602627  1  0.413808  0  0.107361  0.165841  0  3.94683  0
C  C79  1  0.30866389  0.89014913  0.53602574  1  0.413409  0  0.107395  0.165886  0  3.946667  0
C  C80  1  0.83514345  0.05038082  0.95889327  1  0.435463  0  0.105527  0.164573  0  3.961965  0
C  C81  1  0.66485893  0.94962422  0.45889196  1  0.435416  0  0.105587  0.164669  0  3.961929  0
C  C82  1  0.16486191  0.94961942  0.04110854  1  0.435152  0  0.105565  0.164609  0  3.961997  0
C  C83  1  0.33513948  0.05037823  0.54110796  1  0.43546  0  0.105547  0.164598  0  3.962031  0
C  C84  1  0.21833851  0.86720859  0.86258206  1  -0.025501  0  -0.009557  0.040131  0  3.931416  0
C  C85  1  0.28165782  0.13278906  0.36258140  1  -0.025778  0  -0.009492  0.040109  0  3.93126  0
C  C86  1  0.78166071  0.13279161  0.13741817  1  -0.025896  0  -0.009524  0.040217  0  3.931221  0
C  C87  1  0.71834098  0.86720890  0.63741852  1  -0.025454  0  -0.009546  0.040161  0  3.931355  0
C  C88  1  0.03594706  0.79085316  0.86365199  1  -0.012015  0  -0.071753  -0.096213  0  3.889486  0
C  C89  1  0.46404725  0.20914672  0.36364954  1  -0.012107  0  -0.071741  -0.096093  0  3.889189  0
C  C90  1  0.96405419  0.20914481  0.13634824  1  -0.011676  0  -0.071761  -0.096194  0  3.889444  0
C  C91  1  0.53595032  0.79085123  0.63634881  1  -0.01214  0  -0.071778  -0.096265  0  3.889445  0
C  C92  1  0.97856246  0.02707227  0.89358774  1  -0.080139  0  0.004153  0.071066  0  3.940276  0
C  C93  1  0.52143455  0.97292892  0.39358659  1  -0.079913  0  0.004165  0.070988  0  3.940286  0
C  C94  1  0.02143511  0.97292568  0.10641312  1  -0.080225  0  0.004259  0.071145  0  3.940178  0
C  C95  1  0.47856323  0.02707015  0.60641365  1  -0.080338  0  0.004169  0.071114  0  3.940179  0
C  C96  1  0.97743212  0.99458916  0.81811368  1  -0.0112  0  -0.010176  0.036386  0  3.94841  0
C  C97  1  0.52256146  0.00541281  0.31811195  1  -0.011195  0  -0.010198  0.03647  0  3.948204  0
C  C98  1  0.02256668  0.00540880  0.18188719  1  -0.011197  0  -0.010072  0.036656  0  3.948141  0
C  C99  1  0.47743446  0.99458289  0.68188734  1  -0.011139  0  -0.01015  0.036507  0  3.948258  0
C  C100  1  0.07409152  0.08188274  0.85393444  1  0.00683  0  -0.06841  -0.094488  0  3.905034  0
C  C101  1  0.42590695  0.91811389  0.35393279  1  0.00669  0  -0.068459  -0.094559  0  3.904957  0
C  C102  1  0.92590707  0.91811409  0.14606580  1  0.006671  0  -0.068462  -0.094599  0  3.904978  0
C  C103  1  0.57409143  0.08188182  0.64606587  1  0.006961  0  -0.068396  -0.0945  0  3.904961  0
C  C104  1  0.80518269  0.80326931  0.75803588  1  -0.065995  0  -0.092242  -0.077638  0  4.01726  0
C  C105  1  0.69481503  0.19673329  0.25803412  1  -0.066087  0  -0.092213  -0.077529  0  4.017276  0
C  C106  1  0.19481797  0.19673202  0.24196435  1  -0.066011  0  -0.092249  -0.077566  0  4.017285  0
C  C107  1  0.30518170  0.80326015  0.74196485  1  -0.066024  0  -0.092343  -0.077688  0  4.017295  0
C  C108  1  0.70641410  0.07300080  0.02254101  1  0.525035  0  0.043506  0.043518  0  3.913627  0
C  C109  1  0.79359125  0.92700879  0.52254012  1  0.52507  0  0.0436  0.043793  0  3.913485  0
C  C110  1  0.29358880  0.92699942  0.97746016  1  0.524818  0  0.043551  0.043677  0  3.913658  0
C  C111  1  0.20641024  0.07299704  0.47745917  1  0.524872  0  0.043611  0.043727  0  3.913524  0
C  C112  1  0.91184405  0.05558200  0.78301249  1  -0.06682  0  -0.093535  -0.137752  0  4.015008  0
C  C113  1  0.58815154  0.94442033  0.28301017  1  -0.066795  0  -0.09351  -0.137764  0  4.014998  0
C  C114  1  0.08815496  0.94441708  0.21698837  1  -0.066825  0  -0.09354  -0.137852  0  4.015044  0
C  C115  1  0.41184684  0.05557537  0.71698944  1  -0.066825  0  -0.09353  -0.137716  0  4.014881  0
C  C116  1  0.95675617  0.83770036  0.82339851  1  -0.039305  0  -0.009145  0.040264  0  3.937395  0
C  C117  1  0.54323931  0.16229818  0.32339663  1  -0.038862  0  -0.009193  0.040067  0  3.937435  0
C  C118  1  0.04324365  0.16229647  0.17660141  1  -0.039284  0  -0.00923  0.040051  0  3.93733  0
C  C119  1  0.45675763  0.83769639  0.67660234  1  -0.039373  0  -0.009175  0.040188  0  3.937536  0
C  C120  1  0.53660911  0.04067036  0.86061640  1  -0.027393  0  -0.097878  -0.084254  0  4.024174  0
C  C121  1  0.96338724  0.95932331  0.36061569  1  -0.027951  0  -0.097868  -0.084319  0  4.024265  0
C  C122  1  0.46338765  0.95932984  0.13938321  1  -0.027483  0  -0.097847  -0.084227  0  4.024229  0
C  C123  1  0.03660952  0.04067689  0.63938392  1  -0.027781  0  -0.097848  -0.084283  0  4.024181  0
C  C124  1  0.35692966  0.79698180  0.86633591  1  -0.040642  0  -0.097732  -0.139025  0  4.00347  0
C  C125  1  0.14306753  0.20301357  0.36633503  1  -0.040629  0  -0.097819  -0.139152  0  4.003445  0
C  C126  1  0.64307447  0.20301843  0.13366464  1  -0.040471  0  -0.097768  -0.139093  0  4.003552  0
C  C127  1  0.85693025  0.79698550  0.63366489  1  -0.040675  0  -0.097798  -0.13914  0  4.003556  0
C  C128  1  0.95788566  0.86833006  0.89918046  1  0.021914  0  0.004416  0.06881  0  3.91863  0
C  C129  1  0.54211533  0.13167222  0.39917831  1  0.021842  0  0.004373  0.068784  0  3.918445  0
C  C130  1  0.04211581  0.13166904  0.10082040  1  0.021891  0  0.004305  0.068756  0  3.918588  0
C  C131  1  0.45788449  0.86832461  0.60082098  1  0.021897  0  0.004366  0.068761  0  3.918448  0
C  C132  1  0.87048462  0.74170700  0.79347683  1  -0.067331  0  -0.094993  -0.139902  0  4.020081  0
C  C133  1  0.62951377  0.25829637  0.29347526  1  -0.06742  0  -0.095059  -0.139805  0  4.020027  0
C  C134  1  0.12951685  0.25829209  0.20652308  1  -0.06732  0  -0.095035  -0.1399  0  4.02005  0
C  C135  1  0.37048338  0.74169933  0.70652340  1  -0.067523  0  -0.094995  -0.13993  0  4.020165  0
C  C136  1  0.23873710  0.02427332  0.85765934  1  -0.017194  0  -0.010695  0.035329  0  3.945484  0
C  C137  1  0.26125752  0.97572213  0.35765810  1  -0.017095  0  -0.010692  0.035392  0  3.945313  0
C  C138  1  0.76125903  0.97572350  0.14234058  1  -0.017108  0  -0.010721  0.035325  0  3.945227  0
C  C139  1  0.73873882  0.02427581  0.64234182  1  -0.017121  0  -0.01072  0.03529  0  3.945356  0
C  C140  1  0.91713137  0.11584016  0.92252150  1  0.06178  0  -0.099501  -0.213132  0  3.975736  0
C  C141  1  0.58286911  0.88416412  0.42252081  1  0.061596  0  -0.0995  -0.213091  0  3.975768  0
C  C142  1  0.08287010  0.88415893  0.07747968  1  0.061836  0  -0.099523  -0.213105  0  3.975845  0
C  C143  1  0.41713176  0.11583834  0.57747974  1  0.061904  0  -0.099549  -0.213246  0  3.975782  0
C  C144  1  0.82575386  0.95895021  0.75287221  1  0.01206  0  -0.091501  -0.067864  0  4.006124  0
C  C145  1  0.67424299  0.04105469  0.25287060  1  0.012107  0  -0.091493  -0.067918  0  4.006334  0
C  C146  1  0.17424680  0.04105112  0.24712833  1  0.012061  0  -0.091513  -0.067887  0  4.006067  0
C  C147  1  0.32575518  0.95893989  0.74712869  1  0.01212  0  -0.091522  -0.067942  0  4.006118  0
C  C148  1  0.51665981  0.88464647  0.86516368  1  -0.069366  0  -0.09534  -0.074584  0  4.000407  0
C  C149  1  0.98333723  0.11535052  0.36516355  1  -0.069457  0  -0.09528  -0.074456  0  4.000222  0
C  C150  1  0.48334126  0.11535711  0.13483592  1  -0.069548  0  -0.095312  -0.074527  0  4.000366  0
C  C151  1  0.01666035  0.88464743  0.63483637  1  -0.069432  0  -0.095296  -0.074472  0  4.000165  0
I  I152  1  0.88486117  0.50171502  0.05462738  1  -0.419836  0  -0.169204  -0.313962  0  2.262169  0
I  I153  1  0.61514026  0.49828410  0.55462675  1  -0.41984  0  -0.169181  -0.313935  0  2.262159  0
I  I154  1  0.11514830  0.49828748  0.94537317  1  -0.419716  0  -0.169198  -0.313938  0  2.262171  0
I  I155  1  0.38485854  0.50171385  0.44537254  1  -0.419785  0  -0.169204  -0.313955  0  2.262131  0
I  I156  1  0.58202193  0.44176302  0.93569609  1  -0.400635  0  -0.171918  -0.290524  0  2.193845  0
I  I157  1  0.91798222  0.55824677  0.43569543  1  -0.400637  0  -0.17192  -0.290589  0  2.193894  0
I  I158  1  0.41798568  0.55823610  0.06430509  1  -0.400709  0  -0.171921  -0.290545  0  2.193896  0
I  I159  1  0.08201418  0.44176467  0.56430417  1  -0.400695  0  -0.171926  -0.290576  0  2.193948  0
N  N160  1  0.72081191  0.82321520  0.99793796  1  -1.180438  0  -0.338335  -0.182762  0  3.56282  0
N  N161  1  0.77918792  0.17679279  0.49793630  1  -1.180527  0  -0.338303  -0.182754  0  3.563078  0
N  N162  1  0.27919468  0.17678504  0.00206385  1  -1.181049  0  -0.338286  -0.182752  0  3.562948  0
N  N163  1  0.22081235  0.82321304  0.50206236  1  -1.180899  0  -0.338341  -0.182748  0  3.562834  0
N  N164  1  0.78448492  0.14187259  0.98904492  1  -1.181005  0  -0.342393  -0.188096  0  3.593533  0
N  N165  1  0.71551848  0.85813551  0.48904407  1  -1.181119  0  -0.342394  -0.188241  0  3.59338  0
N  N166  1  0.21551777  0.85812651  0.01095626  1  -1.180866  0  -0.342413  -0.18819  0  3.593529  0
N  N167  1  0.28447810  0.14187031  0.51095648  1  -1.180921  0  -0.342404  -0.188115  0  3.593416  0
