# generated using pymatgen
data_MnH18C29(N2O3)2
_symmetry_space_group_name_H-M   'P 1'
_cell_length_a   8.65756002
_cell_length_b   10.42920678
_cell_length_c   17.90246700
_cell_angle_alpha   75.15426012
_cell_angle_beta   88.86608331
_cell_angle_gamma   70.37649123
_symmetry_Int_Tables_number   1
_chemical_formula_structural   MnH18C29(N2O3)2
_chemical_formula_sum   'Mn2 H36 C58 N8 O12'
_cell_volume   1467.83051898
_cell_formula_units_Z   2
loop_
 _symmetry_equiv_pos_site_id
 _symmetry_equiv_pos_as_xyz
  1  'x, y, z'
loop_
 _atom_site_type_symbol
 _atom_site_label
 _atom_site_symmetry_multiplicity
 _atom_site_fract_x
 _atom_site_fract_y
 _atom_site_fract_z
 _atom_site_occupancy
 _atom_site_pbe_bader_charge
 _atom_site_pbe_bader_spin_density
 _atom_site_pbe_cm5_charge
 _atom_site_pbe_ddec_charge
 _atom_site_pbe_ddec_spin_density
 _atom_site_pbe_ddec_sum_bond_order
 _atom_site_pbe_magmom
Mn  Mn0  1  0.72822277  0.82474027  0.82286356  1  1.457481  4.418621  0.634418  0.810826  4.588652  2.534097  4.319
Mn  Mn1  1  0.27177603  0.17525221  0.17714207  1  1.45756  4.418587  0.634346  0.810736  4.58869  2.534191  4.319
H  H2  1  0.36444835  0.95523513  0.74446623  1  0.099823  0.002644  0.129502  0.097785  0.001679  0.960586  0.001
H  H3  1  0.63555818  0.04476994  0.25553567  1  0.099773  0.002645  0.12945  0.097734  0.00168  0.960587  0.001
H  H4  1  0.07634342  0.04248853  0.78383882  1  0.115289  0.000823  0.1126  0.119051  0.000266  1.000497  0.0
H  H5  1  0.92366198  0.95751645  0.21615920  1  0.115238  0.000823  0.112582  0.119012  0.000266  1.000668  0.0
H  H6  1  0.03192841  0.01840535  0.92436799  1  0.119181  0.000138  0.109823  0.115852  -8.5e-05  0.998099  0.0
H  H7  1  0.96807009  0.98161126  0.07562883  1  0.119198  0.000138  0.10981  0.115905  -8.5e-05  0.998087  0.0
H  H8  1  0.27670402  0.90779917  0.02138981  1  0.168551  0.000818  0.1094  0.134434  0.000212  1.043326  0.0
H  H9  1  0.72328550  0.09220800  0.97860971  1  0.168579  0.000818  0.109381  0.134389  0.000212  1.043358  0.0
H  H10  1  0.49174326  0.79152973  0.09405717  1  0.117897  0.000886  0.111618  0.127338  0.000291  1.038097  0.001
H  H11  1  0.50825776  0.20846592  0.90594795  1  0.117958  0.000885  0.111595  0.127323  0.000291  1.038123  0.001
H  H12  1  0.53839458  0.84101269  0.19565077  1  0.083707  0.000108  0.107158  0.107595  -0.000125  1.061485  0.0
H  H13  1  0.46161607  0.15899659  0.80435043  1  0.08373  0.000108  0.107194  0.107641  -0.000125  1.061502  0.0
H  H14  1  0.55029868  0.78946304  0.33927922  1  0.121981  7.7e-05  0.125422  0.098699  -0.000159  0.976218  0.0
H  H15  1  0.44971771  0.21053463  0.66072375  1  0.121847  7.7e-05  0.125372  0.098675  -0.000159  0.976194  0.0
H  H16  1  0.98610804  0.45342717  0.36201190  1  0.1187  4.4e-05  0.1262  0.099188  -2.7e-05  0.979151  0.0
H  H17  1  0.01390442  0.54656289  0.63798336  1  0.118042  4.4e-05  0.126189  0.099144  -2.8e-05  0.979155  0.0
H  H18  1  0.99273315  0.49131331  0.21905574  1  0.091027  6.3e-05  0.107569  0.1096  -0.000301  1.051924  0.0
H  H19  1  0.00726842  0.50869260  0.78093714  1  0.091164  6.3e-05  0.107555  0.109431  -0.000301  1.051992  0.0
H  H20  1  0.02242759  0.61855698  0.10107324  1  0.137806  0.00088  0.111809  0.126971  0.00027  1.029407  0.0
H  H21  1  0.97757371  0.38145548  0.89892700  1  0.136104  0.000881  0.111808  0.126984  0.00027  1.029421  0.0
H  H22  1  0.22625507  0.57869040  0.03245197  1  0.174555  0.0008  0.108385  0.133731  0.000189  1.05525  0.0
H  H23  1  0.77374801  0.42131463  0.96754774  1  0.174573  0.0008  0.108371  0.133762  0.000189  1.055158  0.0
H  H24  1  0.44863585  0.55060608  0.93937653  1  0.13228  0.000136  0.10978  0.112457  -6.9e-05  1.005905  0.0
H  H25  1  0.55136494  0.44941058  0.06062249  1  0.1322  0.000136  0.109815  0.11248  -6.9e-05  1.005961  0.0
H  H26  1  0.37176937  0.63159058  0.79772408  1  0.101417  0.000803  0.113756  0.122477  0.000256  0.994601  0.0
H  H27  1  0.62822385  0.36843355  0.20227609  1  0.101542  0.000803  0.11375  0.122546  0.000256  0.99448  0.0
H  H28  1  0.07235647  0.74388060  0.75192920  1  0.108223  0.002561  0.131206  0.101419  0.001617  0.958145  0.001
H  H29  1  0.92763870  0.25611813  0.24807214  1  0.108216  0.002561  0.131199  0.101393  0.001617  0.958169  0.001
H  H30  1  0.76002892  0.19482405  0.63434084  1  0.114586  0.000282  0.114175  0.123637  -0.000135  0.995534  0.0
H  H31  1  0.23997155  0.80517880  0.36565645  1  0.114607  0.000283  0.114151  0.12359  -0.000135  0.995559  0.0
H  H32  1  0.69733533  0.62353567  0.63096522  1  0.157192  0.000299  0.114791  0.12487  -9.9e-05  0.993554  0.0
H  H33  1  0.30263117  0.37646837  0.36903390  1  0.157529  0.000299  0.114777  0.124834  -9.9e-05  0.993554  0.0
H  H34  1  0.72554997  0.31760470  0.84818479  1  0.087049  0.000303  0.100027  0.100947  2.1e-05  1.030804  0.0
H  H35  1  0.27443649  0.68238977  0.15181451  1  0.086972  0.000303  0.100039  0.100964  2.1e-05  1.0309  0.0
H  H36  1  0.76269160  0.58522646  0.44704383  1  0.621931  -3e-06  0.287501  0.301214  9e-06  1.052519  0.0
H  H37  1  0.23734466  0.41475305  0.55295508  1  0.622014  -3e-06  0.287466  0.301206  9e-06  1.052531  0.0
C  C38  1  0.33934047  0.94621012  0.80526763  1  0.468775  0.013919  0.059507  0.091697  0.011865  3.976159  0.009
C  C39  1  0.66066101  0.05378433  0.19473264  1  0.469139  0.013921  0.059622  0.091874  0.011866  3.976142  0.009
C  C40  1  0.17947389  0.99441141  0.82751379  1  -0.006139  0.001696  -0.07635  -0.11618  0.000834  3.954475  0.001
C  C41  1  0.82052763  0.00559463  0.17248411  1  -0.005856  0.001696  -0.076341  -0.11622  0.000835  3.954683  0.001
C  C42  1  0.15631505  0.98089725  0.90606528  1  -0.093972  0.012221  -0.065855  -0.019914  0.009352  3.939683  0.007
C  C43  1  0.84368163  0.01910349  0.09393182  1  -0.094041  0.012224  -0.065878  -0.019982  0.009354  3.939858  0.007
C  C44  1  0.29253847  0.91801864  0.95977371  1  0.0099  0.000213  -0.079296  -0.159477  -0.00026  3.908723  -0.001
C  C45  1  0.70745494  0.08198750  0.04022704  1  0.009942  0.000213  -0.079239  -0.159389  -0.00026  3.908864  -0.001
C  C46  1  0.44925546  0.87084985  0.93300620  1  0.438091  0.012703  0.123126  0.167075  0.010014  3.964866  0.008
C  C47  1  0.55073886  0.12913935  0.06699497  1  0.437997  0.012704  0.123057  0.16701  0.010014  3.96495  0.008
C  C48  1  0.60232331  0.80004703  0.98461958  1  0.504355  0.019852  0.129896  0.189953  0.015752  3.983644  0.012
C  C49  1  0.39767436  0.19994539  0.01538328  1  0.50398  0.019855  0.129936  0.190031  0.015753  3.983557  0.012
C  C50  1  0.60612571  0.76648337  0.06534694  1  -0.018189  -0.002334  -0.072585  -0.195254  -0.002649  3.866505  -0.003
C  C51  1  0.39387251  0.23351645  0.93465532  1  -0.018212  -0.002334  -0.072594  -0.195283  -0.002649  3.866673  -0.003
C  C52  1  0.75825154  0.70070077  0.10902818  1  0.007266  0.021141  0.011807  0.11457  0.016569  3.972486  0.013
C  C53  1  0.24175321  0.29930003  0.89097218  1  0.007313  0.021142  0.011725  0.114407  0.01657  3.972667  0.013
C  C54  1  0.76427017  0.67015423  0.19438768  1  -0.039271  -0.000603  0.005701  0.093141  -0.000754  3.982422  -0.001
C  C55  1  0.23573168  0.32985392  0.80560988  1  -0.038751  -0.000602  0.005806  0.093333  -0.000754  3.98255  -0.001
C  C56  1  0.63905180  0.75302217  0.23022482  1  -0.015701  0.004264  -0.083979  -0.175951  0.003231  3.969509  0.003
C  C57  1  0.36095515  0.24698186  0.76977780  1  -0.016269  0.004264  -0.084064  -0.176059  0.00323  3.969564  0.003
C  C58  1  0.64634129  0.72539643  0.31044200  1  0.476065  -0.000248  0.054934  0.093571  -0.000442  3.949736  0.0
C  C59  1  0.35367092  0.27460014  0.68955894  1  0.476204  -0.000248  0.054982  0.093585  -0.000442  3.949703  0.0
C  C60  1  0.88950869  0.53891304  0.32276190  1  0.453785  -0.000355  0.057065  0.101081  -0.000503  3.936682  -0.001
C  C61  1  0.11050512  0.46108238  0.67723586  1  0.45442  -0.000355  0.057023  0.10111  -0.000503  3.936712  -0.001
C  C62  1  0.89250403  0.56084668  0.24278458  1  0.01014  0.004333  -0.083202  -0.177308  0.003373  3.952669  0.003
C  C63  1  0.10750780  0.43915083  0.75721176  1  0.010141  0.004331  -0.083178  -0.177159  0.003371  3.952747  0.003
C  C64  1  0.90199272  0.66900275  0.06936197  1  -0.024394  -0.002274  -0.072695  -0.190639  -0.002604  3.858288  -0.003
C  C65  1  0.09801003  0.33100022  0.93063974  1  -0.022622  -0.002275  -0.072688  -0.190574  -0.002603  3.858485  -0.003
C  C66  1  0.88917303  0.70455333  0.98830924  1  0.461728  0.020949  0.130402  0.188137  0.016523  3.976018  0.013
C  C67  1  0.11082805  0.29544215  0.01168976  1  0.461722  0.020945  0.130447  0.188108  0.016519  3.976172  0.013
C  C68  1  0.03157084  0.67845628  0.93988610  1  0.51714  0.012001  0.122791  0.167295  0.009548  3.968871  0.008
C  C69  1  0.96842979  0.32154036  0.06011663  1  0.516942  0.011999  0.122728  0.167275  0.009547  3.96889  0.008
C  C70  1  0.19534424  0.61556875  0.97004226  1  -0.081942  0.000527  -0.079991  -0.161001  -5.6e-05  3.911319  -0.001
C  C71  1  0.80465693  0.38443525  0.02995875  1  -0.081766  0.000527  -0.080009  -0.161047  -5.7e-05  3.911073  -0.001
C  C72  1  0.31936247  0.59803449  0.91867787  1  -0.109317  0.011724  -0.066227  -0.023425  0.008954  3.952369  0.007
C  C73  1  0.68063735  0.40197587  0.08132272  1  -0.109558  0.011722  -0.066164  -0.023326  0.008952  3.952262  0.007
C  C74  1  0.27776918  0.64362788  0.83916088  1  0.043451  0.001886  -0.075991  -0.115883  0.001038  3.963568  0.001
C  C75  1  0.72223139  0.35638351  0.16083898  1  0.04358  0.001885  -0.076078  -0.116101  0.001037  3.963674  0.001
C  C76  1  0.11197471  0.70543209  0.81357408  1  0.46591  0.013886  0.05728  0.089093  0.011767  3.974237  0.009
C  C77  1  0.88802037  0.29456979  0.18642620  1  0.466013  0.013883  0.057231  0.089147  0.011764  3.974537  0.009
C  C78  1  0.75226824  0.09504114  0.79204638  1  1.538405  0.012135  0.201994  0.548554  0.01374  4.244019  0.01
C  C79  1  0.24771465  0.90495648  0.20795191  1  1.538368  0.012139  0.202027  0.548681  0.013742  4.244022  0.01
C  C80  1  0.74445438  0.23989523  0.74645590  1  -0.053031  -0.0014  -0.028029  -0.061688  -0.002218  4.021103  -0.002
C  C81  1  0.25553084  0.76010237  0.25354180  1  -0.052774  -0.001401  -0.027934  -0.061666  -0.002218  4.021266  -0.002
C  C82  1  0.74638023  0.27451616  0.66560647  1  -0.018604  0.004859  -0.065548  -0.093988  0.003614  3.911628  0.003
C  C83  1  0.25360596  0.72548774  0.33438912  1  -0.018673  0.00486  -0.065535  -0.093919  0.003615  3.911538  0.003
C  C84  1  0.72998463  0.41216646  0.62391417  1  -0.026633  -0.001038  -0.011216  -0.02781  -0.001084  3.954097  -0.001
C  C85  1  0.27000628  0.58783427  0.37608187  1  -0.026435  -0.001038  -0.011307  -0.027899  -0.001084  3.954287  -0.001
C  C86  1  0.70968069  0.51628926  0.66307435  1  -0.089983  0.00498  -0.06343  -0.085213  0.003706  3.899  0.003
C  C87  1  0.29029474  0.48371263  0.33692446  1  -0.090558  0.004981  -0.063355  -0.085007  0.003707  3.898908  0.003
C  C88  1  0.70834419  0.48252177  0.74393593  1  0.086741  -0.001223  -0.026213  -0.057479  -0.001935  4.018339  -0.002
C  C89  1  0.29163903  0.51747796  0.25606202  1  0.086527  -0.001224  -0.026239  -0.057684  -0.001936  4.018517  -0.002
C  C90  1  0.72609353  0.34430614  0.78524026  1  -0.123394  0.006396  -0.078488  -0.102868  0.004823  3.944368  0.004
C  C91  1  0.27388497  0.65569677  0.21475724  1  -0.123818  0.006398  -0.078505  -0.102854  0.004824  3.944679  0.004
C  C92  1  0.73777891  0.44391306  0.53755775  1  1.571331  4e-06  0.216095  0.572714  -1.7e-05  4.1487  0.0
C  C93  1  0.26224163  0.55607701  0.46243855  1  1.570853  4e-06  0.216173  0.572645  -1.6e-05  4.148545  0.0
C  C94  1  0.70051939  0.58977297  0.78728910  1  1.510329  0.011824  0.197467  0.542949  0.0134  4.249559  0.01
C  C95  1  0.29947081  0.41022373  0.21271484  1  1.510701  0.011823  0.197602  0.54326  0.013399  4.249528  0.01
N  N96  1  0.47094208  0.88720364  0.85632774  1  -1.266275  0.063143  -0.317236  -0.274283  0.042829  3.513154  0.024
N  N97  1  0.52905779  0.11279198  0.14367628  1  -1.266689  0.063154  -0.317205  -0.274275  0.042828  3.51322  0.024
N  N98  1  0.74188619  0.76874412  0.94786886  1  -1.211026  0.061755  -0.316709  -0.298436  0.04307  3.534434  0.024
N  N99  1  0.25811231  0.23124618  0.05213433  1  -1.21085  0.061745  -0.316693  -0.298465  0.043072  3.534389  0.024
N  N100  1  0.99200379  0.72171008  0.86241054  1  -1.272751  0.063697  -0.316522  -0.272534  0.04321  3.51356  0.025
N  N101  1  0.00799230  0.27828343  0.13759329  1  -1.272782  0.063692  -0.316411  -0.272466  0.043208  3.513748  0.025
N  N102  1  0.76922319  0.62006024  0.35615271  1  -1.208045  0.004047  -0.29391  -0.203954  0.003193  3.417144  0.003
N  N103  1  0.23079420  0.37993198  0.64384440  1  -1.208111  0.004046  -0.29388  -0.203959  0.003193  3.417199  0.003
O  O104  1  0.74396821  0.00866422  0.75277757  1  -1.183125  0.069769  -0.329697  -0.538989  0.044058  2.249585  0.024
O  O105  1  0.25602706  0.99133133  0.24722315  1  -1.182989  0.069778  -0.329665  -0.538977  0.044058  2.249401  0.024
O  O106  1  0.75954516  0.06479182  0.86506778  1  -1.186121  0.024591  -0.320785  -0.57111  0.018236  2.181327  0.016
O  O107  1  0.24043047  0.93521545  0.13493409  1  -1.18617  0.024593  -0.320854  -0.571184  0.018235  2.181387  0.016
O  O108  1  0.73028507  0.36133076  0.50064015  1  -1.14486  -0.000148  -0.319272  -0.513507  -0.000154  2.03406  0.0
O  O109  1  0.26975371  0.63865412  0.49936181  1  -1.144588  -0.000148  -0.319312  -0.513512  -0.000154  2.033802  0.0
O  O110  1  0.75680572  0.56806125  0.50707586  1  -1.168762  -3.8e-05  -0.344804  -0.488252  -4.2e-05  2.306076  0.0
O  O111  1  0.24323202  0.43192038  0.49292326  1  -1.168446  -3.8e-05  -0.344789  -0.488206  -4.2e-05  2.30617  0.0
O  O112  1  0.70707589  0.71037612  0.74756516  1  -1.175472  0.071374  -0.328761  -0.535246  0.045546  2.230119  0.028
O  O113  1  0.29290141  0.28962693  0.25243735  1  -1.175735  0.071389  -0.328832  -0.535436  0.045549  2.230124  0.028
O  O114  1  0.69486699  0.55800813  0.85996489  1  -1.175092  0.029492  -0.316407  -0.567515  0.02199  2.195965  0.019
O  O115  1  0.30513758  0.44197268  0.14004028  1  -1.174981  0.029503  -0.316472  -0.56758  0.021994  2.195963  0.019
