# generated using pymatgen
data_Zn3H8C14(NO)6
_symmetry_space_group_name_H-M   'P 1'
_cell_length_a   11.04943902
_cell_length_b   11.04943894
_cell_length_c   11.04239727
_cell_angle_alpha   88.32421068
_cell_angle_beta   88.32388183
_cell_angle_gamma   69.25194277
_symmetry_Int_Tables_number   1
_chemical_formula_structural   Zn3H8C14(NO)6
_chemical_formula_sum   'Zn6 H16 C28 N12 O12'
_cell_volume   1259.93845354
_cell_formula_units_Z   2
loop_
 _symmetry_equiv_pos_site_id
 _symmetry_equiv_pos_as_xyz
  1  'x, y, z'
loop_
 _atom_site_type_symbol
 _atom_site_label
 _atom_site_symmetry_multiplicity
 _atom_site_fract_x
 _atom_site_fract_y
 _atom_site_fract_z
 _atom_site_occupancy
 _atom_site_pbe_bader_spin_density
 _atom_site_pbe_cm5_charge
 _atom_site_pbe_ddec_charge
 _atom_site_pbe_ddec_spin_density
 _atom_site_pbe_ddec_sum_bond_order
 _atom_site_pbe_magmom
Zn  Zn0  1  0.47511156  0.35971132  0.99981490  1  0  0.693299  0.826217  0  2.359573  0
Zn  Zn1  1  0.64029013  0.52489007  0.50018419  1  0  0.693274  0.826211  0  2.359591  0
Zn  Zn2  1  0.52488996  0.64029012  0.00018548  1  0  0.693278  0.826198  0  2.35958  0
Zn  Zn3  1  0.35971145  0.47510849  0.49981539  1  0  0.693303  0.826261  0  2.359509  0
Zn  Zn4  1  0.59795285  0.40204844  0.24999903  1  0  0.657184  0.827859  0  2.478595  0
Zn  Zn5  1  0.40204742  0.59795397  0.74999864  1  0  0.657191  0.827851  0  2.47862  0
H  H6  1  0.55565941  0.93587759  0.05727082  1  0  0.10971  0.130118  0  1.03914  0
H  H7  1  0.06412564  0.44433381  0.44273004  1  0  0.109695  0.130131  0  1.039153  0
H  H8  1  0.44434024  0.06412680  0.94273314  1  0  0.109717  0.130142  0  1.039144  0
H  H9  1  0.93587540  0.55566089  0.55726698  1  0  0.109726  0.130159  0  1.039056  0
H  H10  1  0.64126358  0.84693610  0.50495989  1  0  0.109617  0.121492  0  0.991473  0
H  H11  1  0.15307378  0.35872714  0.99504022  1  0  0.109593  0.121523  0  0.991455  0
H  H12  1  0.35872935  0.15306937  0.49504247  1  0  0.109574  0.121482  0  0.991496  0
H  H13  1  0.84693033  0.64126654  0.00495763  1  0  0.109606  0.121511  0  0.991498  0
H  H14  1  0.64190141  0.05320279  0.40415341  1  0  0.103254  0.108771  0  1.010788  0
H  H15  1  0.94680011  0.35809611  0.09584541  1  0  0.103274  0.108765  0  1.010842  0
H  H16  1  0.35809738  0.94679872  0.59584978  1  0  0.103243  0.108748  0  1.010799  0
H  H17  1  0.05319865  0.64190537  0.90415145  1  0  0.10327  0.108755  0  1.010892  0
H  H18  1  0.69434058  0.38157989  0.04079253  1  0  0.302898  0.389622  0  0.903575  0
H  H19  1  0.61842319  0.30566101  0.45920331  1  0  0.302925  0.389654  0  0.90358  0
H  H20  1  0.30565942  0.61842061  0.95920432  1  0  0.302919  0.389649  0  0.90356  0
H  H21  1  0.38157771  0.69433945  0.54079079  1  0  0.30289  0.389581  0  0.903644  0
C  C22  1  0.59365817  0.13590835  0.17627435  1  0  0.210625  0.5925  0  4.180567  0
C  C23  1  0.86409365  0.40634376  0.32372562  1  0  0.210736  0.592607  0  4.180527  0
C  C24  1  0.40634517  0.86409306  0.82372596  1  0  0.210743  0.592669  0  4.180416  0
C  C25  1  0.13590662  0.59365866  0.67627296  1  0  0.210637  0.592467  0  4.180565  0
C  C26  1  0.59840807  0.00594326  0.22668204  1  0  -0.019454  -0.035241  0  3.960675  0
C  C27  1  0.99405710  0.40158745  0.27332147  1  0  -0.01939  -0.035016  0  3.960383  0
C  C28  1  0.40159008  0.99406019  0.77332111  1  0  -0.019427  -0.035198  0  3.960539  0
C  C29  1  0.00594143  0.59841213  0.72667909  1  0  -0.019433  -0.035155  0  3.960559  0
C  C30  1  0.57461717  0.91695285  0.15326371  1  0  -0.077255  -0.153255  0  3.914467  0
C  C31  1  0.08304666  0.42537735  0.34673803  1  0  -0.077251  -0.153341  0  3.914411  0
C  C32  1  0.42537949  0.08304968  0.84674133  1  0  -0.077276  -0.153296  0  3.91444  0
C  C33  1  0.91695218  0.57462125  0.65326165  1  0  -0.077245  -0.153308  0  3.91438  0
C  C34  1  0.57471556  0.80118680  0.20915951  1  0  0.096267  0.13015  0  4.034909  0
C  C35  1  0.19882169  0.42527407  0.29084084  1  0  0.096291  0.130114  0  4.035022  0
C  C36  1  0.42527581  0.19882062  0.79084284  1  0  0.096243  0.130071  0  4.035132  0
C  C37  1  0.80118398  0.57471766  0.70915793  1  0  0.096241  0.130106  0  4.034978  0
C  C38  1  0.59865156  0.77652417  0.33460284  1  0  0.097064  0.129219  0  4.069464  0
C  C39  1  0.22348209  0.40133809  0.16540017  1  0  0.097121  0.129242  0  4.069668  0
C  C40  1  0.40133865  0.22348137  0.66540143  1  0  0.09711  0.129192  0  4.069691  0
C  C41  1  0.77652119  0.59865274  0.83460054  1  0  0.097098  0.129243  0  4.069553  0
C  C42  1  0.62354529  0.86601354  0.40848996  1  0  -0.090026  -0.156154  0  4.004056  0
C  C43  1  0.13399373  0.37644456  0.09151320  1  0  -0.09  -0.156119  0  4.004137  0
C  C44  1  0.37644427  0.13399394  0.59151517  1  0  -0.089963  -0.156092  0  4.004122  0
C  C45  1  0.86600824  0.62355014  0.90848742  1  0  -0.089966  -0.156107  0  4.004137  0
C  C46  1  0.62336254  0.97942957  0.35247299  1  0  -0.085917  -0.094255  0  3.995864  0
C  C47  1  0.02057535  0.37663200  0.14752678  1  0  -0.086013  -0.09444  0  3.995981  0
C  C48  1  0.37663561  0.02057387  0.64753016  1  0  -0.08596  -0.094292  0  3.995866  0
C  C49  1  0.97942563  0.62336560  0.85247104  1  0  -0.085984  -0.094315  0  3.996022  0
N  N50  1  0.55523724  0.69422885  0.16573645  1  0  -0.231465  -0.220581  0  3.484623  0
N  N51  1  0.30577553  0.44475657  0.33426546  1  0  -0.231492  -0.220596  0  3.484733  0
N  N52  1  0.44476031  0.30577363  0.83426494  1  0  -0.231465  -0.220569  0  3.484561  0
N  N53  1  0.69422925  0.55523520  0.66573607  1  0  -0.231507  -0.220684  0  3.484784  0
N  N54  1  0.56594924  0.61156138  0.25842802  1  0  -0.09772  -0.018028  0  3.458851  0
N  N55  1  0.38844138  0.43404793  0.24157355  1  0  -0.097667  -0.017966  0  3.458862  0
N  N56  1  0.43405045  0.38844010  0.74157242  1  0  -0.097703  -0.017995  0  3.458713  0
N  N57  1  0.61156183  0.56594579  0.75842705  1  0  -0.097657  -0.01791  0  3.458786  0
N  N58  1  0.59214353  0.65755086  0.36017688  1  0  -0.233606  -0.219028  0  3.500563  0
N  N59  1  0.34245456  0.40785044  0.13982478  1  0  -0.233684  -0.219092  0  3.500587  0
N  N60  1  0.40785097  0.34245266  0.63982550  1  0  -0.233637  -0.219019  0  3.500575  0
N  N61  1  0.65754988  0.59214229  0.86017491  1  0  -0.233695  -0.219079  0  3.50048  0
O  O62  1  0.55406403  0.16689653  0.06827398  1  0  -0.326475  -0.567766  0  2.292018  0
O  O63  1  0.83310467  0.44594126  0.43172429  1  0  -0.326506  -0.567817  0  2.292085  0
O  O64  1  0.44594021  0.83310486  0.93172540  1  0  -0.326519  -0.567842  0  2.292067  0
O  O65  1  0.16689403  0.55406311  0.56827246  1  0  -0.326456  -0.56777  0  2.292028  0
O  O66  1  0.62754694  0.20554032  0.24803289  1  0  -0.322104  -0.550069  0  2.340327  0
O  O67  1  0.79446272  0.37245867  0.25196520  1  0  -0.322142  -0.550116  0  2.340231  0
O  O68  1  0.37246069  0.79445908  0.75196644  1  0  -0.322135  -0.550121  0  2.340182  0
O  O69  1  0.20553905  0.62754468  0.74803329  1  0  -0.322112  -0.550043  0  2.34028  0
O  O70  1  0.60432421  0.42884254  0.06248132  1  0  -0.567325  -0.827639  0  2.273899  0
O  O71  1  0.57116035  0.39567696  0.43751675  1  0  -0.567352  -0.827705  0  2.273972  0
O  O72  1  0.39567605  0.57115987  0.93751545  1  0  -0.56732  -0.827672  0  2.273948  0
O  O73  1  0.42884088  0.60432254  0.56248009  1  0  -0.567314  -0.827587  0  2.273911  0
