# generated using pymatgen
data_CdH8C6(N2Cl)2
_symmetry_space_group_name_H-M   'P 1'
_cell_length_a   3.88450683
_cell_length_b   9.29515953
_cell_length_c   13.73082662
_cell_angle_alpha   96.12996370
_cell_angle_beta   89.97554388
_cell_angle_gamma   101.97293651
_symmetry_Int_Tables_number   1
_chemical_formula_structural   CdH8C6(N2Cl)2
_chemical_formula_sum   'Cd2 H16 C12 N8 Cl4'
_cell_volume   482.10172266
_cell_formula_units_Z   2
loop_
 _symmetry_equiv_pos_site_id
 _symmetry_equiv_pos_as_xyz
  1  'x, y, z'
loop_
 _atom_site_type_symbol
 _atom_site_label
 _atom_site_symmetry_multiplicity
 _atom_site_fract_x
 _atom_site_fract_y
 _atom_site_fract_z
 _atom_site_occupancy
 _atom_site_hle17_bader_spin_density
 _atom_site_hle17_ddec_charge
 _atom_site_hle17_ddec_spin_density
 _atom_site_hle17_ddec_sum_bond_order
 _atom_site_hle17_magmom
 _atom_site_hse06_10hf_bader_spin_density
 _atom_site_hse06_10hf_ddec_charge
 _atom_site_hse06_10hf_ddec_spin_density
 _atom_site_hse06_10hf_ddec_sum_bond_order
 _atom_site_hse06_10hf_magmom
 _atom_site_hse06_bader_spin_density
 _atom_site_hse06_ddec_charge
 _atom_site_hse06_ddec_spin_density
 _atom_site_hse06_ddec_sum_bond_order
 _atom_site_hse06_magmom
 _atom_site_pbe_bader_spin_density
 _atom_site_pbe_cm5_charge
 _atom_site_pbe_ddec_charge
 _atom_site_pbe_ddec_spin_density
 _atom_site_pbe_ddec_sum_bond_order
 _atom_site_pbe_magmom
Cd  Cd0  1  0.96739681  0.99979768  0.74998444  1  0  0.940467  0  1.974089  0  0  0.776436  0  2.434721  0  0  0.821649  0  2.395107  0  0  0.616068  0.744443  0  2.462556  0
Cd  Cd1  1  0.03260845  0.00020066  0.25001495  1  0  0.940485  0  1.973984  0  0  0.776451  0  2.434603  0  0  0.821665  0  2.39499  0  0  0.616081  0.744458  0  2.462453  0
H  H2  1  0.20487529  0.87906935  0.94918907  1  0  0.288002  0  0.89695  0  0  0.263279  0  0.972184  0  0  0.270734  0  0.965945  0  0  0.306194  0.25793  0  0.976738  0
H  H3  1  0.32461921  0.12134198  0.55068523  1  0  0.288731  0  0.896385  0  0  0.264323  0  0.971287  0  0  0.271719  0  0.96517  0  0  0.3064  0.258462  0  0.976642  0
H  H4  1  0.79513567  0.12093009  0.05080967  1  0  0.287998  0  0.896888  0  0  0.26329  0  0.972139  0  0  0.270748  0  0.965893  0  0  0.306184  0.257942  0  0.976689  0
H  H5  1  0.67538200  0.87865857  0.44931431  1  0  0.288726  0  0.896382  0  0  0.264319  0  0.971282  0  0  0.271715  0  0.965166  0  0  0.3064  0.258457  0  0.976639  0
H  H6  1  0.99634407  0.64264740  0.02704828  1  0  0.101085  0  0.966237  0  0  0.112797  0  1.029245  0  0  0.114908  0  1.027416  0  0  0.117019  0.111108  0  1.030904  0
H  H7  1  0.35304596  0.35860542  0.47377787  1  0  0.101153  0  0.965945  0  0  0.112886  0  1.029076  0  0  0.114988  0  1.027261  0  0  0.117064  0.11113  0  1.030791  0
H  H8  1  0.00365714  0.35735316  0.97295199  1  0  0.10107  0  0.966263  0  0  0.112793  0  1.029245  0  0  0.114904  0  1.027417  0  0  0.11702  0.111104  0  1.030897  0
H  H9  1  0.64696005  0.64139960  0.52622635  1  0  0.101134  0  0.96594  0  0  0.112866  0  1.029075  0  0  0.114969  0  1.027259  0  0  0.117043  0.111106  0  1.030787  0
H  H10  1  0.53467647  0.45786378  0.88970851  1  0  0.120444  0  0.978048  0  0  0.129604  0  1.039467  0  0  0.132228  0  1.039653  0  0  0.103062  0.12725  0  1.04014  0
H  H11  1  0.07649383  0.54308733  0.61185255  1  0  0.121216  0  0.976301  0  0  0.130785  0  1.036825  0  0  0.133425  0  1.036967  0  0  0.103165  0.127468  0  1.039592  0
H  H12  1  0.46531408  0.54214119  0.11029061  1  0  0.120346  0  0.97803  0  0  0.129569  0  1.03939  0  0  0.132195  0  1.039571  0  0  0.103041  0.127216  0  1.040062  0
H  H13  1  0.92349803  0.45690996  0.38815186  1  0  0.121216  0  0.976291  0  0  0.130765  0  1.036828  0  0  0.133409  0  1.036958  0  0  0.103141  0.12745  0  1.039593  0
H  H14  1  0.52677637  0.63127397  0.73838584  1  0  0.093567  0  0.969138  0  0  0.103416  0  1.034895  0  0  0.105076  0  1.03395  0  0  0.111702  0.101742  0  1.036551  0
H  H15  1  0.89459293  0.36852524  0.76248976  1  0  0.092672  0  0.969695  0  0  0.102298  0  1.036214  0  0  0.103889  0  1.03533  0  0  0.111419  0.101396  0  1.036301  0
H  H16  1  0.47322815  0.36873321  0.26161342  1  0  0.093583  0  0.969097  0  0  0.103382  0  1.034913  0  0  0.105035  0  1.033976  0  0  0.111697  0.101709  0  1.03657  0
H  H17  1  0.10539615  0.63146647  0.23750917  1  0  0.092595  0  0.969681  0  0  0.102249  0  1.036174  0  0  0.103838  0  1.035294  0  0  0.111406  0.10135  0  1.036266  0
C  C18  1  0.90747155  0.65955702  0.95525522  1  0  0.063261  0  3.692004  0  0  0.014453  0  3.956125  0  0  0.023678  0  3.970895  0  0  0.019757  0.008295  0  3.946288  0
C  C19  1  0.24715613  0.34127056  0.54549721  1  0  0.061132  0  3.695709  0  0  0.012214  0  3.960238  0  0  0.021419  0  3.975022  0  0  0.018878  0.006749  0  3.948919  0
C  C20  1  0.09252304  0.34044573  0.04474301  1  0  0.063234  0  3.691873  0  0  0.014446  0  3.956031  0  0  0.023669  0  3.970803  0  0  0.019764  0.008298  0  3.946178  0
C  C21  1  0.75284563  0.65873110  0.45450314  1  0  0.061127  0  3.695718  0  0  0.012212  0  3.960252  0  0  0.021416  0  3.975036  0  0  0.018878  0.006756  0  3.948918  0
C  C22  1  0.67872191  0.56988307  0.88503467  1  0  -0.230432  0  3.777345  0  0  -0.237648  0  4.033517  0  0  -0.24798  0  4.054906  0  0  -0.121412  -0.230498  0  4.018454  0
C  C23  1  0.10816689  0.43077773  0.61603125  1  0  -0.229131  0  3.774497  0  0  -0.236616  0  4.030552  0  0  -0.246954  0  4.051892  0  0  -0.120919  -0.229232  0  4.016406  0
C  C24  1  0.32126532  0.43011527  0.11496399  1  0  -0.230339  0  3.777415  0  0  -0.237624  0  4.033597  0  0  -0.247955  0  4.054985  0  0  -0.121367  -0.230478  0  4.018534  0
C  C25  1  0.89184041  0.56921955  0.38397317  1  0  -0.229061  0  3.774593  0  0  -0.236506  0  4.030638  0  0  -0.24684  0  4.05198  0  0  -0.120833  -0.22912  0  4.016487  0
C  C26  1  0.67430911  0.65657607  0.80725573  1  0  0.064038  0  3.718306  0  0  0.022892  0  3.985595  0  0  0.031654  0  4.001652  0  0  0.014183  0.017661  0  3.973977  0
C  C27  1  0.01697522  0.34357484  0.69351888  1  0  0.064854  0  3.716689  0  0  0.023589  0  3.984515  0  0  0.032478  0  4.000442  0  0  0.014813  0.01829  0  3.972564  0
C  C28  1  0.32568511  0.34343111  0.19274280  1  0  0.063995  0  3.718412  0  0  0.022891  0  3.985697  0  0  0.031658  0  4.001751  0  0  0.014146  0.017662  0  3.974084  0
C  C29  1  0.98301607  0.65642131  0.30648255  1  0  0.06485  0  3.716884  0  0  0.023547  0  3.984737  0  0  0.032438  0  4.000665  0  0  0.014791  0.018244  0  3.972796  0
N  N30  1  0.88663525  0.78981940  0.82871688  1  0  -0.249032  0  3.203249  0  0  -0.190972  0  3.479167  0  0  -0.207365  0  3.500144  0  0  -0.260568  -0.179469  0  3.464288  0
N  N31  1  0.09564048  0.21014880  0.67157183  1  0  -0.249371  0  3.203275  0  0  -0.191187  0  3.478909  0  0  -0.207578  0  3.499876  0  0  -0.261229  -0.180212  0  3.465472  0
N  N32  1  0.11337165  0.21018225  0.17128128  1  0  -0.249042  0  3.203303  0  0  -0.190921  0  3.479198  0  0  -0.207317  0  3.50018  0  0  -0.260519  -0.179424  0  3.464327  0
N  N33  1  0.90435687  0.78984400  0.32842645  1  0  -0.249316  0  3.203262  0  0  -0.191134  0  3.47893  0  0  -0.207523  0  3.499896  0  0  -0.261218  -0.18016  0  3.465502  0
N  N34  1  0.02393439  0.78941769  0.91872575  1  0  -0.143836  0  3.532227  0  0  -0.082306  0  3.764047  0  0  -0.094242  0  3.78469  0  0  -0.284459  -0.074591  0  3.75026  0
N  N35  1  0.23335204  0.21096647  0.58154320  1  0  -0.143682  0  3.533491  0  0  -0.082761  0  3.76537  0  0  -0.094706  0  3.786071  0  0  -0.283885  -0.074748  0  3.752135  0
N  N36  1  0.97608374  0.21058066  0.08127509  1  0  -0.143737  0  3.532078  0  0  -0.082314  0  3.763998  0  0  -0.094247  0  3.784637  0  0  -0.284478  -0.074596  0  3.750202  0
N  N37  1  0.76664917  0.78903409  0.41845706  1  0  -0.143705  0  3.533468  0  0  -0.082783  0  3.765359  0  0  -0.09473  0  3.786059  0  0  -0.283897  -0.074767  0  3.752118  0
Cl  Cl38  1  0.41944611  0.89144221  0.62559190  1  0  -0.577905  0  0.935718  0  0  -0.524116  0  1.21914  0  0  -0.539834  0  1.198571  0  0  -0.313927  -0.511639  0  1.235433  0
Cl  Cl39  1  0.52656865  0.10813489  0.87433541  1  0  -0.577244  0  0.938632  0  0  -0.523372  0  1.222883  0  0  -0.539198  0  1.202337  0  0  -0.313347  -0.511559  0  1.237692  0
Cl  Cl40  1  0.58055363  0.10856055  0.37440780  1  0  -0.577904  0  0.935675  0  0  -0.524105  0  1.219081  0  0  -0.539823  0  1.198511  0  0  -0.313915  -0.51162  0  1.235378  0
Cl  Cl41  1  0.47343918  0.89186344  0.12566325  1  0  -0.577249  0  0.938631  0  0  -0.523388  0  1.222907  0  0  -0.539211  0  1.202357  0  0  -0.313343  -0.511565  0  1.237722  0
