# generated using pymatgen
data_ZnH17C22NO6
_symmetry_space_group_name_H-M   'P 1'
_cell_length_a   11.03850759
_cell_length_b   16.33385581
_cell_length_c   17.85109930
_cell_angle_alpha   95.95993533
_cell_angle_beta   90.10802154
_cell_angle_gamma   91.94572835
_symmetry_Int_Tables_number   1
_chemical_formula_structural   ZnH17C22NO6
_chemical_formula_sum   'Zn2 H34 C44 N2 O12'
_cell_volume   3199.28772101
_cell_formula_units_Z   2
loop_
 _symmetry_equiv_pos_site_id
 _symmetry_equiv_pos_as_xyz
  1  'x, y, z'
loop_
 _atom_site_type_symbol
 _atom_site_label
 _atom_site_symmetry_multiplicity
 _atom_site_fract_x
 _atom_site_fract_y
 _atom_site_fract_z
 _atom_site_occupancy
 _atom_site_pbe_bader_charge
 _atom_site_pbe_bader_spin_density
 _atom_site_pbe_cm5_charge
 _atom_site_pbe_ddec_charge
 _atom_site_pbe_ddec_spin_density
 _atom_site_pbe_ddec_sum_bond_order
 _atom_site_pbe_magmom
Zn  Zn0  1  0.49617275  0.41485363  0.49439164  1  1.28058  0  0.662354  0.800611  0  2.461937  0
Zn  Zn1  1  0.50396347  0.58428503  0.50531763  1  1.268638  0  0.663188  0.803179  0  2.462778  0
H  H2  1  0.37520133  0.71056854  0.42862181  1  0.121473  0  0.127882  0.099458  0  0.992751  0
H  H3  1  0.37894811  0.86198137  0.42904943  1  0.112987  0  0.113076  0.130751  0  1.033676  0
H  H4  1  0.66802973  0.86918591  0.59670914  1  0.045362  0  0.111549  0.100001  0  1.021447  0
H  H5  1  0.64999583  0.71988086  0.58704437  1  0.12291  0  0.13302  0.110904  0  0.96068  0
H  H6  1  0.33343875  0.12996929  0.40183426  1  0.014418  0  0.111314  0.099072  0  1.022368  0
H  H7  1  0.61861169  0.13710228  0.57195728  1  0.140051  0  0.113131  0.130921  0  1.032419  0
H  H8  1  0.62243577  0.28877461  0.57254153  1  0.123359  0  0.130143  0.102512  0  0.979529  0
H  H9  1  0.35116047  0.27933554  0.41192031  1  0.132499  0  0.133027  0.111342  0  0.962053  0
H  H10  1  0.50625550  0.61944800  0.26319870  1  0.087711  0  0.100272  0.100322  0  1.008633  0
H  H11  1  0.50660098  0.61201921  0.12493546  1  0.126537  0  0.100775  0.112524  0  1.052836  0
H  H12  1  0.49133918  0.34497366  0.11632296  1  0.009018  0  0.097286  0.076575  0  1.04027  0
H  H13  1  0.49100370  0.35614989  0.25202210  1  0.09394  0  0.102704  0.106949  0  1.002719  0
H  H14  1  0.50879930  0.65580929  0.88376071  1  0.001049  0  0.097326  0.076681  0  1.040924  0
H  H15  1  0.49317085  0.38869504  0.87446933  1  0.127847  0  0.100211  0.111755  0  1.050684  0
H  H16  1  0.49392380  0.38176693  0.73614719  1  0.083919  0  0.101139  0.103074  0  1.002604  0
H  H17  1  0.50961941  0.64507043  0.74812484  1  0.092403  0  0.102233  0.106152  0  1.003527  0
H  H18  1  0.78064601  0.59840639  0.40217636  1  0.104486  0  0.097162  0.11366  0  1.033957  0
H  H19  1  0.22937683  0.59456790  0.40013803  1  0.04425  0  0.0944  0.104403  0  1.048539  0
H  H20  1  0.65638387  0.96870585  0.59512625  1  0.604605  0  0.325088  0.351108  0  0.926839  0
H  H21  1  0.34292639  0.03045539  0.40473238  1  0.613093  0  0.325223  0.351664  0  0.926564  0
H  H22  1  0.49047872  0.35230118  0.02784378  1  0.603001  0  0.31477  0.340765  0  0.95003  0
H  H23  1  0.50962218  0.64816720  0.97186832  1  0.603612  0  0.314529  0.34144  0  0.949226  0
H  H24  1  0.09263787  0.41680488  0.66101243  1  0.016058  0  0.089161  0.119849  0  1.006937  0
H  H25  1  0.22282395  0.40841757  0.60250307  1  0.056136  0  0.092478  0.141267  0  1.022568  0
H  H26  1  0.10155869  0.33464292  0.58922966  1  0.027634  0  0.087575  0.118297  0  0.996018  0
H  H27  1  0.87865712  0.33540234  0.58845007  1  -0.018823  0  0.087136  0.116948  0  0.999287  0
H  H28  1  0.76879458  0.41192451  0.60466934  1  0.027931  0  0.090364  0.133509  0  1.033662  0
H  H29  1  0.90225478  0.41609701  0.66106303  1  0.036176  0  0.089528  0.121133  0  1.008402  0
H  H30  1  0.90145377  0.76451758  0.31947246  1  0.021935  0  0.084642  0.111163  0  1.006873  0
H  H31  1  0.77815310  0.69087123  0.31248930  1  0.045256  0  0.091257  0.127224  0  1.000417  0
H  H32  1  0.89838076  0.68316148  0.24621232  1  0.01757  0  0.08978  0.120344  0  0.99833  0
H  H33  1  0.11833498  0.68347844  0.24584386  1  0.020531  0  0.090877  0.123071  0  0.99649  0
H  H34  1  0.24180700  0.68764922  0.31018386  1  0.015613  0  0.088351  0.120188  0  1.0122  0
H  H35  1  0.12881427  0.76347082  0.32017410  1  0.031546  0  0.084122  0.110422  0  1.006116  0
C  C36  1  0.49744782  0.49205781  0.35111323  1  1.579809  0  0.21138  0.587796  0  4.179207  0
C  C37  1  0.26309247  0.49719842  0.50006524  1  1.554185  0  0.218763  0.612122  0  4.150767  0
C  C38  1  0.50309601  0.50965598  0.64871134  1  1.566954  0  0.210055  0.583992  0  4.184506  0
C  C39  1  0.73691866  0.49896992  0.50077105  1  1.553012  0  0.218933  0.611109  0  4.149647  0
C  C40  1  0.43833576  0.74941811  0.46481948  1  0.507394  0  0.062673  0.108585  0  3.914935  0
C  C41  1  0.44088606  0.83442251  0.46545233  1  0.000418  0  -0.080669  -0.161285  0  3.910855  0
C  C42  1  0.52299435  0.88349723  0.51335251  1  -0.003497  0  0.004842  0.070467  0  4.00959  0
C  C43  1  0.59936110  0.83973772  0.55769232  1  -0.096986  0  -0.088301  -0.197571  0  3.978137  0
C  C44  1  0.59137406  0.75451084  0.55354783  1  0.584007  0  0.063355  0.115631  0  3.922914  0
C  C45  1  0.53283972  0.97374858  0.51974008  1  0.538323  0  0.072287  0.134562  0  3.992259  0
C  C46  1  0.46670804  0.02538050  0.47996922  1  0.449028  0  0.071868  0.134243  0  3.994671  0
C  C47  1  0.40109335  0.15941823  0.44155115  1  0.025618  0  -0.088947  -0.197993  0  3.980872  0
C  C48  1  0.47652837  0.11563863  0.48644251  1  -0.007851  0  0.004346  0.071505  0  4.008639  0
C  C49  1  0.55762495  0.16474062  0.53504962  1  0.055881  0  -0.081405  -0.162932  0  3.913448  0
C  C50  1  0.56028028  0.24976127  0.53574345  1  0.460643  0  0.063449  0.109212  0  3.916851  0
C  C51  1  0.40908175  0.24465451  0.44581077  1  0.486126  0  0.063033  0.113826  0  3.928587  0
C  C52  1  0.49781950  0.48833552  0.26704791  1  -0.04366  0  -0.021201  -0.032736  0  3.970505  0
C  C53  1  0.50251845  0.55964363  0.22970201  1  -0.021015  0  -0.085958  -0.089915  0  3.997673  0
C  C54  1  0.50282433  0.55539236  0.15157282  1  -0.050463  0  -0.094928  -0.120721  0  3.952206  0
C  C55  1  0.49843781  0.47870156  0.10626228  1  -0.009651  0  -0.014383  0.038905  0  4.009788  0
C  C56  1  0.49427066  0.40742713  0.14542079  1  -0.040855  0  -0.10194  -0.155006  0  4.02089  0
C  C57  1  0.49394544  0.41195786  0.22345280  1  -0.0598  0  -0.087117  -0.082869  0  4.004369  0
C  C58  1  0.49801768  0.46931891  0.02354371  1  0.460304  0  0.060757  0.124654  0  4.004883  0
C  C59  1  0.50196345  0.53117995  0.97618832  1  0.532642  0  0.060883  0.125985  0  4.004054  0
C  C60  1  0.50595089  0.59341709  0.85454858  1  -0.034359  0  -0.102771  -0.156827  0  4.025945  0
C  C61  1  0.50158738  0.52197649  0.89348694  1  -0.024252  0  -0.015138  0.038262  0  4.012464  0
C  C62  1  0.49714809  0.44541424  0.84796878  1  -0.034537  0  -0.095158  -0.120772  0  3.952536  0
C  C63  1  0.49768008  0.44144216  0.76984692  1  -0.012151  0  -0.086539  -0.090366  0  3.99864  0
C  C64  1  0.50268827  0.51292687  0.73274187  1  -0.086109  0  -0.020949  -0.033003  0  3.974934  0
C  C65  1  0.50652751  0.58916442  0.77654568  1  -0.028894  0  -0.088357  -0.083561  0  4.008576  0
C  C66  1  0.87275599  0.49918466  0.50140144  1  -0.061759  0  -0.016336  -0.133337  0  3.918088  0
C  C67  1  0.93771079  0.54850637  0.45210643  1  0.004126  0  -0.009432  0.058035  0  4.010362  0
C  C68  1  0.93284524  0.45184137  0.54929862  1  0.038958  0  -0.006702  0.093192  0  3.918926  0
C  C69  1  0.87931152  0.59771095  0.40256002  1  -0.048182  0  -0.102493  -0.20339  0  3.958035  0
C  C70  1  0.94298723  0.64598103  0.35593781  1  -0.05098  0  -0.019446  0.10585  0  3.975134  0
C  C71  1  0.12724945  0.49783165  0.50065847  1  -0.058787  0  -0.016584  -0.132666  0  3.91694  0
C  C72  1  0.06245603  0.45121383  0.54903126  1  0.038536  0  -0.007788  0.091711  0  3.920663  0
C  C73  1  0.06730286  0.54763007  0.45164427  1  0.013347  0  -0.009351  0.057618  0  4.012012  0
C  C74  1  0.13077639  0.59586566  0.40153146  1  -0.048336  0  -0.104002  -0.204788  0  3.970362  0
C  C75  1  0.07241581  0.64509689  0.35546297  1  0.00951  0  -0.020213  0.102371  0  3.979993  0
C  C76  1  0.12417356  0.40076870  0.60309852  1  -0.036312  0  -0.242852  -0.40045  0  3.979465  0
C  C77  1  0.86611126  0.40177506  0.60358106  1  0.002439  0  -0.242998  -0.401931  0  3.987504  0
C  C78  1  0.87662330  0.69863734  0.30609762  1  -0.055158  0  -0.237922  -0.395244  0  3.998278  0
C  C79  1  0.14425069  0.69736725  0.30552649  1  -0.033377  0  -0.237317  -0.392487  0  4.000021  0
N  N80  1  0.51168109  0.70973458  0.50797897  1  -1.235567  0  -0.319239  -0.187633  0  3.510115  0
N  N81  1  0.48794714  0.28942737  0.49196418  1  -1.263489  0  -0.32044  -0.188876  0  3.514255  0
O  O82  1  0.49407802  0.42359765  0.37928279  1  -1.165133  0  -0.319833  -0.546716  0  2.325296  0
O  O83  1  0.50070792  0.56338382  0.38837839  1  -1.181314  0  -0.324534  -0.565866  0  2.31264  0
O  O84  1  0.32018667  0.56658538  0.51006594  1  -1.163729  0  -0.315278  -0.543478  0  2.337894  0
O  O85  1  0.31194208  0.42739695  0.48965176  1  -1.16394  0  -0.315302  -0.547285  0  2.333584  0
O  O86  1  0.50675408  0.57832525  0.62094123  1  -1.163122  0  -0.320059  -0.544743  0  2.324044  0
O  O87  1  0.49949306  0.43848790  0.61114835  1  -1.174429  0  -0.3238  -0.565012  0  2.315859  0
O  O88  1  0.68085202  0.42923199  0.49053085  1  -1.163051  0  -0.316235  -0.541235  0  2.32405  0
O  O89  1  0.68705953  0.56850371  0.51015929  1  -1.16567  0  -0.315114  -0.548989  0  2.346438  0
O  O90  1  0.61646420  0.01094972  0.57052962  1  -1.12629  0  -0.344917  -0.420515  0  2.350835  0
O  O91  1  0.38340096  0.98818365  0.42897433  1  -1.134803  0  -0.345479  -0.421614  0  2.352651  0
O  O92  1  0.49314800  0.38969837  0.98887737  1  -1.133409  0  -0.357814  -0.432507  0  2.36354  0
O  O93  1  0.50688730  0.61081402  0.01086434  1  -1.135656  0  -0.358451  -0.43455  0  2.363016  0
