# generated using pymatgen
data_CdH12C18SN3O4
_symmetry_space_group_name_H-M   'P 1'
_cell_length_a   9.99635955
_cell_length_b   13.06561219
_cell_length_c   24.29497167
_cell_angle_alpha   85.21067374
_cell_angle_beta   84.78154267
_cell_angle_gamma   80.97205813
_symmetry_Int_Tables_number   1
_chemical_formula_structural   CdH12C18SN3O4
_chemical_formula_sum   'Cd6 H72 C108 S6 N18 O24'
_cell_volume   3113.09411071
_cell_formula_units_Z   6
loop_
 _symmetry_equiv_pos_site_id
 _symmetry_equiv_pos_as_xyz
  1  'x, y, z'
loop_
 _atom_site_type_symbol
 _atom_site_label
 _atom_site_symmetry_multiplicity
 _atom_site_fract_x
 _atom_site_fract_y
 _atom_site_fract_z
 _atom_site_occupancy
 _atom_site_pbe_bader_charge
 _atom_site_pbe_bader_spin_density
 _atom_site_pbe_cm5_charge
 _atom_site_pbe_ddec_charge
 _atom_site_pbe_ddec_spin_density
 _atom_site_pbe_ddec_sum_bond_order
 _atom_site_pbe_magmom
Cd  Cd0  1  0.36093267  0.54362058  0.58358777  1  1.336203  0  0.821411  1.007776  0  2.17632  0
Cd  Cd1  1  0.06101007  0.41461055  0.57871430  1  1.352086  0  0.816312  1.079949  0  2.079739  0
Cd  Cd2  1  0.84919665  0.67933089  0.60524032  1  1.32217  0  0.811897  0.9461  0  2.16189  0
Cd  Cd3  1  0.63906888  0.45638047  0.41641186  1  1.336176  0  0.821416  1.007783  0  2.176339  0
Cd  Cd4  1  0.93899047  0.58539049  0.42128619  1  1.35213  0  0.816318  1.079961  0  2.079737  0
Cd  Cd5  1  0.15080404  0.32066938  0.39476020  1  1.322216  0  0.811902  0.946154  0  2.161817  0
H  H6  1  0.12360177  0.04186048  0.79950620  1  0.096086  0  0.10403  0.112278  0  1.020594  0
H  H7  1  0.19357822  0.05219411  0.89385428  1  0.077942  0  0.110107  0.113773  0  0.989978  0
H  H8  1  0.60039247  0.91059070  0.84219656  1  0.045949  0  0.10599  0.107969  0  0.98996  0
H  H9  1  0.53046647  0.90469530  0.74673174  1  0.081655  0  0.103911  0.108759  0  1.026421  0
H  H10  1  0.43230522  0.76616507  0.56544965  1  0.158917  0  0.123508  0.106357  0  0.996672  0
H  H11  1  0.38864793  0.93858012  0.60580907  1  0.056114  0  0.115042  0.130238  0  0.993652  0
H  H12  1  0.25477254  0.78228729  0.76032894  1  0.104867  0  0.112662  0.129621  0  0.983403  0
H  H13  1  0.29723584  0.61782514  0.71241362  1  0.088246  0  0.115635  0.084291  0  1.012783  0
H  H14  1  0.20015064  0.32622709  0.68874011  1  0.11282  0  0.114394  0.083471  0  1.047834  0
H  H15  1  0.29402997  0.16438554  0.74101969  1  0.104172  0  0.107615  0.126026  0  1.024044  0
H  H16  1  0.15258733  0.99589085  0.61658024  1  0.084673  0  0.113665  0.13411  0  1.001079  0
H  H17  1  0.07422943  0.16587350  0.56804774  1  0.144812  0  0.122166  0.106721  0  0.991094  0
H  H18  1  0.86175967  0.09401920  0.87287514  1  0.078016  0  0.107939  0.111887  0  0.983472  0
H  H19  1  0.75354315  0.03953466  0.79401894  1  0.072878  0  0.103861  0.110744  0  1.01215  0
H  H20  1  0.85990873  0.30813029  0.69352846  1  0.127108  0  0.114107  0.136804  0  0.995901  0
H  H21  1  0.96592389  0.36297415  0.77094032  1  0.154645  0  0.107781  0.125767  0  1.02509  0
H  H22  1  0.42839830  0.37523980  0.98290994  1  0.089131  0  0.10083  0.102535  0  1.025544  0
H  H23  1  0.54316198  0.42688393  0.06084959  1  0.056815  0  0.108634  0.119832  0  0.989119  0
H  H24  1  0.15598091  0.48499309  0.15579694  1  0.103683  0  0.114889  0.133675  0  0.984838  0
H  H25  1  0.04121884  0.43589600  0.07779638  1  0.096137  0  0.109792  0.114906  0  0.98595  0
H  H26  1  0.37830070  0.40970598  0.69565588  1  0.127176  0  0.116634  0.089453  0  1.026137  0
H  H27  1  0.51811567  0.25514259  0.74209447  1  0.109526  0  0.109822  0.125823  0  1.013804  0
H  H28  1  0.75801540  0.21738670  0.58570497  1  0.121723  0  0.119852  0.146344  0  0.986289  0
H  H29  1  0.61246527  0.37207677  0.54671399  1  0.178216  0  0.122522  0.11106  0  1.032181  0
H  H30  1  0.64913416  0.89117138  0.58580205  1  0.106692  0  0.120432  0.097805  0  0.989323  0
H  H31  1  0.59098373  0.06721760  0.62184116  1  0.102987  0  0.110664  0.128365  0  1.00429  0
H  H32  1  0.94888801  0.99258312  0.71426710  1  0.079095  0  0.104618  0.119734  0  1.025661  0
H  H33  1  0.98844878  0.81901410  0.67491835  1  0.137166  0  0.119557  0.107529  0  1.003458  0
H  H34  1  0.27650030  0.22265262  0.27806032  1  0.092696  0  0.108908  0.069973  0  1.033606  0
H  H35  1  0.35742362  0.28834024  0.18389278  1  0.06714  0  0.106089  0.120574  0  1.011405  0
H  H36  1  0.39919340  0.57246128  0.25524848  1  0.077489  0  0.10058  0.108671  0  1.071894  0
H  H37  1  0.32184765  0.49246474  0.34686386  1  0.149857  0  0.118165  0.101976  0  1.026231  0
H  H38  1  0.48626327  0.81767536  0.10535174  1  0.060385  0  0.103935  0.070161  0  1.014943  0
H  H39  1  0.35847218  0.66852950  0.10368810  1  0.10178  0  0.108587  0.125176  0  1.001129  0
H  H40  1  0.65921677  0.48727524  0.20407690  1  0.100227  0  0.110281  0.127383  0  1.003296  0
H  H41  1  0.77392664  0.64170368  0.20115280  1  0.105218  0  0.112218  0.090929  0  0.994313  0
H  H42  1  0.87639950  0.95814213  0.20049090  1  0.096153  0  0.104022  0.112316  0  1.020554  0
H  H43  1  0.80641763  0.94780539  0.10614398  1  0.077776  0  0.110103  0.113826  0  0.989926  0
H  H44  1  0.39960467  0.08940723  0.15780419  1  0.045893  0  0.105976  0.107962  0  0.989975  0
H  H45  1  0.46953623  0.09530497  0.25326870  1  0.081659  0  0.103917  0.108777  0  1.026411  0
H  H46  1  0.56769288  0.23383832  0.43454753  1  0.158976  0  0.123555  0.106398  0  0.99669  0
H  H47  1  0.61135247  0.06142171  0.39418934  1  0.056186  0  0.115031  0.130244  0  0.993657  0
H  H48  1  0.74522803  0.21771377  0.23966825  1  0.104776  0  0.112655  0.129621  0  0.983428  0
H  H49  1  0.70276574  0.38217592  0.28758354  1  0.088021  0  0.115659  0.084332  0  1.01278  0
H  H50  1  0.79984920  0.67377240  0.31126129  1  0.112899  0  0.11441  0.083489  0  1.047806  0
H  H51  1  0.70597174  0.83561474  0.25897915  1  0.104196  0  0.107632  0.126067  0  1.024008  0
H  H52  1  0.84741393  0.00411176  0.38341728  1  0.084626  0  0.113679  0.134102  0  1.001093  0
H  H53  1  0.92576849  0.83413065  0.43195271  1  0.144812  0  0.122179  0.106714  0  0.99108  0
H  H54  1  0.13824403  0.90598106  0.12712568  1  0.078036  0  0.107929  0.111896  0  0.983534  0
H  H55  1  0.24645954  0.96046560  0.20598274  1  0.072705  0  0.103833  0.110748  0  1.012125  0
H  H56  1  0.14008462  0.69187152  0.30647225  1  0.127057  0  0.114085  0.136776  0  0.995929  0
H  H57  1  0.03407217  0.63702922  0.22905982  1  0.154651  0  0.107754  0.12577  0  1.025014  0
H  H58  1  0.57159276  0.62476357  0.01708914  1  0.089152  0  0.100834  0.102482  0  1.025624  0
H  H59  1  0.45683240  0.57311789  0.93914903  1  0.05672  0  0.108632  0.119847  0  0.989191  0
H  H60  1  0.84401753  0.51501338  0.84420421  1  0.103723  0  0.114875  0.133682  0  0.984832  0
H  H61  1  0.95877660  0.56411047  0.92220488  1  0.096214  0  0.109819  0.114905  0  0.985903  0
H  H62  1  0.62170076  0.59029039  0.30434642  1  0.127141  0  0.116609  0.089448  0  1.026141  0
H  H63  1  0.48188764  0.74485456  0.25790732  1  0.109584  0  0.109865  0.125886  0  1.013805  0
H  H64  1  0.24198329  0.78261356  0.41429562  1  0.121715  0  0.119868  0.146393  0  0.986262  0
H  H65  1  0.38752970  0.62792193  0.45328721  1  0.178371  0  0.122515  0.111059  0  1.03214  0
H  H66  1  0.35086608  0.10883121  0.41419797  1  0.106675  0  0.120435  0.097837  0  0.989271  0
H  H67  1  0.40902053  0.93278500  0.37815830  1  0.103044  0  0.110668  0.12838  0  1.004295  0
H  H68  1  0.05110973  0.00741169  0.28573623  1  0.079162  0  0.104647  0.119765  0  1.025684  0
H  H69  1  0.01153881  0.18097603  0.32508801  1  0.137122  0  0.119557  0.107555  0  1.003388  0
H  H70  1  0.72350572  0.77734610  0.72194007  1  0.092676  0  0.108895  0.069982  0  1.033651  0
H  H71  1  0.64258056  0.71165770  0.81610730  1  0.067172  0  0.106102  0.120621  0  1.01136  0
H  H72  1  0.60080846  0.42753821  0.74475121  1  0.077472  0  0.100594  0.108665  0  1.071902  0
H  H73  1  0.67815522  0.50753475  0.65313578  1  0.14984  0  0.118148  0.10196  0  1.026244  0
H  H74  1  0.51374342  0.18232027  0.89464341  1  0.06024  0  0.103941  0.070191  0  1.014991  0
H  H75  1  0.64153536  0.33146691  0.89630699  1  0.101795  0  0.108568  0.125182  0  1.001123  0
H  H76  1  0.34078090  0.51272502  0.79592496  1  0.100247  0  0.110292  0.127418  0  1.003264  0
H  H77  1  0.22607220  0.35829582  0.79884700  1  0.105184  0  0.112213  0.090914  0  0.994325  0
C  C78  1  0.44286297  0.98819077  0.92842840  1  0.021468  0  -0.020198  -0.075078  0  4.033879  0
C  C79  1  0.47981891  0.99570596  0.97464874  1  -0.188173  0  -0.043024  -0.044284  0  4.303333  0
C  C80  1  0.32277232  0.97205117  0.76733890  1  0.271027  0  0.092379  0.175195  0  4.018337  0
C  C81  1  0.22774295  0.01241242  0.80904779  1  -0.020577  0  -0.087181  -0.161511  0  3.987058  0
C  C82  1  0.26675289  0.01793825  0.86201742  1  -0.017547  0  -0.069837  -0.089471  0  3.930254  0
C  C83  1  0.40175143  0.98106770  0.87495418  1  0.085028  0  -0.000678  0.117656  0  4.12023  0
C  C84  1  0.49590604  0.93884098  0.83269484  1  0.009354  0  -0.081494  -0.111155  0  3.952277  0
C  C85  1  0.45700139  0.93517608  0.77953389  1  0.020427  0  -0.091319  -0.164573  0  3.99692  0
C  C86  1  0.39154507  0.77371094  0.60830969  1  0.464567  0  0.054671  0.127708  0  3.935957  0
C  C87  1  0.36761307  0.86939254  0.63112846  1  0.036921  0  -0.090979  -0.231234  0  3.966407  0
C  C88  1  0.31558732  0.87530207  0.68657209  1  0.293209  0  0.110309  0.218046  0  4.029794  0
C  C89  1  0.29426186  0.78237920  0.71704205  1  0.016802  0  -0.089167  -0.219007  0  3.944451  0
C  C90  1  0.31955275  0.69028002  0.69057495  1  0.534017  0  0.050047  0.121228  0  3.970842  0
C  C91  1  0.19401392  0.25096083  0.67381820  1  0.475946  0  0.043114  0.11368  0  3.983136  0
C  C92  1  0.24604739  0.15994512  0.70300540  1  0.008211  0  -0.10196  -0.243173  0  3.965188  0
C  C93  1  0.23492769  0.06392870  0.68301525  1  0.272041  0  0.110072  0.221101  0  4.025205  0
C  C94  1  0.16888581  0.06668402  0.63386868  1  0.00131  0  -0.096934  -0.240754  0  3.964646  0
C  C95  1  0.12319885  0.16184662  0.60671644  1  0.515574  0  0.049514  0.118577  0  3.943538  0
C  C96  1  0.98346875  0.26427095  0.87178249  1  0.10749  0  -0.023888  -0.086325  0  4.041237  0
C  C97  1  0.04007945  0.29666592  0.90810609  1  -0.325217  0  -0.037122  -0.030884  0  4.30773  0
C  C98  1  0.10349606  0.33262313  0.94738079  1  -0.090686  0  -0.041502  -0.042063  0  4.31143  0
C  C99  1  0.16221165  0.36563648  0.98285631  1  -0.127567  0  -0.022488  -0.076865  0  4.037423  0
C  C100  1  0.92177765  0.23191453  0.82763215  1  0.065337  0  -0.006503  0.110617  0  4.134588  0
C  C101  1  0.86204653  0.13994843  0.83328595  1  -0.041678  0  -0.085445  -0.12188  0  3.977545  0
C  C102  1  0.80198730  0.10922310  0.78926282  1  -0.043628  0  -0.095176  -0.174291  0  4.024738  0
C  C103  1  0.80081439  0.16945942  0.73867658  1  0.317931  0  0.091753  0.173616  0  4.020187  0
C  C104  1  0.85951818  0.26086893  0.73268590  1  -0.059373  0  -0.085078  -0.154197  0  3.95494  0
C  C105  1  0.91936804  0.29215581  0.77652673  1  -0.005082  0  -0.074826  -0.095863  0  3.89373  0
C  C106  1  0.22734111  0.40014329  0.02541654  1  0.087267  0  -0.006137  0.111231  0  4.136651  0
C  C107  1  0.36926481  0.40030961  0.02063165  1  -0.010727  0  -0.081957  -0.105424  0  3.949416  0
C  C108  1  0.43325862  0.42898789  0.06414572  1  0.006319  0  -0.091234  -0.167892  0  3.999543  0
C  C109  1  0.35698183  0.45782592  0.11321828  1  0.321716  0  0.091051  0.17342  0  4.033152  0
C  C110  1  0.21534564  0.46104791  0.11786559  1  -0.046091  0  -0.086416  -0.162447  0  3.979659  0
C  C111  1  0.15116428  0.43272005  0.07447435  1  -0.031763  0  -0.075672  -0.099118  0  3.9409  0
C  C112  1  0.46398331  0.36456270  0.67328606  1  0.466841  0  0.044466  0.097946  0  3.978059  0
C  C113  1  0.54061971  0.27876964  0.69859238  1  -0.018626  0  -0.092486  -0.226488  0  3.975011  0
C  C114  1  0.64851228  0.22433706  0.66710902  1  0.253058  0  0.107975  0.209328  0  4.03991  0
C  C115  1  0.67315905  0.25582049  0.61135080  1  0.04101  0  -0.074944  -0.189827  0  3.891023  0
C  C116  1  0.59269917  0.34363967  0.58949186  1  0.504453  0  0.061923  0.145036  0  3.87298  0
C  C117  1  0.71194450  0.91721850  0.61472497  1  0.515593  0  0.046647  0.104502  0  3.979167  0
C  C118  1  0.68014181  0.01492793  0.63485451  1  -0.034611  0  -0.099754  -0.244867  0  3.970617  0
C  C119  1  0.76455844  0.04519822  0.67217776  1  0.370073  0  0.119014  0.235895  0  4.041261  0
C  C120  1  0.87851862  0.97311944  0.68659088  1  -0.024587  0  -0.103633  -0.250479  0  3.988798  0
C  C121  1  0.90183095  0.87705121  0.66442631  1  0.48386  0  0.044802  0.103245  0  3.961866  0
C  C122  1  0.30771270  0.29929041  0.27148803  1  0.451874  0  0.039796  0.107296  0  3.999854  0
C  C123  1  0.35198025  0.33607366  0.21890548  1  0.008338  0  -0.099008  -0.23577  0  3.972806  0
C  C124  1  0.38639872  0.43689018  0.21167031  1  0.377748  0  0.113781  0.231363  0  4.032546  0
C  C125  1  0.37756075  0.49330759  0.25872598  1  0.019204  0  -0.099482  -0.234427  0  3.968912  0
C  C126  1  0.33350680  0.44977881  0.30970111  1  0.475047  0  0.046341  0.126556  0  3.950605  0
C  C127  1  0.52248041  0.74284713  0.12674898  1  0.534975  0  0.03662  0.096676  0  4.021731  0
C  C128  1  0.45117096  0.65952316  0.12520724  1  -0.052367  0  -0.095113  -0.23108  0  3.964262  0
C  C129  1  0.49732807  0.56564457  0.15458434  1  0.312828  0  0.105711  0.215403  0  4.036421  0
C  C130  1  0.61691497  0.55904552  0.18163083  1  -0.025956  0  -0.091084  -0.224494  0  3.95324  0
C  C131  1  0.68066540  0.64674548  0.18016696  1  0.468465  0  0.040134  0.099308  0  3.993437  0
C  C132  1  0.55712760  0.01180482  0.07157309  1  0.0222  0  -0.020142  -0.074973  0  4.033806  0
C  C133  1  0.52016912  0.00428730  0.02535254  1  -0.288296  0  -0.043015  -0.044256  0  4.303222  0
C  C134  1  0.67722855  0.02794832  0.23266000  1  0.271062  0  0.092391  0.175105  0  4.018378  0
C  C135  1  0.77225561  0.98758863  0.19094988  1  -0.020792  0  -0.087255  -0.161609  0  3.986929  0
C  C136  1  0.73324397  0.98206124  0.13798080  1  -0.017342  0  -0.069784  -0.089497  0  3.930043  0
C  C137  1  0.59824488  0.01892946  0.12504539  1  0.08505  0  -0.000693  0.117652  0  4.120241  0
C  C138  1  0.50409141  0.06115539  0.16730596  1  0.009406  0  -0.081404  -0.1111  0  3.952276  0
C  C139  1  0.54299760  0.06482263  0.22046634  1  0.020422  0  -0.091358  -0.164635  0  3.996936  0
C  C140  1  0.60845450  0.22629012  0.39168795  1  0.464546  0  0.054658  0.127748  0  3.935964  0
C  C141  1  0.63238849  0.13060851  0.36886952  1  0.036895  0  -0.090945  -0.231233  0  3.966493  0
C  C142  1  0.68441555  0.12469743  0.31342715  1  0.293402  0  0.11028  0.217956  0  4.029698  0
C  C143  1  0.70574086  0.21762108  0.28295592  1  0.016674  0  -0.089105  -0.218974  0  3.944443  0
C  C144  1  0.68044797  0.30972026  0.30942309  1  0.534201  0  0.049939  0.121106  0  3.971041  0
C  C145  1  0.80598677  0.74903943  0.32618232  1  0.475873  0  0.043093  0.113638  0  3.983116  0
C  C146  1  0.75395563  0.84005360  0.29699387  1  0.008203  0  -0.101975  -0.243187  0  3.965139  0
C  C147  1  0.76507472  0.93607313  0.31698349  1  0.272088  0  0.110062  0.221033  0  4.025191  0
C  C148  1  0.83111676  0.93331703  0.36612968  1  0.001322  0  -0.096948  -0.240793  0  3.964748  0
C  C149  1  0.87680070  0.83815442  0.39328326  1  0.515794  0  0.049442  0.11853  0  3.943647  0
C  C150  1  0.01654214  0.73572854  0.12821811  1  0.10734  0  -0.023911  -0.086415  0  4.041061  0
C  C151  1  0.95992823  0.70332971  0.09189068  1  -0.325068  0  -0.037162  -0.030813  0  4.307347  0
C  C152  1  0.89650410  0.66737481  0.05261820  1  -0.09155  0  -0.041441  -0.042143  0  4.311694  0
C  C153  1  0.83778160  0.63437076  0.01714705  1  -0.126541  0  -0.022453  -0.0767  0  4.037498  0
C  C154  1  0.07822839  0.76808420  0.17236659  1  0.065674  0  -0.006519  0.11062  0  4.134809  0
C  C155  1  0.13795834  0.86005106  0.16671404  1  -0.042288  0  -0.085444  -0.121929  0  3.977745  0
C  C156  1  0.19801455  0.89077639  0.21073769  1  -0.042857  0  -0.095169  -0.174276  0  4.024736  0
C  C157  1  0.19918529  0.83054084  0.26132480  1  0.318589  0  0.091748  0.173534  0  4.020299  0
C  C158  1  0.14047904  0.73913366  0.26731505  1  -0.059887  0  -0.085052  -0.15407  0  3.954903  0
C  C159  1  0.08063235  0.70784601  0.22347291  1  -0.005361  0  -0.074789  -0.095904  0  3.893623  0
C  C160  1  0.77265047  0.59986240  0.97458407  1  0.08655  0  -0.006189  0.111115  0  4.136735  0
C  C161  1  0.63072694  0.59969532  0.97936692  1  -0.010291  0  -0.081932  -0.105303  0  3.9494  0
C  C162  1  0.56673530  0.57101626  0.93585281  1  0.006106  0  -0.091275  -0.16792  0  3.999711  0
C  C163  1  0.64301524  0.54217745  0.88678099  1  0.321919  0  0.091016  0.173243  0  4.033313  0
C  C164  1  0.78465111  0.53895701  0.88213486  1  -0.046175  0  -0.086375  -0.162407  0  3.979772  0
C  C165  1  0.84883016  0.56728642  0.92552653  1  -0.031671  0  -0.07564  -0.099025  0  3.941019  0
C  C166  1  0.53601552  0.63543678  0.32671538  1  0.466891  0  0.04455  0.098142  0  3.977851  0
C  C167  1  0.45938128  0.72122907  0.30140902  1  -0.018402  0  -0.09252  -0.226675  0  3.975077  0
C  C168  1  0.35148671  0.77566164  0.33289245  1  0.252839  0  0.107963  0.209418  0  4.039942  0
C  C169  1  0.32683894  0.74417821  0.38864988  1  0.040978  0  -0.074974  -0.189934  0  3.891134  0
C  C170  1  0.40729681  0.65635903  0.41050930  1  0.504216  0  0.061915  0.145041  0  3.872952  0
C  C171  1  0.28805433  0.08278098  0.38527606  1  0.51559  0  0.046673  0.104524  0  3.97925  0
C  C172  1  0.31985888  0.98507233  0.36514641  1  -0.034752  0  -0.099736  -0.24487  0  3.970648  0
C  C173  1  0.23544155  0.95480049  0.32782367  1  0.370407  0  0.119079  0.236029  0  4.04136  0
C  C174  1  0.12147795  0.02687615  0.31341245  1  -0.02497  0  -0.103705  -0.250619  0  3.988828  0
C  C175  1  0.09816260  0.12294437  0.33557795  1  0.4843  0  0.044814  0.103294  0  3.961696  0
C  C176  1  0.69229217  0.70070908  0.72851196  1  0.451908  0  0.039809  0.107267  0  3.999836  0
C  C177  1  0.64802346  0.66392661  0.78109452  1  0.008316  0  -0.098993  -0.23582  0  3.97269  0
C  C178  1  0.61360414  0.56310931  0.78832934  1  0.377783  0  0.113695  0.231337  0  4.032374  0
C  C179  1  0.62244127  0.50669113  0.74127373  1  0.019208  0  -0.099412  -0.234305  0  3.968743  0
C  C180  1  0.66649607  0.55022068  0.69029854  1  0.475052  0  0.046356  0.126546  0  3.9506  0
C  C181  1  0.47752713  0.25714928  0.87324652  1  0.535054  0  0.036593  0.096599  0  4.02178  0
C  C182  1  0.54883440  0.34047401  0.87478954  1  -0.052522  0  -0.095138  -0.23113  0  3.964253  0
C  C183  1  0.50267543  0.43435183  0.84541377  1  0.313182  0  0.105724  0.215382  0  4.036526  0
C  C184  1  0.38308588  0.44095397  0.81836930  1  -0.025992  0  -0.091093  -0.224532  0  3.953381  0
C  C185  1  0.31933732  0.35325479  0.81983184  1  0.468506  0  0.040127  0.09929  0  3.993311  0
S  S186  1  0.06083239  0.53051287  0.68346784  1  3.760594  0  0.528683  1.396228  0  6.41308  0
S  S187  1  0.08842733  0.67779854  0.51664621  1  3.784322  0  0.549831  1.419136  0  6.357238  0
S  S188  1  0.32719719  0.38687102  0.47705424  1  3.788653  0  0.543998  1.409944  0  6.37513  0
S  S189  1  0.93917016  0.46948818  0.31653216  1  3.76061  0  0.528598  1.396072  0  6.413186  0
S  S190  1  0.91157104  0.32220327  0.48335473  1  3.784281  0  0.549762  1.41888  0  6.357423  0
S  S191  1  0.67280165  0.61312846  0.52294720  1  3.788451  0  0.544099  1.410175  0  6.374777  0
N  N192  1  0.28586408  0.97058263  0.71188363  1  -1.198449  0  -0.245849  -0.151485  0  3.64787  0
N  N193  1  0.36687209  0.68523753  0.63715305  1  -1.248194  0  -0.330286  -0.263864  0  3.489983  0
N  N194  1  0.13517430  0.25344548  0.62603622  1  -1.242142  0  -0.33485  -0.27086  0  3.488069  0
N  N195  1  0.73568533  0.14187612  0.69346470  1  -1.21776  0  -0.247584  -0.149761  0  3.670978  0
N  N196  1  0.49034008  0.39733885  0.61999787  1  -1.243017  0  -0.331173  -0.250245  0  3.499339  0
N  N197  1  0.81960975  0.84834506  0.62945060  1  -1.245481  0  -0.341109  -0.24655  0  3.518525  0
N  N198  1  0.42332996  0.48105736  0.15912289  1  -1.238244  0  -0.253502  -0.162321  0  3.658044  0
N  N199  1  0.29791176  0.35413872  0.31654345  1  -1.236398  0  -0.341534  -0.276163  0  3.509349  0
N  N200  1  0.63407493  0.73880876  0.15422331  1  -1.190733  0  -0.331944  -0.292155  0  3.325703  0
N  N201  1  0.71413950  0.02941842  0.28811428  1  -1.198474  0  -0.245811  -0.151195  0  3.647765  0
N  N202  1  0.63312816  0.31476508  0.36284492  1  -1.248185  0  -0.330289  -0.263909  0  3.490005  0
N  N203  1  0.86482509  0.74655634  0.37396386  1  -1.242376  0  -0.334828  -0.270831  0  3.488121  0
N  N204  1  0.26431667  0.85812259  0.30653625  1  -1.217755  0  -0.247545  -0.149749  0  3.671214  0
N  N205  1  0.50965774  0.60266063  0.38000443  1  -1.243002  0  -0.331219  -0.250361  0  3.499189  0
N  N206  1  0.18038568  0.15165130  0.37055151  1  -1.245791  0  -0.341179  -0.246711  0  3.518635  0
N  N207  1  0.57667020  0.51894058  0.84087692  1  -1.238339  0  -0.253521  -0.162277  0  3.658049  0
N  N208  1  0.70209326  0.64586000  0.68345698  1  -1.236438  0  -0.341558  -0.276191  0  3.509426  0
N  N209  1  0.36592772  0.26118686  0.84577446  1  -1.190792  0  -0.331873  -0.292043  0  3.3255  0
O  O210  1  0.19361812  0.49489583  0.65009763  1  -1.347127  0  -0.387916  -0.726632  0  2.35103  0
O  O211  1  0.95717511  0.47385353  0.66191168  1  -1.312078  0  -0.376882  -0.680398  0  2.21252  0
O  O212  1  0.01970833  0.64450682  0.67206938  1  -1.333417  0  -0.374835  -0.670687  0  2.238628  0
O  O213  1  0.07647683  0.50243931  0.74257431  1  -1.35096  0  -0.380302  -0.65268  0  2.085872  0
O  O214  1  0.23313224  0.66231471  0.52877354  1  -1.326038  0  -0.361622  -0.635779  0  2.313348  0
O  O215  1  0.01601269  0.59129211  0.54668112  1  -1.30441  0  -0.38242  -0.714597  0  2.392119  0
O  O216  1  0.01556580  0.77721119  0.53478712  1  -1.339906  0  -0.372807  -0.646946  0  2.122022  0
O  O217  1  0.08288410  0.67117095  0.45568651  1  -1.310397  0  -0.366338  -0.658625  0  2.312861  0
O  O218  1  0.26913844  0.42007550  0.53402973  1  -1.311999  0  -0.37977  -0.696132  0  2.401386  0
O  O219  1  0.26298034  0.45815073  0.43302400  1  -1.337279  0  -0.35658  -0.64721  0  2.241789  0
O  O220  1  0.30073134  0.27934193  0.47097154  1  -1.325466  0  -0.378618  -0.666101  0  2.140127  0
O  O221  1  0.47536830  0.39065608  0.47579195  1  -1.337988  0  -0.364069  -0.660435  0  2.338237  0
O  O222  1  0.80638642  0.50510521  0.34990395  1  -1.347073  0  -0.387916  -0.726571  0  2.351009  0
O  O223  1  0.04282814  0.52614907  0.33808699  1  -1.312194  0  -0.376908  -0.680372  0  2.212442  0
O  O224  1  0.98029508  0.35549500  0.32793056  1  -1.333376  0  -0.37482  -0.67067  0  2.238661  0
O  O225  1  0.92352355  0.49756251  0.25742615  1  -1.350956  0  -0.380224  -0.652626  0  2.085945  0
O  O226  1  0.76686715  0.33768711  0.47122695  1  -1.326033  0  -0.3616  -0.635715  0  2.313338  0
O  O227  1  0.98398916  0.40870738  0.45331980  1  -1.304437  0  -0.382411  -0.714577  0  2.392235  0
O  O228  1  0.98443017  0.22278751  0.46521528  1  -1.339887  0  -0.37283  -0.646887  0  2.121985  0
O  O229  1  0.91711582  0.32883320  0.54431428  1  -1.310349  0  -0.366295  -0.658523  0  2.31286  0
O  O230  1  0.73086062  0.57991776  0.46597279  1  -1.311936  0  -0.379848  -0.696203  0  2.401391  0
O  O231  1  0.73701161  0.54184797  0.56697813  1  -1.337333  0  -0.356616  -0.647259  0  2.241667  0
O  O232  1  0.69927901  0.72065524  0.52902918  1  -1.325269  0  -0.378568  -0.666135  0  2.139982  0
O  O233  1  0.52462885  0.60935195  0.52420754  1  -1.337994  0  -0.364082  -0.660464  0  2.338109  0
