# generated using pymatgen
data_Zn2Ge4H10C3(NO5)2
_symmetry_space_group_name_H-M   'P 1'
_cell_length_a   9.83905705
_cell_length_b   10.18100682
_cell_length_c   13.48470592
_cell_angle_alpha   89.99995866
_cell_angle_beta   96.97272082
_cell_angle_gamma   90.00004736
_symmetry_Int_Tables_number   1
_chemical_formula_structural   Zn2Ge4H10C3(NO5)2
_chemical_formula_sum   'Zn8 Ge16 H40 C12 N8 O40'
_cell_volume   1340.79300389
_cell_formula_units_Z   4
loop_
 _symmetry_equiv_pos_site_id
 _symmetry_equiv_pos_as_xyz
  1  'x, y, z'
loop_
 _atom_site_type_symbol
 _atom_site_label
 _atom_site_symmetry_multiplicity
 _atom_site_fract_x
 _atom_site_fract_y
 _atom_site_fract_z
 _atom_site_occupancy
 _atom_site_pbe_bader_spin_density
 _atom_site_pbe_cm5_charge
 _atom_site_pbe_ddec_charge
 _atom_site_pbe_ddec_spin_density
 _atom_site_pbe_ddec_sum_bond_order
 _atom_site_pbe_magmom
Zn  Zn0  1  0.05651192  0.39959668  0.76906911  1  0  0.667335  0.968378  0  2.371585  0
Zn  Zn1  1  0.44348916  0.89959774  0.23093101  1  0  0.667341  0.968392  0  2.371589  0
Zn  Zn2  1  0.94348877  0.60040356  0.23093181  1  0  0.667343  0.968372  0  2.37162  0
Zn  Zn3  1  0.55651155  0.10040348  0.76906843  1  0  0.667334  0.968362  0  2.371607  0
Zn  Zn4  1  0.86005973  0.15022678  0.73710113  1  0  0.666936  1.003236  0  2.322298  0
Zn  Zn5  1  0.63994165  0.65022757  0.26289919  1  0  0.666931  1.003212  0  2.3223  0
Zn  Zn6  1  0.13994097  0.84977345  0.26289906  1  0  0.666917  1.003218  0  2.32234  0
Zn  Zn7  1  0.36006007  0.34977365  0.73710109  1  0  0.666905  1.00318  0  2.322341  0
Ge  Ge8  1  0.81883822  0.39248285  0.56543046  1  0  0.597449  1.549045  0  3.89822  0
Ge  Ge9  1  0.68116232  0.89248350  0.43456964  1  0  0.597426  1.549005  0  3.898331  0
Ge  Ge10  1  0.18116145  0.60751738  0.43456962  1  0  0.597456  1.549025  0  3.898224  0
Ge  Ge11  1  0.31883838  0.10751771  0.56543054  1  0  0.597445  1.549012  0  3.898239  0
Ge  Ge12  1  0.11803677  0.34140709  0.52917354  1  0  0.601331  1.5586  0  3.88756  0
Ge  Ge13  1  0.38196425  0.84140787  0.47082736  1  0  0.601291  1.558534  0  3.887625  0
Ge  Ge14  1  0.88196392  0.65859314  0.47082739  1  0  0.601302  1.558524  0  3.887611  0
Ge  Ge15  1  0.61803645  0.15859335  0.52917283  1  0  0.601308  1.558545  0  3.88763  0
Ge  Ge16  1  0.28979025  0.42416497  0.97298436  1  0  0.616796  1.596164  0  3.856318  0
Ge  Ge17  1  0.21021085  0.92416505  0.02701576  1  0  0.616824  1.596217  0  3.856271  0
Ge  Ge18  1  0.71021146  0.57583330  0.02701666  1  0  0.616806  1.596214  0  3.856286  0
Ge  Ge19  1  0.78978985  0.07583321  0.97298443  1  0  0.616809  1.59621  0  3.856302  0
Ge  Ge20  1  0.08385909  0.19505101  0.95535367  1  0  0.615858  1.592447  0  3.866629  0
Ge  Ge21  1  0.41614182  0.69505125  0.04464729  1  0  0.615844  1.592432  0  3.86686  0
Ge  Ge22  1  0.91614058  0.80494627  0.04464716  1  0  0.615927  1.592564  0  3.866584  0
Ge  Ge23  1  0.58385990  0.30494604  0.95535299  1  0  0.615932  1.592589  0  3.866433  0
H  H24  1  0.88448471  0.57630449  0.74594763  1  0  0.298314  0.278997  0  0.958864  0
H  H25  1  0.61551355  0.07630692  0.25405169  1  0  0.29832  0.279013  0  0.958861  0
H  H26  1  0.11551498  0.42369574  0.25405171  1  0  0.298312  0.279018  0  0.958852  0
H  H27  1  0.38448510  0.92369528  0.74594830  1  0  0.298314  0.279003  0  0.958872  0
H  H28  1  0.94111867  0.59091991  0.86452888  1  0  0.297129  0.303602  0  0.956419  0
H  H29  1  0.55888165  0.09092142  0.13547062  1  0  0.297122  0.303601  0  0.956416  0
H  H30  1  0.05888204  0.40908131  0.13547056  1  0  0.29711  0.303606  0  0.95633  0
H  H31  1  0.44111803  0.90907979  0.86452946  1  0  0.297128  0.303607  0  0.9564  0
H  H32  1  0.91114108  0.98185385  0.59994437  1  0  0.294726  0.2829  0  0.970819  0
H  H33  1  0.58885749  0.48185317  0.40005476  1  0  0.29473  0.282909  0  0.970822  0
H  H34  1  0.08885860  0.01814736  0.40005498  1  0  0.294723  0.28291  0  0.970827  0
H  H35  1  0.41114117  0.51814608  0.59994375  1  0  0.29473  0.282924  0  0.970823  0
H  H36  1  0.03553137  0.08761875  0.61955639  1  0  0.292254  0.265183  0  0.996463  0
H  H37  1  0.46446846  0.58761969  0.38044305  1  0  0.292231  0.265098  0  0.996559  0
H  H38  1  0.96446934  0.91238148  0.38044306  1  0  0.292263  0.265211  0  0.996453  0
H  H39  1  0.53553123  0.41238153  0.61955630  1  0  0.292242  0.26517  0  0.9965  0
H  H40  1  0.11205324  0.66321702  0.70762818  1  0  0.101809  0.081371  0  0.993975  0
H  H41  1  0.38794459  0.16321668  0.29237103  1  0  0.101789  0.081363  0  0.993998  0
H  H42  1  0.88794440  0.33678518  0.29237097  1  0  0.101824  0.081488  0  0.993871  0
H  H43  1  0.61205406  0.83678355  0.70762897  1  0  0.101806  0.081382  0  0.993945  0
H  H44  1  0.13369288  0.70946583  0.83557380  1  0  0.106579  0.082822  0  0.994651  0
H  H45  1  0.36630602  0.20946560  0.16442548  1  0  0.106573  0.082801  0  0.994671  0
H  H46  1  0.86630578  0.29053637  0.16442545  1  0  0.106586  0.082813  0  0.994686  0
H  H47  1  0.63369263  0.79053365  0.83557451  1  0  0.106587  0.082821  0  0.994638  0
H  H48  1  0.89375137  0.78845054  0.67960247  1  0  0.094754  0.088868  0  1.009312  0
H  H49  1  0.60624603  0.28845093  0.32039665  1  0  0.09476  0.088872  0  1.00931  0
H  H50  1  0.10624626  0.21155068  0.32039742  1  0  0.094752  0.08887  0  1.009315  0
H  H51  1  0.39375262  0.71154832  0.67960334  1  0  0.09475  0.088844  0  1.00935  0
H  H52  1  0.91617593  0.84432217  0.80498104  1  0  0.093623  0.094884  0  1.016517  0
H  H53  1  0.58382151  0.34432365  0.19501880  1  0  0.09363  0.094896  0  1.016533  0
H  H54  1  0.08382272  0.15568002  0.19501895  1  0  0.093645  0.094913  0  1.016496  0
H  H55  1  0.41617612  0.65567658  0.80498109  1  0  0.093625  0.094889  0  1.016524  0
H  H56  1  0.13145076  0.88595828  0.66201309  1  0  0.09787  0.073806  0  1.014723  0
H  H57  1  0.36854723  0.38595887  0.33798675  1  0  0.097863  0.073804  0  1.014696  0
H  H58  1  0.86854790  0.11403999  0.33798616  1  0  0.097861  0.073813  0  1.014713  0
H  H59  1  0.63145244  0.61404137  0.66201334  1  0  0.097871  0.073802  0  1.014707  0
H  H60  1  0.11902323  0.97140753  0.77596590  1  0  0.104494  0.078002  0  0.988442  0
H  H61  1  0.38097483  0.47140824  0.22403391  1  0  0.10452  0.078061  0  0.988459  0
H  H62  1  0.88097646  0.02859172  0.22403271  1  0  0.104516  0.078062  0  0.988419  0
H  H63  1  0.61902381  0.52859102  0.77596683  1  0  0.104515  0.078058  0  0.988425  0
C  C64  1  0.05733031  0.69150101  0.77071974  1  0  -0.074646  0.024924  0  3.876681  0
C  C65  1  0.44266755  0.19150077  0.22927945  1  0  -0.074645  0.02494  0  3.876803  0
C  C66  1  0.94266835  0.30850021  0.22927951  1  0  -0.074671  0.024838  0  3.876747  0
C  C67  1  0.55733111  0.80849946  0.77071980  1  0  -0.07465  0.024948  0  3.876664  0
C  C68  1  0.97126261  0.81341271  0.74282139  1  0  -0.16896  -0.201064  0  3.914031  0
C  C69  1  0.52873481  0.31341310  0.25717773  1  0  -0.168971  -0.201086  0  3.914032  0
C  C70  1  0.02873708  0.18658949  0.25717722  1  0  -0.168988  -0.201096  0  3.913973  0
C  C71  1  0.47126282  0.68658713  0.74282217  1  0  -0.168956  -0.20104  0  3.914029  0
C  C72  1  0.05936318  0.92500938  0.71104336  1  0  -0.073686  0.030896  0  3.861091  0
C  C73  1  0.44063486  0.42501007  0.28895572  1  0  -0.073689  0.030861  0  3.861134  0
C  C74  1  0.94063548  0.07499086  0.28895589  1  0  -0.073672  0.030875  0  3.86104  0
C  C75  1  0.55936380  0.57499017  0.71104353  1  0  -0.073691  0.030872  0  3.861121  0
N  N76  1  0.97263522  0.57789275  0.79504699  1  0  -0.62029  -0.566574  0  3.355056  0
N  N77  1  0.52736405  0.07789516  0.20495317  1  0  -0.620267  -0.566571  0  3.355097  0
N  N78  1  0.02736342  0.42210650  0.20495374  1  0  -0.620271  -0.566622  0  3.355071  0
N  N79  1  0.47263562  0.92210606  0.79504692  1  0  -0.620287  -0.566604  0  3.355098  0
N  N80  1  0.97333129  0.02819277  0.65595682  1  0  -0.619547  -0.567557  0  3.357538  0
N  N81  1  0.52666693  0.52819240  0.34404327  1  0  -0.619545  -0.56749  0  3.357529  0
N  N82  1  0.02666942  0.97180746  0.34404263  1  0  -0.619563  -0.567618  0  3.35753  0
N  N83  1  0.47333173  0.47180783  0.65595598  1  0  -0.619546  -0.567577  0  3.357562  0
O  O84  1  0.86278891  0.33986424  0.68667724  1  0  -0.456004  -0.9163  0  2.178113  0
O  O85  1  0.63721159  0.83986400  0.31332289  1  0  -0.456  -0.916304  0  2.178201  0
O  O86  1  0.13721179  0.66013697  0.31332294  1  0  -0.455981  -0.916266  0  2.17812  0
O  O87  1  0.36278911  0.16013624  0.68667730  1  0  -0.455984  -0.916237  0  2.178101  0
O  O88  1  0.65794085  0.32853138  0.50995908  1  0  -0.358264  -0.797377  0  2.079621  0
O  O89  1  0.84205964  0.82853112  0.49004179  1  0  -0.358264  -0.797375  0  2.079616  0
O  O90  1  0.34205985  0.67146984  0.49004110  1  0  -0.358257  -0.797349  0  2.079569  0
O  O91  1  0.15794105  0.17147009  0.50995913  1  0  -0.35826  -0.797379  0  2.079627  0
O  O92  1  0.79639709  0.56691746  0.55824881  1  0  -0.363696  -0.810706  0  2.07409  0
O  O93  1  0.70360320  0.06691683  0.44175145  1  0  -0.363698  -0.810702  0  2.074104  0
O  O94  1  0.20360360  0.43308376  0.44175211  1  0  -0.363719  -0.810725  0  2.074121  0
O  O95  1  0.29639649  0.93308340  0.55824790  1  0  -0.36372  -0.810737  0  2.074116  0
O  O96  1  0.94081483  0.34832228  0.48328210  1  0  -0.356575  -0.834809  0  2.13461  0
O  O97  1  0.55918567  0.84832275  0.51671877  1  0  -0.356518  -0.834727  0  2.134546  0
O  O98  1  0.05918586  0.65167894  0.51671882  1  0  -0.356553  -0.834733  0  2.134516  0
O  O99  1  0.44081503  0.15167846  0.48328142  1  0  -0.356535  -0.834761  0  2.134608  0
O  O100  1  0.16547404  0.39090903  0.65123728  1  0  -0.457132  -0.927954  0  2.217946  0
O  O101  1  0.33452601  0.89090989  0.34876275  1  0  -0.457137  -0.927937  0  2.21793  0
O  O102  1  0.83452563  0.60909022  0.34876281  1  0  -0.457127  -0.927908  0  2.21795  0
O  O103  1  0.66547469  0.10909034  0.65123743  1  0  -0.457132  -0.927907  0  2.217916  0
O  O104  1  0.25906526  0.42706061  0.84337169  1  0  -0.456013  -0.920924  0  2.203453  0
O  O105  1  0.24093584  0.92706059  0.15662843  1  0  -0.456028  -0.920957  0  2.20342  0
O  O106  1  0.74093645  0.57293963  0.15662934  1  0  -0.456035  -0.92095  0  2.203441  0
O  O107  1  0.75906487  0.07293866  0.84337102  1  0  -0.456026  -0.920938  0  2.203436  0
O  O108  1  0.27953012  0.57869532  0.03218122  1  0  -0.365818  -0.828292  0  2.067573  0
O  O109  1  0.22047172  0.07869518  0.96782064  1  0  -0.365805  -0.82829  0  2.067524  0
O  O110  1  0.72047258  0.42130197  0.96782286  1  0  -0.36578  -0.828306  0  2.067545  0
O  O111  1  0.77952797  0.92130210  0.03217871  1  0  -0.365804  -0.828329  0  2.06757  0
O  O112  1  0.45057489  0.35650224  0.02453641  1  0  -0.356771  -0.852879  0  2.161122  0
O  O113  1  0.04942616  0.85650325  0.97546373  1  0  -0.356766  -0.852849  0  2.161143  0
O  O114  1  0.54942582  0.64349308  0.97546303  1  0  -0.35671  -0.852808  0  2.161194  0
O  O115  1  0.95057453  0.14349305  0.02453719  1  0  -0.356725  -0.852836  0  2.161211  0
O  O116  1  0.15396093  0.33703843  0.02169127  1  0  -0.361011  -0.815588  0  2.059829  0
O  O117  1  0.34603803  0.83703476  0.97831017  1  0  -0.36101  -0.815587  0  2.05989  0
O  O118  1  0.84603976  0.66295984  0.97830965  1  0  -0.361049  -0.815656  0  2.059878  0
O  O119  1  0.65396061  0.16295859  0.02169056  1  0  -0.361051  -0.815646  0  2.059817  0
O  O120  1  0.02767553  0.22560205  0.83080816  1  0  -0.458906  -0.914169  0  2.239589  0
O  O121  1  0.47232645  0.72560320  0.16919141  1  0  -0.458882  -0.914163  0  2.239638  0
O  O122  1  0.97232620  0.77439818  0.16919139  1  0  -0.458889  -0.914195  0  2.239677  0
O  O123  1  0.52767630  0.27439802  0.83080823  1  0  -0.458921  -0.914231  0  2.239645  0
