# generated using pymatgen
data_ZnH14C12(SN2)2
_symmetry_space_group_name_H-M   'P 1'
_cell_length_a   8.10338991
_cell_length_b   13.13796783
_cell_length_c   13.37261494
_cell_angle_alpha   89.99965020
_cell_angle_beta   90.00033182
_cell_angle_gamma   90.00036384
_symmetry_Int_Tables_number   1
_chemical_formula_structural   ZnH14C12(SN2)2
_chemical_formula_sum   'Zn4 H56 C48 S8 N16'
_cell_volume   1423.67634734
_cell_formula_units_Z   4
loop_
 _symmetry_equiv_pos_site_id
 _symmetry_equiv_pos_as_xyz
  1  'x, y, z'
loop_
 _atom_site_type_symbol
 _atom_site_label
 _atom_site_symmetry_multiplicity
 _atom_site_fract_x
 _atom_site_fract_y
 _atom_site_fract_z
 _atom_site_occupancy
 _atom_site_hle17_bader_spin_density
 _atom_site_hle17_ddec_charge
 _atom_site_hle17_ddec_spin_density
 _atom_site_hle17_ddec_sum_bond_order
 _atom_site_hle17_magmom
 _atom_site_hse06_10hf_bader_spin_density
 _atom_site_hse06_10hf_ddec_charge
 _atom_site_hse06_10hf_ddec_spin_density
 _atom_site_hse06_10hf_ddec_sum_bond_order
 _atom_site_hse06_10hf_magmom
 _atom_site_hse06_bader_spin_density
 _atom_site_hse06_ddec_charge
 _atom_site_hse06_ddec_spin_density
 _atom_site_hse06_ddec_sum_bond_order
 _atom_site_hse06_magmom
 _atom_site_pbe_bader_spin_density
 _atom_site_pbe_cm5_charge
 _atom_site_pbe_ddec_charge
 _atom_site_pbe_ddec_spin_density
 _atom_site_pbe_ddec_sum_bond_order
 _atom_site_pbe_magmom
Zn  Zn0  1  0.04070061  0.87496963  0.93325471  1  0  0.767009  0  2.082267  0  0  0.587678  0  2.538378  0  0  0.630254  0  2.499989  0  0  0.581028  0.558271  0  2.564566  0
Zn  Zn1  1  0.45930432  0.12503182  0.43324928  1  0  0.767003  0  2.08221  0  0  0.587657  0  2.538372  0  0  0.630226  0  2.499982  0  0  0.581037  0.558262  0  2.564537  0
Zn  Zn2  1  0.54070197  0.62501988  0.06675042  1  0  0.766902  0  2.082032  0  0  0.58751  0  2.538173  0  0  0.630083  0  2.499791  0  0  0.580971  0.558126  0  2.564302  0
Zn  Zn3  1  0.95929948  0.37497970  0.56675359  1  0  0.766911  0  2.082114  0  0  0.587576  0  2.538214  0  0  0.630159  0  2.499827  0  0  0.580961  0.558168  0  2.564401  0
H  H4  1  0.85932406  0.84838608  0.31549897  1  0  0.119489  0  0.9813  0  0  0.128553  0  1.045912  0  0  0.13186  0  1.046417  0  0  0.101415  0.126183  0  1.04583  0
H  H5  1  0.64066002  0.15161728  0.81549263  1  0  0.119597  0  0.981153  0  0  0.128626  0  1.04581  0  0  0.131908  0  1.046337  0  0  0.101443  0.126263  0  1.045726  0
H  H6  1  0.35934022  0.65161989  0.68449981  1  0  0.119481  0  0.981278  0  0  0.12852  0  1.045923  0  0  0.131832  0  1.04642  0  0  0.101374  0.126149  0  1.045844  0
H  H7  1  0.14065000  0.34838463  0.18450313  1  0  0.119572  0  0.981174  0  0  0.128638  0  1.045782  0  0  0.13195  0  1.046274  0  0  0.101444  0.126271  0  1.045694  0
H  H8  1  0.55945061  0.18566292  0.99794287  1  0  0.127406  0  0.960373  0  0  0.139376  0  1.017164  0  0  0.142635  0  1.017249  0  0  0.10591  0.13705  0  1.017322  0
H  H9  1  0.94055249  0.81434844  0.49794296  1  0  0.127332  0  0.96042  0  0  0.139319  0  1.017198  0  0  0.142578  0  1.017285  0  0  0.105896  0.13699  0  1.017354  0
H  H10  1  0.05942616  0.31433030  0.00206607  1  0  0.127278  0  0.960593  0  0  0.139353  0  1.017276  0  0  0.142613  0  1.017363  0  0  0.105908  0.137028  0  1.017434  0
H  H11  1  0.44057590  0.68567079  0.50204339  1  0  0.127312  0  0.960386  0  0  0.139387  0  1.017038  0  0  0.142646  0  1.017124  0  0  0.105912  0.137061  0  1.017196  0
H  H12  1  0.11160226  0.99386586  0.12443062  1  0  0.126509  0  0.961411  0  0  0.144879  0  1.024639  0  0  0.146753  0  1.024293  0  0  0.09616  0.143468  0  1.024982  0
H  H13  1  0.38838985  0.00613751  0.62442603  1  0  0.126509  0  0.961332  0  0  0.144909  0  1.024497  0  0  0.146781  0  1.024154  0  0  0.096195  0.143497  0  1.024839  0
H  H14  1  0.61161134  0.50613686  0.87556578  1  0  0.126489  0  0.961414  0  0  0.14487  0  1.024616  0  0  0.146741  0  1.024277  0  0  0.096163  0.143458  0  1.024958  0
H  H15  1  0.88838565  0.49386232  0.37556761  1  0  0.126497  0  0.961364  0  0  0.144925  0  1.024522  0  0  0.146798  0  1.024175  0  0  0.096209  0.143514  0  1.024863  0
H  H16  1  0.03475085  0.00045522  0.25051800  1  0  0.129094  0  0.925135  0  0  0.153626  0  0.974905  0  0  0.155413  0  0.974657  0  0  0.100136  0.152309  0  0.975129  0
H  H17  1  0.46525728  0.99955041  0.75051521  1  0  0.128999  0  0.925261  0  0  0.153503  0  0.975073  0  0  0.155288  0  0.97483  0  0  0.100098  0.152187  0  0.975296  0
H  H18  1  0.53474164  0.49954781  0.74947664  1  0  0.129056  0  0.925091  0  0  0.153569  0  0.974901  0  0  0.155361  0  0.974644  0  0  0.100103  0.152248  0  0.975128  0
H  H19  1  0.96524921  0.50044988  0.24948618  1  0  0.129058  0  0.925148  0  0  0.153572  0  0.97498  0  0  0.155359  0  0.974734  0  0  0.100135  0.152255  0  0.975204  0
H  H20  1  0.18636850  0.90904210  0.21658950  1  0  0.139549  0  0.946417  0  0  0.157966  0  1.009479  0  0  0.159799  0  1.009799  0  0  0.09881  0.15663  0  1.009285  0
H  H21  1  0.31363066  0.09096070  0.71658638  1  0  0.139572  0  0.946433  0  0  0.157978  0  1.009506  0  0  0.159811  0  1.009825  0  0  0.098801  0.156632  0  1.009324  0
H  H22  1  0.68638375  0.59095483  0.78340493  1  0  0.1395  0  0.946464  0  0  0.157912  0  1.00953  0  0  0.159745  0  1.00985  0  0  0.098747  0.156568  0  1.009346  0
H  H23  1  0.81362470  0.40904417  0.28341074  1  0  0.139575  0  0.946411  0  0  0.157985  0  1.009488  0  0  0.159818  0  1.009808  0  0  0.098797  0.156643  0  1.009304  0
H  H24  1  0.45870928  0.90740667  0.05011170  1  0  0.122035  0  0.988439  0  0  0.135253  0  1.060833  0  0  0.137537  0  1.060735  0  0  0.08149  0.133604  0  1.060909  0
H  H25  1  0.04128953  0.09259869  0.55011285  1  0  0.122006  0  0.988404  0  0  0.135265  0  1.060766  0  0  0.137554  0  1.060663  0  0  0.081463  0.133616  0  1.06084  0
H  H26  1  0.95869035  0.59257990  0.94989116  1  0  0.122063  0  0.988591  0  0  0.13529  0  1.060958  0  0  0.137573  0  1.060863  0  0  0.081492  0.13364  0  1.061032  0
H  H27  1  0.54131106  0.40741578  0.44988332  1  0  0.122003  0  0.988556  0  0  0.135215  0  1.060948  0  0  0.1375  0  1.06085  0  0  0.081459  0.133567  0  1.061022  0
H  H28  1  0.63402865  0.97743168  0.00587363  1  0  0.120375  0  0.949724  0  0  0.137808  0  1.016569  0  0  0.139285  0  1.016964  0  0  0.090143  0.136773  0  1.016253  0
H  H29  1  0.86597592  0.02256981  0.50587334  1  0  0.120411  0  0.949769  0  0  0.13785  0  1.016605  0  0  0.139325  0  1.017  0  0  0.09014  0.136807  0  1.016299  0
H  H30  1  0.13402174  0.52256276  0.99413557  1  0  0.12037  0  0.949739  0  0  0.137835  0  1.016535  0  0  0.139312  0  1.01693  0  0  0.09011  0.136798  0  1.016221  0
H  H31  1  0.36598501  0.47743603  0.49412620  1  0  0.120362  0  0.949695  0  0  0.137788  0  1.016522  0  0  0.139262  0  1.016917  0  0  0.090118  0.136751  0  1.016209  0
H  H32  1  0.53670195  0.01255056  0.11944650  1  0  0.119083  0  0.950293  0  0  0.140095  0  1.012398  0  0  0.141523  0  1.012572  0  0  0.09183  0.139091  0  1.012236  0
H  H33  1  0.96330864  0.98744642  0.61944602  1  0  0.119103  0  0.950285  0  0  0.140125  0  1.012385  0  0  0.141552  0  1.01256  0  0  0.091841  0.139121  0  1.012222  0
H  H34  1  0.03667657  0.48743573  0.88055937  1  0  0.119165  0  0.950308  0  0  0.140201  0  1.012381  0  0  0.141633  0  1.012551  0  0  0.091852  0.139194  0  1.012222  0
H  H35  1  0.46332045  0.51255996  0.38055013  1  0  0.119203  0  0.950146  0  0  0.140149  0  1.012327  0  0  0.141579  0  1.012498  0  0  0.091834  0.139144  0  1.012165  0
H  H36  1  0.60389495  0.62120678  0.26057277  1  0  0.110564  0  0.992834  0  0  0.127951  0  1.060317  0  0  0.129886  0  1.060031  0  0  0.083564  0.126499  0  1.060569  0
H  H37  1  0.89610095  0.37879616  0.76057270  1  0  0.110585  0  0.992774  0  0  0.127986  0  1.06025  0  0  0.12992  0  1.059965  0  0  0.083562  0.126535  0  1.0605  0
H  H38  1  0.10390535  0.87879667  0.73942511  1  0  0.110588  0  0.992691  0  0  0.127998  0  1.060167  0  0  0.129933  0  1.05988  0  0  0.083589  0.126545  0  1.060419  0
H  H39  1  0.39609650  0.12120446  0.23942695  1  0  0.110614  0  0.99273  0  0  0.128022  0  1.060193  0  0  0.129959  0  1.059905  0  0  0.083598  0.126568  0  1.060446  0
H  H40  1  0.69911644  0.69678457  0.35607759  1  0  0.119481  0  0.95468  0  0  0.14083  0  1.011822  0  0  0.142317  0  1.012515  0  0  0.092201  0.139777  0  1.011344  0
H  H41  1  0.80088530  0.30322311  0.85608213  1  0  0.119475  0  0.954614  0  0  0.140846  0  1.011733  0  0  0.142332  0  1.012427  0  0  0.092219  0.139793  0  1.011252  0
H  H42  1  0.19912021  0.80322459  0.64391912  1  0  0.119407  0  0.954643  0  0  0.14078  0  1.01177  0  0  0.142266  0  1.012464  0  0  0.092198  0.139728  0  1.011289  0
H  H43  1  0.30087209  0.19677943  0.14391644  1  0  0.119373  0  0.954653  0  0  0.140734  0  1.011789  0  0  0.14222  0  1.012483  0  0  0.092152  0.13968  0  1.011311  0
H  H44  1  0.51707776  0.74026829  0.29790378  1  0  0.143466  0  0.969035  0  0  0.152791  0  1.04598  0  0  0.15666  0  1.043428  0  0  0.0963  0.150007  0  1.047812  0
H  H45  1  0.98292220  0.25972985  0.79790099  1  0  0.143479  0  0.968988  0  0  0.152806  0  1.045933  0  0  0.156673  0  1.043382  0  0  0.096291  0.150022  0  1.047765  0
H  H46  1  0.01707917  0.75973178  0.70209529  1  0  0.143475  0  0.969019  0  0  0.152798  0  1.045974  0  0  0.156666  0  1.043422  0  0  0.096296  0.150014  0  1.047805  0
H  H47  1  0.48291616  0.24026578  0.20209673  1  0  0.143511  0  0.969041  0  0  0.152826  0  1.045994  0  0  0.156694  0  1.043442  0  0  0.096312  0.150043  0  1.047825  0
H  H48  1  0.27592004  0.35708510  0.84423669  1  0  0.125553  0  0.936312  0  0  0.1478  0  0.991526  0  0  0.150171  0  0.990079  0  0  0.097392  0.14604  0  0.992612  0
H  H49  1  0.22407787  0.64291995  0.34423032  1  0  0.125629  0  0.936339  0  0  0.147883  0  0.991555  0  0  0.150251  0  0.990107  0  0  0.097462  0.146123  0  0.992641  0
H  H50  1  0.77590886  0.14290364  0.15576628  1  0  0.125653  0  0.936335  0  0  0.147859  0  0.991563  0  0  0.150221  0  0.990118  0  0  0.097473  0.146102  0  0.99265  0
H  H51  1  0.72409714  0.85708930  0.65576349  1  0  0.125707  0  0.936356  0  0  0.147938  0  0.991551  0  0  0.150301  0  0.990105  0  0  0.097494  0.146178  0  0.992637  0
H  H52  1  0.37654893  0.36950389  0.96303708  1  0  0.1191  0  0.967696  0  0  0.13384  0  1.040888  0  0  0.13564  0  1.041093  0  0  0.087548  0.132579  0  1.04068  0
H  H53  1  0.12344518  0.63049737  0.46303043  1  0  0.118983  0  0.967653  0  0  0.13378  0  1.040825  0  0  0.135578  0  1.041031  0  0  0.08752  0.132519  0  1.040617  0
H  H54  1  0.87654636  0.13048219  0.03696325  1  0  0.119079  0  0.967752  0  0  0.133865  0  1.040875  0  0  0.135663  0  1.041082  0  0  0.087577  0.132601  0  1.040668  0
H  H55  1  0.62345604  0.86951149  0.53696452  1  0  0.118973  0  0.967785  0  0  0.133775  0  1.040902  0  0  0.135573  0  1.041111  0  0  0.087492  0.132513  0  1.040694  0
H  H56  1  0.49176174  0.33304371  0.85670815  1  0  0.113478  0  0.957649  0  0  0.136386  0  1.017907  0  0  0.137368  0  1.018809  0  0  0.093666  0.135665  0  1.01729  0
H  H57  1  0.00823135  0.66696203  0.35670462  1  0  0.113451  0  0.957776  0  0  0.136379  0  1.018021  0  0  0.137359  0  1.018925  0  0  0.09367  0.13566  0  1.017401  0
H  H58  1  0.99174699  0.16694511  0.14329782  1  0  0.113483  0  0.957709  0  0  0.136372  0  1.017959  0  0  0.137367  0  1.018848  0  0  0.093673  0.135648  0  1.017345  0
H  H59  1  0.50824655  0.83305096  0.64329591  1  0  0.113562  0  0.957722  0  0  0.136423  0  1.018002  0  0  0.137432  0  1.018877  0  0  0.093688  0.1357  0  1.017387  0
C  C60  1  0.94495801  0.87440444  0.16468112  1  0  0.407372  0  3.711097  0  0  0.402505  0  3.960681  0  0  0.420707  0  3.973479  0  0  0.142381  0.390441  0  3.95177  0
C  C61  1  0.55504067  0.12559834  0.66467913  1  0  0.407453  0  3.71106  0  0  0.402567  0  3.960689  0  0  0.420767  0  3.973484  0  0  0.142386  0.390506  0  3.951778  0
C  C62  1  0.44496300  0.62559806  0.83531422  1  0  0.407196  0  3.711291  0  0  0.402373  0  3.960812  0  0  0.420573  0  3.973612  0  0  0.142282  0.390308  0  3.9519  0
C  C63  1  0.05503977  0.37440248  0.33532232  1  0  0.407468  0  3.710893  0  0  0.402612  0  3.960533  0  0  0.420811  0  3.973334  0  0  0.142406  0.39055  0  3.951621  0
C  C64  1  0.80716397  0.77918892  0.04077944  1  0  0.426442  0  3.796499  0  0  0.393391  0  4.077008  0  0  0.418404  0  4.087256  0  0  0.221994  0.376741  0  4.069497  0
C  C65  1  0.69284587  0.22080855  0.54078260  1  0  0.426484  0  3.796747  0  0  0.393552  0  4.077109  0  0  0.418567  0  4.087356  0  0  0.222088  0.376901  0  4.0696  0
C  C66  1  0.30716003  0.72080544  0.95921616  1  0  0.42646  0  3.796783  0  0  0.393495  0  4.077191  0  0  0.418507  0  4.087442  0  0  0.221935  0.376843  0  4.069681  0
C  C67  1  0.19284516  0.27918900  0.45921859  1  0  0.426513  0  3.796643  0  0  0.393499  0  4.077135  0  0  0.418512  0  4.087383  0  0  0.222016  0.376848  0  4.069626  0
C  C68  1  0.33477279  0.21554179  0.91487337  1  0  0.359472  0  3.757637  0  0  0.362778  0  4.012734  0  0  0.37668  0  4.027806  0  0  0.129045  0.353717  0  4.002171  0
C  C69  1  0.16522580  0.78445977  0.41487117  1  0  0.359504  0  3.7575  0  0  0.362807  0  4.01262  0  0  0.376708  0  4.027692  0  0  0.129027  0.353746  0  4.002057  0
C  C70  1  0.83475747  0.28444565  0.08512981  1  0  0.359482  0  3.757757  0  0  0.36273  0  4.012876  0  0  0.376631  0  4.027946  0  0  0.128913  0.353669  0  4.002317  0
C  C71  1  0.66523675  0.71554849  0.58512841  1  0  0.359321  0  3.7577  0  0  0.362622  0  4.012788  0  0  0.376522  0  4.027866  0  0  0.128925  0.353562  0  4.002223  0
C  C72  1  0.40187754  0.05305995  0.98683147  1  0  0.381445  0  3.730692  0  0  0.385129  0  3.977197  0  0  0.399593  0  3.992526  0  0  0.133135  0.375643  0  3.966498  0
C  C73  1  0.09812174  0.94694574  0.48682882  1  0  0.381502  0  3.730579  0  0  0.385221  0  3.977046  0  0  0.399686  0  3.992371  0  0  0.133192  0.375735  0  3.966347  0
C  C74  1  0.90186569  0.44693537  0.01317792  1  0  0.381707  0  3.730268  0  0  0.38523  0  3.977063  0  0  0.399693  0  3.992392  0  0  0.133251  0.375745  0  3.966364  0
C  C75  1  0.59813525  0.55306607  0.51317053  1  0  0.381641  0  3.730335  0  0  0.385141  0  3.977122  0  0  0.399604  0  3.992451  0  0  0.13324  0.375655  0  3.966422  0
C  C76  1  0.15669223  0.07985840  0.90154921  1  0  0.410173  0  3.85478  0  0  0.390029  0  4.138332  0  0  0.410532  0  4.150008  0  0  0.220128  0.376181  0  4.130114  0
C  C77  1  0.34330130  0.92014324  0.40154983  1  0  0.410237  0  3.854815  0  0  0.390095  0  4.138353  0  0  0.410608  0  4.150015  0  0  0.220159  0.376246  0  4.130138  0
C  C78  1  0.65668955  0.42012911  0.09845708  1  0  0.410427  0  3.854456  0  0  0.390253  0  4.138022  0  0  0.410784  0  4.149648  0  0  0.220074  0.376402  0  4.129815  0
C  C79  1  0.84330850  0.57986343  0.59846086  1  0  0.410318  0  3.854511  0  0  0.390238  0  4.137938  0  0  0.410768  0  4.149566  0  0  0.220095  0.376383  0  4.129736  0
C  C80  1  0.84677945  0.82797903  0.23710746  1  0  -0.314444  0  3.663897  0  0  -0.337466  0  3.912344  0  0  -0.353042  0  3.93131  0  0  -0.105696  -0.327668  0  3.900033  0
C  C81  1  0.65320882  0.17202558  0.73710478  1  0  -0.314582  0  3.663835  0  0  -0.337602  0  3.912328  0  0  -0.353152  0  3.931306  0  0  -0.105758  -0.327813  0  3.900016  0
C  C82  1  0.34679410  0.67202385  0.76288753  1  0  -0.314337  0  3.663849  0  0  -0.3374  0  3.91223  0  0  -0.352978  0  3.931188  0  0  -0.105637  -0.327601  0  3.899923  0
C  C83  1  0.15321662  0.32798247  0.26289252  1  0  -0.314479  0  3.663565  0  0  -0.337548  0  3.912017  0  0  -0.353124  0  3.930977  0  0  -0.105748  -0.327751  0  3.899712  0
C  C84  1  0.44478101  0.15457883  0.96858425  1  0  -0.327203  0  3.672384  0  0  -0.344801  0  3.914673  0  0  -0.358463  0  3.933652  0  0  -0.107947  -0.336128  0  3.902121  0
C  C85  1  0.05522179  0.84542620  0.46857907  1  0  -0.327144  0  3.672308  0  0  -0.344768  0  3.914582  0  0  -0.35843  0  3.93356  0  0  -0.107914  -0.336088  0  3.902025  0
C  C86  1  0.94475841  0.34541513  0.03142380  1  0  -0.327252  0  3.672653  0  0  -0.344892  0  3.915045  0  0  -0.358557  0  3.934028  0  0  -0.107942  -0.336219  0  3.902496  0
C  C87  1  0.55523777  0.65458392  0.53141340  1  0  -0.326985  0  3.672396  0  0  -0.344587  0  3.914711  0  0  -0.358251  0  3.933699  0  0  -0.107838  -0.335915  0  3.902159  0
C  C88  1  0.73491709  0.75298557  0.20832403  1  0  0.401145  0  3.687209  0  0  0.397828  0  3.931483  0  0  0.415582  0  3.945183  0  0  0.138174  0.386017  0  3.922026  0
C  C89  1  0.76507830  0.24701617  0.70832878  1  0  0.40128  0  3.686985  0  0  0.398024  0  3.931177  0  0  0.415782  0  3.944866  0  0  0.138285  0.386211  0  3.921725  0
C  C90  1  0.23492169  0.74701154  0.79166832  1  0  0.40116  0  3.687165  0  0  0.398019  0  3.931166  0  0  0.415775  0  3.944856  0  0  0.138281  0.386205  0  3.921715  0
C  C91  1  0.26507819  0.25298698  0.29166892  1  0  0.401001  0  3.687137  0  0  0.397825  0  3.931211  0  0  0.415578  0  3.94491  0  0  0.138217  0.386013  0  3.921756  0
C  C92  1  0.07587656  0.94969209  0.19033478  1  0  -0.38144  0  3.665222  0  0  -0.458915  0  3.896737  0  0  -0.463566  0  3.901793  0  0  -0.237116  -0.455449  0  3.893105  0
C  C93  1  0.42412236  0.05031087  0.69033080  1  0  -0.381369  0  3.665285  0  0  -0.458784  0  3.896761  0  0  -0.463433  0  3.901819  0  0  -0.237093  -0.455313  0  3.893138  0
C  C94  1  0.57588177  0.55031050  0.80965851  1  0  -0.38125  0  3.66505  0  0  -0.45874  0  3.896601  0  0  -0.463391  0  3.901657  0  0  -0.237002  -0.455267  0  3.892979  0
C  C95  1  0.92412077  0.44968605  0.30966746  1  0  -0.381407  0  3.665275  0  0  -0.458896  0  3.896803  0  0  -0.463547  0  3.90186  0  0  -0.237139  -0.455427  0  3.893177  0
C  C96  1  0.51367676  0.98329220  0.04358704  1  0  -0.376824  0  3.672602  0  0  -0.45189  0  3.900623  0  0  -0.456445  0  3.906664  0  0  -0.244175  -0.448463  0  3.896193  0
C  C97  1  0.98632447  0.01671209  0.54358721  1  0  -0.376858  0  3.67266  0  0  -0.452017  0  3.900682  0  0  -0.456572  0  3.906717  0  0  -0.244191  -0.448583  0  3.896259  0
C  C98  1  0.01367067  0.51670025  0.95642024  1  0  -0.376925  0  3.672653  0  0  -0.452061  0  3.900748  0  0  -0.456621  0  3.906786  0  0  -0.244137  -0.448626  0  3.896321  0
C  C99  1  0.48633696  0.48329954  0.45641201  1  0  -0.376933  0  3.672547  0  0  -0.451916  0  3.900665  0  0  -0.45647  0  3.906701  0  0  -0.244156  -0.448487  0  3.896236  0
C  C100  1  0.63400138  0.69902550  0.28430467  1  0  -0.401606  0  3.701973  0  0  -0.475616  0  3.935436  0  0  -0.481148  0  3.939396  0  0  -0.24826  -0.471511  0  3.932596  0
C  C101  1  0.86599967  0.30097577  0.78430796  1  0  -0.401654  0  3.701789  0  0  -0.475742  0  3.935315  0  0  -0.481273  0  3.939275  0  0  -0.248304  -0.471634  0  3.932475  0
C  C102  1  0.13400459  0.80097579  0.71569032  1  0  -0.401535  0  3.701786  0  0  -0.475669  0  3.935278  0  0  -0.481201  0  3.939232  0  0  -0.248325  -0.471559  0  3.93244  0
C  C103  1  0.36599334  0.19902321  0.21568935  1  0  -0.401532  0  3.701802  0  0  -0.47563  0  3.935296  0  0  -0.481163  0  3.939254  0  0  -0.24831  -0.471522  0  3.932459  0
C  C104  1  0.37103462  0.32502918  0.89320868  1  0  -0.37544  0  3.689673  0  0  -0.454352  0  3.922901  0  0  -0.458213  0  3.928555  0  0  -0.239656  -0.451382  0  3.918781  0
C  C105  1  0.12896253  0.67497176  0.39320178  1  0  -0.375383  0  3.689694  0  0  -0.454408  0  3.922893  0  0  -0.45826  0  3.928539  0  0  -0.239712  -0.451442  0  3.918772  0
C  C106  1  0.87102331  0.17495764  0.10679313  1  0  -0.37549  0  3.689812  0  0  -0.454392  0  3.923081  0  0  -0.458252  0  3.92872  0  0  -0.23977  -0.451422  0  3.918969  0
C  C107  1  0.62897482  0.82503408  0.60679469  1  0  -0.375592  0  3.689921  0  0  -0.454523  0  3.923148  0  0  -0.458398  0  3.928776  0  0  -0.239758  -0.451549  0  3.919031  0
S  S108  1  0.78839072  0.76105474  0.91519931  1  0  -0.419001  0  1.955266  0  0  -0.392009  0  2.272341  0  0  -0.413264  0  2.267796  0  0  -0.181409  -0.377011  0  2.275061  0
S  S109  1  0.71161652  0.23894344  0.41520504  1  0  -0.419048  0  1.955461  0  0  -0.39207  0  2.272477  0  0  -0.413324  0  2.267929  0  0  -0.181458  -0.377073  0  2.275198  0
S  S110  1  0.28838849  0.73893649  0.08479098  1  0  -0.419031  0  1.955492  0  0  -0.392034  0  2.272485  0  0  -0.413288  0  2.267937  0  0  -0.181423  -0.37704  0  2.275206  0
S  S111  1  0.21161929  0.26105723  0.58479621  1  0  -0.419016  0  1.955391  0  0  -0.392  0  2.272414  0  0  -0.413256  0  2.26787  0  0  -0.181408  -0.377003  0  2.275135  0
S  S112  1  0.97179014  0.02796625  0.85964501  1  0  -0.445653  0  2.072036  0  0  -0.405381  0  2.408813  0  0  -0.427259  0  2.401363  0  0  -0.186769  -0.389663  0  2.413407  0
S  S113  1  0.52819436  0.97203380  0.35964196  1  0  -0.445619  0  2.072163  0  0  -0.405347  0  2.408953  0  0  -0.427224  0  2.401498  0  0  -0.186723  -0.389631  0  2.413547  0
S  S114  1  0.47178839  0.47201564  0.14036613  1  0  -0.445655  0  2.071925  0  0  -0.405354  0  2.408644  0  0  -0.427242  0  2.401187  0  0  -0.186697  -0.389639  0  2.413234  0
S  S115  1  0.02821128  0.52797469  0.64036687  1  0  -0.445635  0  2.072046  0  0  -0.405372  0  2.40876  0  0  -0.427261  0  2.401302  0  0  -0.186709  -0.389652  0  2.413359  0
N  N116  1  0.92490408  0.84846005  0.06842998  1  0  -0.468392  0  3.236432  0  0  -0.385051  0  3.502677  0  0  -0.411162  0  3.51311  0  0  -0.344229  -0.367801  0  3.495512  0
N  N117  1  0.57510603  0.15153800  0.56842865  1  0  -0.468514  0  3.236457  0  0  -0.385239  0  3.502733  0  0  -0.411352  0  3.513169  0  0  -0.344272  -0.367988  0  3.495563  0
N  N118  1  0.42490162  0.65153857  0.93156604  1  0  -0.468284  0  3.236597  0  0  -0.384954  0  3.502735  0  0  -0.411066  0  3.513173  0  0  -0.344087  -0.367702  0  3.495565  0
N  N119  1  0.07510331  0.34845985  0.43157137  1  0  -0.468544  0  3.236389  0  0  -0.38528  0  3.502717  0  0  -0.411396  0  3.513156  0  0  -0.344255  -0.368028  0  3.495547  0
N  N120  1  0.25680457  0.01588583  0.95381311  1  0  -0.481937  0  3.049157  0  0  -0.426628  0  3.30861  0  0  -0.447266  0  3.319942  0  0  -0.329308  -0.41278  0  3.300805  0
N  N121  1  0.24319316  0.98411701  0.45381224  1  0  -0.482085  0  3.049216  0  0  -0.426781  0  3.308648  0  0  -0.44742  0  3.319972  0  0  -0.329449  -0.412935  0  3.300848  0
N  N122  1  0.75679465  0.48410816  0.04619578  1  0  -0.482055  0  3.048969  0  0  -0.426653  0  3.308435  0  0  -0.447296  0  3.319747  0  0  -0.329361  -0.412809  0  3.300638  0
N  N123  1  0.74320290  0.51588927  0.54619510  1  0  -0.482003  0  3.04898  0  0  -0.426643  0  3.308465  0  0  -0.44729  0  3.319784  0  0  -0.329339  -0.412792  0  3.300665  0
N  N124  1  0.19072038  0.17799243  0.88081257  1  0  -0.449695  0  3.00626  0  0  -0.406525  0  3.261579  0  0  -0.424604  0  3.272275  0  0  -0.323878  -0.394387  0  3.25424  0
N  N125  1  0.30927789  0.82200934  0.38081216  1  0  -0.449678  0  3.006144  0  0  -0.406514  0  3.261465  0  0  -0.424597  0  3.272159  0  0  -0.323812  -0.394377  0  3.254127  0
N  N126  1  0.69070947  0.32199521  0.11919384  1  0  -0.449913  0  3.006263  0  0  -0.406627  0  3.261481  0  0  -0.424714  0  3.272158  0  0  -0.323787  -0.394489  0  3.254147  0
N  N127  1  0.80928384  0.67799719  0.61919467  1  0  -0.44978  0  3.006131  0  0  -0.406576  0  3.26135  0  0  -0.424664  0  3.272031  0  0  -0.323827  -0.394436  0  3.254015  0
N  N128  1  0.71472865  0.72883903  0.11030360  1  0  -0.44655  0  3.179794  0  0  -0.357792  0  3.442571  0  0  -0.3841  0  3.452284  0  0  -0.334005  -0.340382  0  3.435891  0
N  N129  1  0.78527691  0.27116104  0.61030678  1  0  -0.446623  0  3.17987  0  0  -0.357919  0  3.442637  0  0  -0.384232  0  3.452353  0  0  -0.334059  -0.340505  0  3.435957  0
N  N130  1  0.21472827  0.77115649  0.88968793  1  0  -0.446778  0  3.179989  0  0  -0.358122  0  3.442713  0  0  -0.384432  0  3.45242  0  0  -0.334082  -0.340708  0  3.436038  0
N  N131  1  0.28527625  0.22884143  0.38969099  1  0  -0.446596  0  3.179877  0  0  -0.357903  0  3.442664  0  0  -0.384208  0  3.45237  0  0  -0.334057  -0.340491  0  3.435985  0
