# generated using pymatgen
data_ZnH12C13(NO2)2
_symmetry_space_group_name_H-M   'P 1'
_cell_length_a   9.59471715
_cell_length_b   11.17892966
_cell_length_c   11.00780333
_cell_angle_alpha   90.83954073
_cell_angle_beta   91.11782732
_cell_angle_gamma   92.82055106
_symmetry_Int_Tables_number   1
_chemical_formula_structural   ZnH12C13(NO2)2
_chemical_formula_sum   'Zn2 H24 C26 N4 O8'
_cell_volume   1178.88346477
_cell_formula_units_Z   2
loop_
 _symmetry_equiv_pos_site_id
 _symmetry_equiv_pos_as_xyz
  1  'x, y, z'
loop_
 _atom_site_type_symbol
 _atom_site_label
 _atom_site_symmetry_multiplicity
 _atom_site_fract_x
 _atom_site_fract_y
 _atom_site_fract_z
 _atom_site_occupancy
 _atom_site_pbe_bader_charge
 _atom_site_pbe_bader_spin_density
 _atom_site_pbe_cm5_charge
 _atom_site_pbe_ddec_charge
 _atom_site_pbe_ddec_spin_density
 _atom_site_pbe_ddec_sum_bond_order
 _atom_site_pbe_magmom
Zn  Zn0  1  0.36301127  0.49449399  0.49379593  1  1.278129  0  0.666602  0.790657  0  2.464451  0
Zn  Zn1  1  0.64615464  0.50803208  0.49329781  1  1.270983  0  0.660578  0.796227  0  2.46533  0
H  H2  1  0.22671183  0.09992358  0.65191569  1  0.054462  0  0.089368  0.095277  0  0.987498  0
H  H3  1  0.15154195  0.65807463  0.40553184  1  0.151754  0  0.139551  0.11908  0  0.986701  0
H  H4  1  0.74726069  0.80799048  0.43603345  1  0.466515  0  0.28273  0.284704  0  1.032799  0
H  H5  1  0.83259770  0.94723065  0.43730588  1  0.422591  0  0.292641  0.27933  0  0.978605  0
H  H6  1  0.73007537  0.22368884  0.40441096  1  0.448536  0  0.289417  0.295913  0  0.999736  0
H  H7  1  0.78421984  0.09645905  0.33484162  1  0.435706  0  0.297566  0.287594  0  0.95588  0
H  H8  1  0.14958651  0.70896048  0.74910605  1  0.012686  0  0.079999  0.10285  0  1.027993  0
H  H9  1  0.12055046  0.65738367  0.89816572  1  -0.014285  0  0.082972  0.110109  0  1.033213  0
H  H10  1  0.17673420  0.55704304  0.78398413  1  0.021076  0  0.079375  0.110692  0  1.031217  0
H  H11  1  0.34900641  0.77015624  0.89850626  1  0.04018  0  0.090343  0.080189  0  0.99514  0
H  H12  1  0.39693010  0.69613963  0.76545368  1  0.055978  0  0.093255  0.094176  0  1.000088  0
H  H13  1  0.16081102  0.87203579  0.49673900  1  0.018946  0  0.081316  0.080758  0  1.012185  0
H  H14  1  0.12123755  0.56501500  0.05325263  1  0.007851  0  0.084238  0.112667  0  1.028877  0
H  H15  1  0.09307853  0.66345729  0.17706555  1  0.004263  0  0.078281  0.099779  0  1.017088  0
H  H16  1  0.17835263  0.52676706  0.20113875  1  0.021287  0  0.080738  0.115815  0  1.04141  0
H  H17  1  0.35414582  0.69563149  0.20866404  1  0.033702  0  0.091398  0.092306  0  0.992519  0
H  H18  1  0.29433376  0.74807059  0.06782773  1  0.021656  0  0.090547  0.081651  0  1.005071  0
H  H19  1  0.15838145  0.09690205  0.49951264  1  0.033252  0  0.083902  0.08681  0  1.006607  0
H  H20  1  0.22883393  0.87589216  0.64866271  1  0.039439  0  0.090664  0.099865  0  1.00458  0
H  H21  1  0.66520277  0.39180888  0.11124360  1  0.069856  0  0.100043  0.105469  0  1.000587  0
H  H22  1  0.66931090  0.38830685  0.88345033  1  0.057442  0  0.101609  0.105665  0  0.995882  0
H  H23  1  0.85948911  0.34424768  0.59099263  1  0.168128  0  0.14045  0.123008  0  0.965179  0
H  H24  1  0.88465090  0.66020465  0.39721135  1  0.122512  0  0.139044  0.118041  0  0.974137  0
H  H25  1  0.12627938  0.33585861  0.58742761  1  0.152548  0  0.141666  0.121413  0  0.970741  0
C  C26  1  0.50626009  0.50925046  0.25529389  1  1.58015  0  0.218074  0.603061  0  4.143819  0
C  C27  1  0.38310758  0.05760745  0.51346935  1  -0.004766  0  -0.027311  0.036653  0  3.968731  0
C  C28  1  0.50348766  0.87204616  0.48139250  1  -0.013879  0  -0.033684  -0.194446  0  3.982337  0
C  C29  1  0.49819145  0.13192958  0.48171804  1  0.052449  0  -0.030424  -0.183828  0  3.987033  0
C  C30  1  0.62190593  0.94463872  0.44783302  1  0.417487  0  0.094156  0.191816  0  4.006933  0
C  C31  1  0.61828225  0.07273687  0.44532128  1  0.410006  0  0.089552  0.178958  0  4.007827  0
C  C32  1  0.23595399  0.05916366  0.56096727  1  -0.015942  0  -0.157954  -0.191674  0  3.908154  0
C  C33  1  0.23775230  0.91770647  0.55915508  1  -0.042835  0  -0.156416  -0.187788  0  3.901883  0
C  C34  1  0.59543825  0.44557381  0.05802479  1  0.030977  0  -0.094376  -0.106059  0  4.044327  0
C  C35  1  0.59854197  0.44436297  0.93224225  1  -0.045229  0  -0.095677  -0.111198  0  4.048644  0
C  C36  1  0.51025597  0.51656661  0.86647659  1  -0.065896  0  -0.014444  -0.071566  0  3.957431  0
C  C37  1  0.51348431  0.50710877  0.73064600  1  1.555595  0  0.217086  0.601155  0  4.162347  0
C  C38  1  0.50128100  0.51580241  0.11913972  1  -0.070953  0  -0.016766  -0.080312  0  3.940124  0
C  C39  1  0.41934709  0.59306958  0.92574325  1  0.006749  0  -0.000721  0.049127  0  3.847558  0
C  C40  1  0.41127967  0.58986393  0.05422809  1  0.016902  0  0.001611  0.058109  0  3.849686  0
C  C41  1  0.34176762  0.68269261  0.85092764  1  -0.026646  0  -0.16259  -0.139913  0  3.970149  0
C  C42  1  0.18796477  0.64928194  0.81949828  1  -0.014117  0  -0.248983  -0.348489  0  3.953859  0
C  C43  1  0.30979187  0.66642271  0.11974656  1  0.001415  0  -0.163178  -0.136583  0  3.965416  0
C  C44  1  0.16700268  0.60143112  0.13893034  1  -0.02745  0  -0.250048  -0.357811  0  3.964711  0
C  C45  1  0.92585551  0.41327107  0.54899300  1  0.522249  0  0.078926  0.060797  0  3.855929  0
C  C46  1  0.93973865  0.58991885  0.44242959  1  0.551229  0  0.079883  0.061113  0  3.864567  0
C  C47  1  0.07067211  0.40906458  0.54785279  1  0.508039  0  0.083742  0.065605  0  3.858423  0
C  C48  1  0.08453900  0.58773373  0.44449430  1  0.497972  0  0.080684  0.061336  0  3.875179  0
C  C49  1  0.50399274  0.73979485  0.48985801  1  1.526186  0  0.213524  0.607031  0  4.150668  0
C  C50  1  0.49215014  0.26409135  0.48630538  1  1.501321  0  0.214681  0.614075  0  4.149748  0
C  C51  1  0.38487807  0.93386528  0.51197296  1  -0.044861  0  -0.02635  0.037301  0  3.966979  0
N  N52  1  0.14823576  0.49669548  0.49609514  1  -1.235538  0  -0.29173  -0.139629  0  3.496843  0
N  N53  1  0.86184929  0.50335201  0.49542257  1  -1.217704  0  -0.291591  -0.139981  0  3.49398  0
N  N54  1  0.74556703  0.89609874  0.41274191  1  -1.21914  0  -0.613299  -0.619135  0  3.332238  0
N  N55  1  0.74080041  0.13354476  0.40935799  1  -1.218078  0  -0.6104  -0.628793  0  3.333355  0
O  O56  1  0.39110775  0.50593119  0.31173803  1  -1.160141  0  -0.310326  -0.539571  0  2.364582  0
O  O57  1  0.39578278  0.49042771  0.67570765  1  -1.159179  0  -0.311656  -0.537837  0  2.363663  0
O  O58  1  0.62667080  0.50499774  0.30553561  1  -1.163935  0  -0.324899  -0.555472  0  2.304491  0
O  O59  1  0.63183653  0.51317427  0.67996650  1  -1.161207  0  -0.322421  -0.549921  0  2.290744  0
O  O60  1  0.38711007  0.68274641  0.50308532  1  -1.162231  0  -0.311923  -0.544807  0  2.309104  0
O  O61  1  0.37283081  0.30899300  0.48822783  1  -1.162171  0  -0.315449  -0.536974  0  2.284202  0
O  O62  1  0.62176736  0.68927414  0.48482105  1  -1.166514  0  -0.318171  -0.551167  0  2.344394  0
O  O63  1  0.60908183  0.32598045  0.48886683  1  -1.175505  0  -0.319426  -0.563227  0  2.366335  0
