# generated using pymatgen
data_ZnH7C6N7O
_symmetry_space_group_name_H-M   'P 1'
_cell_length_a   6.01950115
_cell_length_b   7.82721318
_cell_length_c   20.36781130
_cell_angle_alpha   90.00057354
_cell_angle_beta   96.83415253
_cell_angle_gamma   90.00055400
_symmetry_Int_Tables_number   1
_chemical_formula_structural   ZnH7C6N7O
_chemical_formula_sum   'Zn4 H28 C24 N28 O4'
_cell_volume   952.82960635
_cell_formula_units_Z   4
loop_
 _symmetry_equiv_pos_site_id
 _symmetry_equiv_pos_as_xyz
  1  'x, y, z'
loop_
 _atom_site_type_symbol
 _atom_site_label
 _atom_site_symmetry_multiplicity
 _atom_site_fract_x
 _atom_site_fract_y
 _atom_site_fract_z
 _atom_site_occupancy
 _atom_site_hle17_bader_spin_density
 _atom_site_hle17_ddec_charge
 _atom_site_hle17_ddec_spin_density
 _atom_site_hle17_ddec_sum_bond_order
 _atom_site_hle17_magmom
 _atom_site_hse06_10hf_bader_spin_density
 _atom_site_hse06_10hf_ddec_charge
 _atom_site_hse06_10hf_ddec_spin_density
 _atom_site_hse06_10hf_ddec_sum_bond_order
 _atom_site_hse06_10hf_magmom
 _atom_site_hse06_bader_spin_density
 _atom_site_hse06_ddec_charge
 _atom_site_hse06_ddec_spin_density
 _atom_site_hse06_ddec_sum_bond_order
 _atom_site_hse06_magmom
 _atom_site_pbe_bader_spin_density
 _atom_site_pbe_cm5_charge
 _atom_site_pbe_ddec_charge
 _atom_site_pbe_ddec_spin_density
 _atom_site_pbe_ddec_sum_bond_order
 _atom_site_pbe_magmom
Zn  Zn0  1  0.88673565  0.82145583  0.25181024  1  0  0.998555  0  2.032114  0  0  0.836782  0  2.527562  0  0  0.874973  0  2.479695  0  0  0.709866  0.810651  0  2.560062  0
Zn  Zn1  1  0.11326994  0.32142233  0.74818173  1  0  0.998503  0  2.032129  0  0  0.836623  0  2.527571  0  0  0.874814  0  2.479697  0  0  0.709789  0.810471  0  2.560077  0
Zn  Zn2  1  0.37682688  0.96241915  0.22611160  1  0  1.002942  0  1.998815  0  0  0.844888  0  2.481886  0  0  0.883277  0  2.434029  0  0  0.709599  0.818571  0  2.514466  0
Zn  Zn3  1  0.62318473  0.46241888  0.77388826  1  0  1.002896  0  1.998763  0  0  0.844855  0  2.481824  0  0  0.883249  0  2.433966  0  0  0.70954  0.818524  0  2.514414  0
H  H4  1  0.46864617  0.44248800  0.44716913  1  0  0.123282  0  0.934788  0  0  0.133022  0  0.992251  0  0  0.135829  0  0.992032  0  0  0.114455  0.130903  0  0.992805  0
H  H5  1  0.53131798  0.94246994  0.55281923  1  0  0.123308  0  0.934669  0  0  0.133033  0  0.992159  0  0  0.135844  0  0.99193  0  0  0.114461  0.130905  0  0.992723  0
H  H6  1  0.27945607  0.56058435  0.53924989  1  0  0.096473  0  0.979572  0  0  0.100052  0  1.050907  0  0  0.102967  0  1.048302  0  0  0.103308  0.097961  0  1.052618  0
H  H7  1  0.72053784  0.06057300  0.46074687  1  0  0.096411  0  0.979591  0  0  0.099951  0  1.050956  0  0  0.102876  0  1.048342  0  0  0.103286  0.09786  0  1.052677  0
H  H8  1  0.89782181  0.69339200  0.51366699  1  0  0.112232  0  0.957303  0  0  0.118467  0  1.021379  0  0  0.121046  0  1.021745  0  0  0.109643  0.116655  0  1.02123  0
H  H9  1  0.10215978  0.19339119  0.48632158  1  0  0.112213  0  0.95729  0  0  0.118533  0  1.021287  0  0  0.121114  0  1.021653  0  0  0.109654  0.116716  0  1.021144  0
H  H10  1  0.72844633  0.70750198  0.39359737  1  0  0.114033  0  0.927353  0  0  0.12235  0  0.989763  0  0  0.125197  0  0.987682  0  0  0.130838  0.120126  0  0.991644  0
H  H11  1  0.27154063  0.20750070  0.60640150  1  0  0.11414  0  0.927259  0  0  0.122428  0  0.989703  0  0  0.125272  0  0.98763  0  0  0.130835  0.120201  0  0.991583  0
H  H12  1  0.20373955  0.34570850  0.28860693  1  0  0.137087  0  0.937866  0  0  0.153608  0  1.00423  0  0  0.155917  0  1.003092  0  0  0.101242  0.151914  0  1.005096  0
H  H13  1  0.79622683  0.84570035  0.71138797  1  0  0.137061  0  0.937858  0  0  0.15358  0  1.004215  0  0  0.15589  0  1.003078  0  0  0.101273  0.151887  0  1.005079  0
H  H14  1  0.47408219  0.39240204  0.33127939  1  0  0.124386  0  0.963772  0  0  0.141754  0  1.028288  0  0  0.143164  0  1.027981  0  0  0.095055  0.14068  0  1.028609  0
H  H15  1  0.52588785  0.89238998  0.66871852  1  0  0.124358  0  0.963839  0  0  0.141686  0  1.028392  0  0  0.143107  0  1.028076  0  0  0.095055  0.140616  0  1.028706  0
H  H16  1  0.32768519  0.54721578  0.27827868  1  0  0.131364  0  0.937764  0  0  0.149187  0  1.003142  0  0  0.151775  0  1.001319  0  0  0.099165  0.147337  0  1.004464  0
H  H17  1  0.67229987  0.04720921  0.72171405  1  0  0.131444  0  0.937685  0  0  0.149253  0  1.003072  0  0  0.151846  0  1.001243  0  0  0.099183  0.1474  0  1.004392  0
H  H18  1  0.76370241  0.21674259  0.00572290  1  0  0.116176  0  0.964754  0  0  0.119269  0  1.03513  0  0  0.12215  0  1.034655  0  0  0.109644  0.117207  0  1.03567  0
H  H19  1  0.23631672  0.71672899  0.99427785  1  0  0.116193  0  0.964673  0  0  0.119261  0  1.035124  0  0  0.122144  0  1.034649  0  0  0.109635  0.1172  0  1.035661  0
H  H20  1  0.05929472  0.40485521  0.06532035  1  0  0.108437  0  0.944277  0  0  0.114278  0  1.012724  0  0  0.117385  0  1.009103  0  0  0.111313  0.112057  0  1.015231  0
H  H21  1  0.94070752  0.90485501  0.93468392  1  0  0.108367  0  0.944321  0  0  0.114197  0  1.012787  0  0  0.117297  0  1.009183  0  0  0.111284  0.111981  0  1.015287  0
H  H22  1  0.03689916  0.47123421  0.18546020  1  0  0.110878  0  0.953733  0  0  0.117733  0  1.019741  0  0  0.121001  0  1.018594  0  0  0.109021  0.115325  0  1.020895  0
H  H23  1  0.96311438  0.97121929  0.81454432  1  0  0.110946  0  0.953689  0  0  0.117764  0  1.019766  0  0  0.121028  0  1.018613  0  0  0.109054  0.115355  0  1.020916  0
H  H24  1  0.71130899  0.35925280  0.23833769  1  0  0.116046  0  0.953852  0  0  0.121489  0  1.021626  0  0  0.124604  0  1.01901  0  0  0.128173  0.119244  0  1.023506  0
H  H25  1  0.28872456  0.85925382  0.76167276  1  0  0.116056  0  0.953865  0  0  0.121576  0  1.021625  0  0  0.124685  0  1.019011  0  0  0.128212  0.119331  0  1.023503  0
H  H26  1  0.40809179  0.95175336  0.07628492  1  0  0.117649  0  0.964254  0  0  0.133509  0  1.035116  0  0  0.134503  0  1.035615  0  0  0.096009  0.132838  0  1.034766  0
H  H27  1  0.59193932  0.45172458  0.92371939  1  0  0.117788  0  0.964017  0  0  0.1336  0  1.034909  0  0  0.134599  0  1.035401  0  0  0.096083  0.132928  0  1.034564  0
H  H28  1  0.41750615  0.07201791  0.00258657  1  0  0.127895  0  0.968437  0  0  0.144998  0  1.033425  0  0  0.1459  0  1.034142  0  0  0.095725  0.144333  0  1.032879  0
H  H29  1  0.58252483  0.57200455  0.99742015  1  0  0.12792  0  0.968228  0  0  0.144988  0  1.033279  0  0  0.145891  0  1.033998  0  0  0.095697  0.144321  0  1.032731  0
H  H30  1  0.23536906  0.13364718  0.06189655  1  0  0.129424  0  0.961952  0  0  0.147507  0  1.026978  0  0  0.148772  0  1.02707  0  0  0.099349  0.146473  0  1.027142  0
H  H31  1  0.76464468  0.63365159  0.93810581  1  0  0.129539  0  0.961752  0  0  0.147602  0  1.02679  0  0  0.148867  0  1.026884  0  0  0.099394  0.146566  0  1.026958  0
C  C32  1  0.20559778  0.51205170  0.37192222  1  0  0.224673  0  3.650626  0  0  0.221982  0  3.903204  0  0  0.230916  0  3.92126  0  0  0.123791  0.216266  0  3.890979  0
C  C33  1  0.79438557  0.01204557  0.62807565  1  0  0.224875  0  3.650909  0  0  0.222269  0  3.903349  0  0  0.231207  0  3.92141  0  0  0.123805  0.216546  0  3.89112  0
C  C34  1  0.30462148  0.50241826  0.43727066  1  0  -0.158866  0  3.708747  0  0  -0.174551  0  3.955691  0  0  -0.182604  0  3.976315  0  0  -0.07733  -0.169532  0  3.942098  0
C  C35  1  0.69535130  0.00241672  0.56273055  1  0  -0.158809  0  3.708787  0  0  -0.17451  0  3.955612  0  0  -0.182575  0  3.976251  0  0  -0.077278  -0.169472  0  3.942015  0
C  C36  1  0.19795492  0.56760062  0.48876218  1  0  -0.002364  0  3.730754  0  0  -0.029614  0  3.993011  0  0  -0.024214  0  4.009238  0  0  -0.069656  -0.03272  0  3.981691  0
C  C37  1  0.80201735  0.06761027  0.51124078  1  0  -0.002541  0  3.730769  0  0  -0.029727  0  3.992986  0  0  -0.024334  0  4.009209  0  0  -0.069771  -0.032843  0  3.98167  0
C  C38  1  0.98715662  0.64222056  0.47466263  1  0  -0.092853  0  3.756057  0  0  -0.107989  0  4.015079  0  0  -0.115174  0  4.036791  0  0  -0.077022  -0.103516  0  4.0005  0
C  C39  1  0.01282913  0.14224396  0.52533590  1  0  -0.092664  0  3.75564  0  0  -0.107913  0  4.01465  0  0  -0.115098  0  4.036361  0  0  -0.076882  -0.10344  0  4.000075  0
C  C40  1  0.89097822  0.65112190  0.40974605  1  0  0.021331  0  3.599513  0  0  -0.020761  0  3.862011  0  0  -0.013436  0  3.87549  0  0  0.043218  -0.025437  0  3.85333  0
C  C41  1  0.10899122  0.15114333  0.59025106  1  0  0.021255  0  3.599294  0  0  -0.020814  0  3.86184  0  0  -0.013491  0  3.875325  0  0  0.04318  -0.025485  0  3.853148  0
C  C42  1  0.30882239  0.44541441  0.31438751  1  0  -0.364503  0  3.705996  0  0  -0.447585  0  3.945243  0  0  -0.449694  0  3.949763  0  0  -0.239403  -0.445886  0  3.942082  0
C  C43  1  0.69115189  0.94540385  0.68560227  1  0  -0.364449  0  3.706177  0  0  -0.447522  0  3.945406  0  0  -0.449651  0  3.949923  0  0  -0.2394  -0.445818  0  3.942232  0
C  C44  1  0.58185816  0.18927024  0.08867666  1  0  0.225063  0  3.638461  0  0  0.224091  0  3.886469  0  0  0.232557  0  3.90456  0  0  0.125066  0.218551  0  3.874218  0
C  C45  1  0.41814120  0.68924436  0.91132870  1  0  0.22519  0  3.638663  0  0  0.224208  0  3.886661  0  0  0.232671  0  3.904757  0  0  0.12516  0.218666  0  3.874419  0
C  C46  1  0.75942226  0.25113718  0.05736851  1  0  -0.150968  0  3.709256  0  0  -0.165809  0  3.958553  0  0  -0.174284  0  3.980283  0  0  -0.075848  -0.160647  0  3.944371  0
C  C47  1  0.24058832  0.75112772  0.94263308  1  0  -0.151091  0  3.709302  0  0  -0.165941  0  3.958679  0  0  -0.174415  0  3.980408  0  0  -0.075902  -0.16078  0  3.944496  0
C  C48  1  0.92405502  0.35418480  0.09061524  1  0  -0.000686  0  3.708602  0  0  -0.030604  0  3.974122  0  0  -0.02448  0  3.98932  0  0  -0.067719  -0.034274  0  3.963922  0
C  C49  1  0.07597173  0.85418666  0.90939044  1  0  -0.000463  0  3.708647  0  0  -0.030335  0  3.974102  0  0  -0.024208  0  3.989291  0  0  -0.067566  -0.034005  0  3.963898  0
C  C50  1  0.91165545  0.39229151  0.15701211  1  0  -0.08833  0  3.741822  0  0  -0.105166  0  4.006346  0  0  -0.1109  0  4.025294  0  0  -0.081654  -0.101849  0  3.99402  0
C  C51  1  0.08835457  0.89227821  0.84299368  1  0  -0.088443  0  3.741736  0  0  -0.105283  0  4.006332  0  0  -0.111006  0  4.02526  0  0  -0.081718  -0.101963  0  3.993998  0
C  C52  1  0.73505849  0.33037988  0.18750668  1  0  0.018054  0  3.606741  0  0  -0.026998  0  3.873887  0  0  -0.019207  0  3.88648  0  0  0.036461  -0.031917  0  3.865475  0
C  C53  1  0.26495222  0.83034500  0.81249597  1  0  0.018207  0  3.606324  0  0  -0.026961  0  3.873456  0  0  -0.019177  0  3.886076  0  0  0.036443  -0.031888  0  3.865066  0
C  C54  1  0.39999145  0.08122217  0.05529926  1  0  -0.368402  0  3.719916  0  0  -0.450156  0  3.955557  0  0  -0.452354  0  3.962715  0  0  -0.241045  -0.448226  0  3.95041  0
C  C55  1  0.60001337  0.58121169  0.94469929  1  0  -0.368693  0  3.719507  0  0  -0.450343  0  3.955218  0  0  -0.452543  0  3.962372  0  0  -0.241122  -0.448419  0  3.950079  0
N  N56  1  0.20194976  0.92539312  0.30422701  1  0  -0.634721  0  2.866639  0  0  -0.590646  0  3.202582  0  0  -0.615491  0  3.204508  0  0  -0.334221  -0.573811  0  3.201233  0
N  N57  1  0.79805691  0.42539173  0.69577096  1  0  -0.634685  0  2.866611  0  0  -0.590597  0  3.202507  0  0  -0.61544  0  3.204434  0  0  -0.334199  -0.573771  0  3.201181  0
N  N58  1  0.28010181  0.93647498  0.36166278  1  0  0.416125  0  4.208877  0  0  0.447799  0  4.487161  0  0  0.46275  0  4.518559  0  0  0.091756  0.437796  0  4.465896  0
N  N59  1  0.71989868  0.43646847  0.63833419  1  0  0.415943  0  4.208721  0  0  0.447631  0  4.487022  0  0  0.462581  0  4.51842  0  0  0.091653  0.437626  0  4.465745  0
N  N60  1  0.35411027  0.94651187  0.41686117  1  0  -0.356932  0  2.38697  0  0  -0.350798  0  2.605224  0  0  -0.358659  0  2.618607  0  0  -0.16714  -0.345245  0  2.596203  0
N  N61  1  0.64586890  0.44650386  0.58313568  1  0  -0.356789  0  2.386745  0  0  -0.350653  0  2.604974  0  0  -0.358523  0  2.618374  0  0  -0.167064  -0.345117  0  2.595965  0
N  N62  1  0.06242945  0.86868122  0.17565344  1  0  -0.648792  0  2.887783  0  0  -0.602199  0  3.235012  0  0  -0.628207  0  3.235538  0  0  -0.343073  -0.58448  0  3.234561  0
N  N63  1  0.93758962  0.36867118  0.82435027  1  0  -0.648684  0  2.887965  0  0  -0.602058  0  3.235158  0  0  -0.628061  0  3.235687  0  0  -0.34293  -0.584343  0  3.234731  0
N  N64  1  0.98537074  0.85601730  0.11799432  1  0  0.417935  0  4.189427  0  0  0.4469  0  4.47189  0  0  0.462049  0  4.502375  0  0  0.098517  0.43675  0  4.451221  0
N  N65  1  0.01464792  0.35601192  0.88200422  1  0  0.417873  0  4.189217  0  0  0.446826  0  4.471706  0  0  0.461973  0  4.502194  0  0  0.098416  0.43666  0  4.451055  0
N  N66  1  0.91215111  0.84392859  0.06297627  1  0  -0.312073  0  2.370841  0  0  -0.302378  0  2.583214  0  0  -0.309092  0  2.596328  0  0  -0.140648  -0.29779  0  2.574536  0
N  N67  1  0.08787697  0.34392855  0.93702533  1  0  -0.312168  0  2.370297  0  0  -0.302519  0  2.582759  0  0  -0.309244  0  2.59588  0  0  -0.140712  -0.297867  0  2.574008  0
N  N68  1  0.69490148  0.99427743  0.29287641  1  0  -0.636678  0  2.893022  0  0  -0.59401  0  3.233841  0  0  -0.61853  0  3.235133  0  0  -0.333309  -0.577345  0  3.232852  0
N  N69  1  0.30510151  0.49427805  0.70712276  1  0  -0.63671  0  2.892745  0  0  -0.594033  0  3.233552  0  0  -0.618558  0  3.234848  0  0  -0.333296  -0.577357  0  3.232553  0
N  N70  1  0.76314504  0.11145968  0.32825482  1  0  0.411048  0  4.209805  0  0  0.443575  0  4.490659  0  0  0.458865  0  4.519894  0  0  0.091717  0.433357  0  4.470847  0
N  N71  1  0.23685946  0.61145676  0.67174284  1  0  0.411234  0  4.209825  0  0  0.443738  0  4.490682  0  0  0.459029  0  4.519911  0  0  0.091766  0.433522  0  4.470865  0
N  N72  1  0.82480128  0.22495572  0.36250101  1  0  -0.347367  0  2.402191  0  0  -0.343389  0  2.625001  0  0  -0.350084  0  2.636867  0  0  -0.164528  -0.338791  0  2.61721  0
N  N73  1  0.17518144  0.72493805  0.63749706  1  0  -0.347528  0  2.402453  0  0  -0.343539  0  2.625269  0  0  -0.350226  0  2.637123  0  0  -0.164584  -0.338949  0  2.617482  0
N  N74  1  0.56805250  0.77327470  0.19285464  1  0  -0.635505  0  2.876239  0  0  -0.587707  0  3.216144  0  0  -0.612936  0  3.217408  0  0  -0.335918  -0.570658  0  3.215357  0
N  N75  1  0.43195910  0.27325755  0.80714546  1  0  -0.635334  0  2.876174  0  0  -0.587463  0  3.216027  0  0  -0.612698  0  3.217302  0  0  -0.335783  -0.570408  0  3.215236  0
N  N76  1  0.49171792  0.68106129  0.14798341  1  0  0.407603  0  4.209588  0  0  0.438765  0  4.491226  0  0  0.453732  0  4.521286  0  0  0.093489  0.42872  0  4.470954  0
N  N77  1  0.50830629  0.18105284  0.85201880  1  0  0.40738  0  4.209774  0  0  0.438471  0  4.491466  0  0  0.453437  0  4.521528  0  0  0.093319  0.428425  0  4.47119  0
N  N78  1  0.41488754  0.59386235  0.10511402  1  0  -0.327359  0  2.411828  0  0  -0.323059  0  2.635648  0  0  -0.329287  0  2.647715  0  0  -0.148294  -0.318722  0  2.62754  0
N  N79  1  0.58513613  0.09386149  0.89488941  1  0  -0.327267  0  2.411919  0  0  -0.322901  0  2.63572  0  0  -0.329125  0  2.64779  0  0  -0.14822  -0.318574  0  2.627617  0
N  N80  1  0.00008207  0.58810284  0.36016935  1  0  0.208754  0  3.647745  0  0  0.256444  0  3.906553  0  0  0.253489  0  3.927245  0  0  -0.115853  0.257779  0  3.892535  0
N  N81  1  0.99990968  0.08808432  0.63982835  1  0  0.208668  0  3.647813  0  0  0.256236  0  3.906629  0  0  0.253268  0  3.927323  0  0  -0.115834  0.25758  0  3.892601  0
N  N82  1  0.57353173  0.23301502  0.15338730  1  0  0.205677  0  3.636019  0  0  0.256636  0  3.891418  0  0  0.253339  0  3.912316  0  0  -0.116247  0.258194  0  3.877199  0
N  N83  1  0.42648299  0.73299432  0.84661753  1  0  0.205424  0  3.636102  0  0  0.256432  0  3.891533  0  0  0.253133  0  3.91243  0  0  -0.116319  0.25799  0  3.877308  0
O  O84  1  0.89917714  0.59469506  0.29804501  1  0  -0.548024  0  1.906003  0  0  -0.492868  0  2.185677  0  0  -0.515497  0  2.180294  0  0  -0.244613  -0.476647  0  2.188752  0
O  O85  1  0.10080150  0.09466920  0.70195282  1  0  -0.548241  0  1.906313  0  0  -0.492867  0  2.1859  0  0  -0.515465  0  2.180485  0  0  -0.24468  -0.476646  0  2.188983  0
O  O86  1  0.39423868  0.18925549  0.18297461  1  0  -0.548704  0  1.878955  0  0  -0.488776  0  2.147722  0  0  -0.512002  0  2.143115  0  0  -0.252888  -0.47216  0  2.150492  0
O  O87  1  0.60576761  0.68923611  0.81702267  1  0  -0.548631  0  1.879066  0  0  -0.488785  0  2.147922  0  0  -0.512009  0  2.143313  0  0  -0.252931  -0.472162  0  2.150691  0
