# generated using pymatgen
data_ZnH14C11(NO2)2
_symmetry_space_group_name_H-M   'P 1'
_cell_length_a   9.96025712
_cell_length_b   12.44652699
_cell_length_c   12.44681487
_cell_angle_alpha   89.99991110
_cell_angle_beta   90.00119700
_cell_angle_gamma   89.99787818
_symmetry_Int_Tables_number   1
_chemical_formula_structural   ZnH14C11(NO2)2
_chemical_formula_sum   'Zn4 H56 C44 N8 O16'
_cell_volume   1543.03921967
_cell_formula_units_Z   4
loop_
 _symmetry_equiv_pos_site_id
 _symmetry_equiv_pos_as_xyz
  1  'x, y, z'
loop_
 _atom_site_type_symbol
 _atom_site_label
 _atom_site_symmetry_multiplicity
 _atom_site_fract_x
 _atom_site_fract_y
 _atom_site_fract_z
 _atom_site_occupancy
 _atom_site_pbe_bader_charge
 _atom_site_pbe_bader_spin_density
 _atom_site_pbe_cm5_charge
 _atom_site_pbe_ddec_charge
 _atom_site_pbe_ddec_spin_density
 _atom_site_pbe_ddec_sum_bond_order
 _atom_site_pbe_magmom
Zn  Zn0  1  0.04239017  0.90272711  0.50877479  1  1.263063  0  0.67817  0.777263  0  2.316593  0
Zn  Zn1  1  0.54238074  0.09727822  0.49123693  1  1.263283  0  0.678177  0.777089  0  2.316949  0
Zn  Zn2  1  0.29239245  0.49123002  0.90272135  1  1.263179  0  0.678073  0.777012  0  2.316462  0
Zn  Zn3  1  0.79237760  0.50878321  0.09725597  1  1.263295  0  0.67812  0.777199  0  2.316909  0
H  H4  1  0.12971741  0.71666819  0.65115345  1  0.129725  0  0.125505  0.104925  0  0.988753  0
H  H5  1  0.62972469  0.28331850  0.34885732  1  0.128596  0  0.125494  0.104966  0  0.988635  0
H  H6  1  0.37971135  0.34884780  0.71667619  1  0.129855  0  0.125518  0.104988  0  0.988692  0
H  H7  1  0.87972186  0.65113957  0.28331704  1  0.129687  0  0.125509  0.104963  0  0.988748  0
H  H8  1  0.05485605  0.63327079  0.82138601  1  0.153727  0  0.111236  0.131513  0  1.036786  0
H  H9  1  0.55486803  0.36670604  0.17860825  1  0.153705  0  0.111247  0.131424  0  1.036867  0
H  H10  1  0.30485371  0.17861192  0.63330096  1  0.153764  0  0.111266  0.13132  0  1.037078  0
H  H11  1  0.80485546  0.82137122  0.36671513  1  0.153914  0  0.111285  0.131516  0  1.036863  0
H  H12  1  0.70869360  0.84375042  0.81309197  1  0.06017  0  0.110094  0.119993  0  1.003316  0
H  H13  1  0.20868620  0.15625403  0.18690565  1  0.060118  0  0.110072  0.120023  0  1.003268  0
H  H14  1  0.95870787  0.18691048  0.84376666  1  0.059822  0  0.110147  0.120013  0  1.003284  0
H  H15  1  0.45868210  0.81309947  0.15626244  1  0.059987  0  0.110068  0.11999  0  1.003447  0
H  H16  1  0.79642634  0.91770724  0.64354083  1  0.153782  0  0.116414  0.097728  0  1.063651  0
H  H17  1  0.29641178  0.08231069  0.35647593  1  0.153669  0  0.116418  0.097729  0  1.063501  0
H  H18  1  0.04641720  0.35647315  0.91769352  1  0.153503  0  0.116396  0.097665  0  1.063639  0
H  H19  1  0.54639567  0.64354090  0.08230703  1  0.153532  0  0.116368  0.097674  0  1.063643  0
H  H20  1  0.72572715  0.71546608  0.95683099  1  0.070114  0  0.109613  0.091942  0  0.989805  0
H  H21  1  0.22574815  0.28452501  0.04315085  1  0.070084  0  0.109718  0.092014  0  0.989819  0
H  H22  1  0.97574223  0.04314733  0.71549393  1  0.070419  0  0.109594  0.091956  0  0.989691  0
H  H23  1  0.47573221  0.95685247  0.28453544  1  0.070003  0  0.109653  0.09196  0  0.989775  0
H  H24  1  0.89450160  0.70811289  0.00196964  1  0.092236  0  0.11618  0.107173  0  0.96906  0
H  H25  1  0.39450716  0.29186520  0.99803027  1  0.091939  0  0.116211  0.107158  0  0.969182  0
H  H26  1  0.14452548  0.99801870  0.70814465  1  0.091889  0  0.116223  0.107111  0  0.96921  0
H  H27  1  0.64450321  0.00197237  0.29187922  1  0.092171  0  0.116177  0.107159  0  0.969055  0
H  H28  1  0.68596223  0.58298324  0.80709366  1  0.069485  0  0.11384  0.080907  0  0.952902  0
H  H29  1  0.18596492  0.41699938  0.19287788  1  0.070082  0  0.113791  0.081042  0  0.952748  0
H  H30  1  0.93597899  0.19290064  0.58301863  1  0.069881  0  0.113835  0.081033  0  0.95285  0
H  H31  1  0.43596437  0.80711962  0.41701089  1  0.069726  0  0.113748  0.080895  0  0.952774  0
H  H32  1  0.87002684  0.46023790  0.74848109  1  0.042456  0  0.089504  0.125039  0  1.00113  0
H  H33  1  0.37001832  0.53973770  0.25150716  1  0.042552  0  0.089413  0.124976  0  1.001309  0
H  H34  1  0.12002419  0.25151543  0.46026795  1  0.042469  0  0.089488  0.125058  0  1.001187  0
H  H35  1  0.62002685  0.74848761  0.53975390  1  0.042444  0  0.089492  0.125034  0  1.001155  0
H  H36  1  0.70967286  0.39759147  0.73760233  1  0.064576  0  0.098696  0.145358  0  0.9921  0
H  H37  1  0.20965869  0.60238885  0.26237924  1  0.064376  0  0.098724  0.145475  0  0.992054  0
H  H38  1  0.95967112  0.26239050  0.39762516  1  0.064319  0  0.098677  0.145417  0  0.992299  0
H  H39  1  0.45967363  0.73761299  0.60239672  1  0.064328  0  0.098723  0.14536  0  0.992254  0
H  H40  1  0.81811805  0.36427447  0.84687056  1  0.061497  0  0.092543  0.136838  0  1.030018  0
H  H41  1  0.31811553  0.63571069  0.15312084  1  0.061562  0  0.092466  0.136758  0  1.030206  0
H  H42  1  0.06811793  0.15313220  0.36430730  1  0.061677  0  0.09245  0.136694  0  1.030399  0
H  H43  1  0.56812053  0.84686755  0.63572253  1  0.061483  0  0.092527  0.136811  0  1.030064  0
H  H44  1  0.07116695  0.74517134  0.18446568  1  0.085094  0  0.091488  0.147554  0  1.036357  0
H  H45  1  0.57113761  0.25485564  0.81555697  1  0.085033  0  0.091412  0.147442  0  1.036407  0
H  H46  1  0.32114513  0.81553706  0.74513243  1  0.084922  0  0.091476  0.147489  0  1.036331  0
H  H47  1  0.82117865  0.18447774  0.25483011  1  0.08559  0  0.09146  0.147474  0  1.036158  0
H  H48  1  0.19469212  0.84433135  0.14990196  1  0.048697  0  0.092929  0.143961  0  1.003741  0
H  H49  1  0.69468638  0.15566950  0.85010828  1  0.048993  0  0.092904  0.143956  0  1.003586  0
H  H50  1  0.44468160  0.85012232  0.84430820  1  0.04918  0  0.092934  0.143857  0  1.003525  0
H  H51  1  0.94471513  0.14988482  0.15565639  1  0.048317  0  0.092905  0.143916  0  1.003698  0
H  H52  1  0.02207021  0.87538915  0.13896036  1  0.014919  0  0.094862  0.144099  0  0.991999  0
H  H53  1  0.52205014  0.12461356  0.86105585  1  0.014483  0  0.094753  0.14397  0  0.991987  0
H  H54  1  0.27204063  0.86105640  0.87536209  1  0.014633  0  0.094793  0.143886  0  0.992003  0
H  H55  1  0.77206883  0.13892851  0.12460927  1  0.014082  0  0.094839  0.144058  0  0.991797  0
H  H56  1  0.91594285  0.53703120  0.92506072  1  0.465952  0  0.294017  0.251762  0  0.998182  0
H  H57  1  0.41594130  0.46295108  0.07491945  1  0.466015  0  0.294065  0.251971  0  0.998033  0
H  H58  1  0.16595182  0.07492487  0.53706161  1  0.466077  0  0.294026  0.251913  0  0.998128  0
H  H59  1  0.66594323  0.92507682  0.46296583  1  0.465804  0  0.293978  0.2518  0  0.998212  0
C  C60  1  0.03538845  0.74071320  0.68840395  1  0.45439  0  0.05316  0.103696  0  3.918354  0
C  C61  1  0.53537680  0.25928028  0.31160606  1  0.453249  0  0.053105  0.103569  0  3.918246  0
C  C62  1  0.28538465  0.31159460  0.74071532  1  0.453673  0  0.053106  0.10357  0  3.918458  0
C  C63  1  0.78538174  0.68840117  0.25928357  1  0.454147  0  0.053098  0.103568  0  3.918423  0
C  C64  1  0.99237009  0.69439858  0.78384921  1  -0.029255  0  -0.083981  -0.174197  0  3.911587  0
C  C65  1  0.49237357  0.30558225  0.21613626  1  -0.029051  0  -0.083923  -0.173996  0  3.911739  0
C  C66  1  0.24237031  0.21614535  0.69441806  1  -0.028856  0  -0.084049  -0.174069  0  3.912001  0
C  C67  1  0.74236015  0.78385008  0.30559539  1  -0.029264  0  -0.084113  -0.174285  0  3.911862  0
C  C68  1  0.87332477  0.73019101  0.83200830  1  -0.076326  0  0.009057  0.136055  0  3.954743  0
C  C69  1  0.37331258  0.26981422  0.16797358  1  -0.076462  0  0.008936  0.135955  0  3.955244  0
C  C70  1  0.12332477  0.16799549  0.73021180  1  -0.076105  0  0.009081  0.136244  0  3.95504  0
C  C71  1  0.62330943  0.83200826  0.26981493  1  -0.075857  0  0.009079  0.136317  0  3.95512  0
C  C72  1  0.80181099  0.81152242  0.78013172  1  0.055146  0  -0.084949  -0.184669  0  3.955024  0
C  C73  1  0.30181701  0.18848411  0.21986022  1  0.054671  0  -0.084895  -0.184698  0  3.954727  0
C  C74  1  0.05181644  0.21986797  0.81153398  1  0.055128  0  -0.085009  -0.184719  0  3.955263  0
C  C75  1  0.55179836  0.78014109  0.18849236  1  0.054661  0  -0.08491  -0.184693  0  3.955613  0
C  C76  1  0.85046914  0.85367249  0.68433811  1  0.418882  0  0.042774  0.085164  0  3.9523  0
C  C77  1  0.35046257  0.14634466  0.31567713  1  0.41852  0  0.042816  0.085143  0  3.95187  0
C  C78  1  0.10045407  0.31566825  0.85367039  1  0.418895  0  0.042879  0.085286  0  3.952427  0
C  C79  1  0.60044738  0.68434421  0.14633668  1  0.419707  0  0.043019  0.085339  0  3.952564  0
C  C80  1  0.82562365  0.68354488  0.93723004  1  0.301448  0  -0.064384  -0.091447  0  3.927325  0
C  C81  1  0.32563163  0.31644006  0.06275265  1  0.301494  0  -0.064388  -0.091445  0  3.928497  0
C  C82  1  0.07563809  0.06276125  0.68358028  1  0.30059  0  -0.064537  -0.09162  0  3.927604  0
C  C83  1  0.57562709  0.93723346  0.31643843  1  0.301162  0  -0.064413  -0.091461  0  3.927564  0
C  C84  1  0.72169644  0.51927172  0.86156095  1  0.266267  0  0.000642  0.052196  0  3.84231  0
C  C85  1  0.22171079  0.48070503  0.13840555  1  0.263781  0  0.000711  0.051706  0  3.842617  0
C  C86  1  0.97168935  0.13843517  0.51929423  1  0.266189  0  0.000607  0.051781  0  3.842526  0
C  C87  1  0.47169695  0.86157761  0.48073427  1  0.266428  0  0.000777  0.052076  0  3.842441  0
C  C88  1  0.78389082  0.42945786  0.79428569  1  -0.085353  0  -0.242724  -0.410015  0  3.903524  0
C  C89  1  0.28388971  0.57052590  0.20569872  1  -0.085775  0  -0.242605  -0.409966  0  3.903827  0
C  C90  1  0.03389354  0.20571519  0.42948269  1  -0.085566  0  -0.242545  -0.409864  0  3.904105  0
C  C91  1  0.53389588  0.79428958  0.57054175  1  -0.08561  0  -0.242752  -0.409935  0  3.903826  0
C  C92  1  0.59580082  0.47837859  0.92066743  1  1.577376  0  0.216638  0.579155  0  4.120932  0
C  C93  1  0.09580770  0.52163561  0.07930100  1  1.577705  0  0.216678  0.579096  0  4.120382  0
C  C94  1  0.84580990  0.07933542  0.47840004  1  1.577663  0  0.216827  0.579696  0  4.120845  0
C  C95  1  0.34580678  0.92068588  0.52163280  1  1.578399  0  0.216509  0.578875  0  4.12116  0
C  C96  1  0.09428934  0.87535662  0.30026969  1  1.562651  0  0.194058  0.6707  0  4.159332  0
C  C97  1  0.59423492  0.12464235  0.69973004  1  1.563019  0  0.194025  0.670635  0  4.158763  0
C  C98  1  0.34427646  0.69973644  0.87536281  1  1.56323  0  0.194041  0.670677  0  4.159469  0
C  C99  1  0.84428007  0.30025116  0.12458645  1  1.56247  0  0.194204  0.671052  0  4.158357  0
C  C100  1  0.09614627  0.83071853  0.18694035  1  -0.084217  0  -0.249108  -0.517805  0  3.910229  0
C  C101  1  0.59612387  0.16929727  0.81308513  1  -0.084289  0  -0.249071  -0.51771  0  3.909441  0
C  C102  1  0.34612961  0.81306766  0.83069268  1  -0.084471  0  -0.249145  -0.517482  0  3.909673  0
C  C103  1  0.84615474  0.18693837  0.16926465  1  -0.083332  0  -0.2491  -0.517809  0  3.909728  0
N  N104  1  0.96544228  0.81929900  0.63883267  1  -1.264449  0  -0.331152  -0.236766  0  3.551534  0
N  N105  1  0.46544936  0.18069388  0.36118850  1  -1.26149  0  -0.331223  -0.236772  0  3.551664  0
N  N106  1  0.21542649  0.36116120  0.81928742  1  -1.263822  0  -0.331234  -0.236805  0  3.551765  0
N  N107  1  0.71542584  0.63883502  0.18070389  1  -1.264553  0  -0.331197  -0.236837  0  3.551725  0
N  N108  1  0.81993983  0.56508380  0.93819017  1  -1.122583  0  -0.481841  -0.353604  0  3.504585  0
N  N109  1  0.31995531  0.43487720  0.06179243  1  -1.119698  0  -0.48191  -0.353441  0  3.505378  0
N  N110  1  0.06994694  0.06179730  0.56511780  1  -1.122213  0  -0.481773  -0.353583  0  3.504464  0
N  N111  1  0.56994303  0.93821605  0.43490322  1  -1.122282  0  -0.481863  -0.353704  0  3.504585  0
O  O112  1  0.59870377  0.47155003  0.02284580  1  -1.169537  0  -0.307495  -0.542406  0  2.317662  0
O  O113  1  0.09870077  0.52846248  0.97712589  1  -1.169956  0  -0.307505  -0.542218  0  2.317714  0
O  O114  1  0.84869946  0.97716175  0.47155264  1  -1.169559  0  -0.307582  -0.542595  0  2.317857  0
O  O115  1  0.34869820  0.02286349  0.52846338  1  -1.170098  0  -0.307447  -0.542131  0  2.317697  0
O  O116  1  0.49660941  0.45352577  0.86191665  1  -1.203699  0  -0.32263  -0.561671  0  2.308721  0
O  O117  1  0.99659488  0.54646780  0.13805924  1  -1.203743  0  -0.322662  -0.561728  0  2.308282  0
O  O118  1  0.74660595  0.13809386  0.45356872  1  -1.203615  0  -0.322733  -0.561961  0  2.308446  0
O  O119  1  0.24661425  0.86193037  0.54648255  1  -1.203683  0  -0.322571  -0.561608  0  2.308562  0
O  O120  1  0.04293662  0.81485209  0.37441358  1  -1.164363  0  -0.340879  -0.562443  0  2.235619  0
O  O121  1  0.54290454  0.18519902  0.62560779  1  -1.16442  0  -0.340783  -0.562294  0  2.235193  0
O  O122  1  0.29293434  0.62560411  0.81482326  1  -1.164748  0  -0.340662  -0.562301  0  2.235205  0
O  O123  1  0.79295115  0.37439304  0.18510908  1  -1.16436  0  -0.340921  -0.562517  0  2.235376  0
O  O124  1  0.13879129  0.96814328  0.31829950  1  -1.211997  0  -0.342261  -0.597899  0  2.131232  0
O  O125  1  0.63874372  0.03184314  0.68170981  1  -1.212197  0  -0.342103  -0.597755  0  2.130992  0
O  O126  1  0.38878297  0.68173230  0.96815481  1  -1.212069  0  -0.342243  -0.597858  0  2.131525  0
O  O127  1  0.88876624  0.31825721  0.03178555  1  -1.211954  0  -0.342264  -0.598043  0  2.130655  0
