# generated using pymatgen
data_ZnH10C7(NO3)2
_symmetry_space_group_name_H-M   'P 1'
_cell_length_a   8.05189230
_cell_length_b   9.26929278
_cell_length_c   26.68897957
_cell_angle_alpha   90.00046285
_cell_angle_beta   90.00083726
_cell_angle_gamma   90.00075967
_symmetry_Int_Tables_number   1
_chemical_formula_structural   ZnH10C7(NO3)2
_chemical_formula_sum   'Zn8 H80 C56 N16 O48'
_cell_volume   1991.94125359
_cell_formula_units_Z   8
loop_
 _symmetry_equiv_pos_site_id
 _symmetry_equiv_pos_as_xyz
  1  'x, y, z'
loop_
 _atom_site_type_symbol
 _atom_site_label
 _atom_site_symmetry_multiplicity
 _atom_site_fract_x
 _atom_site_fract_y
 _atom_site_fract_z
 _atom_site_occupancy
 _atom_site_pbe_bader_charge
 _atom_site_pbe_bader_spin_density
 _atom_site_pbe_cm5_charge
 _atom_site_pbe_ddec_charge
 _atom_site_pbe_ddec_spin_density
 _atom_site_pbe_ddec_sum_bond_order
 _atom_site_pbe_magmom
Zn  Zn0  1  0.50437514  0.88906354  0.36984058  1  1.32885  0  0.691683  0.905363  0  2.222244  0
Zn  Zn1  1  0.49563680  0.61095786  0.86983568  1  1.328741  0  0.691692  0.905282  0  2.222406  0
Zn  Zn2  1  0.99562331  0.38910552  0.63016207  1  1.328648  0  0.691595  0.905212  0  2.222219  0
Zn  Zn3  1  0.00439125  0.11090626  0.13016400  1  1.328608  0  0.691597  0.90529  0  2.222146  0
Zn  Zn4  1  0.49561141  0.11093310  0.63016564  1  1.328672  0  0.691647  0.905352  0  2.221968  0
Zn  Zn5  1  0.50438950  0.38905927  0.13017242  1  1.328707  0  0.6917  0.905463  0  2.222035  0
Zn  Zn6  1  0.00437814  0.61094074  0.36983441  1  1.328716  0  0.691626  0.90522  0  2.222286  0
Zn  Zn7  1  0.99561889  0.88906340  0.86983510  1  1.328705  0  0.691657  0.905333  0  2.222087  0
H  H8  1  0.34236997  0.13008841  0.48762854  1  0.08425  0  0.110848  0.073228  0  0.97298  0
H  H9  1  0.65765290  0.36993173  0.98763756  1  0.083894  0  0.110804  0.073145  0  0.972951  0
H  H10  1  0.15758102  0.63009472  0.51236595  1  0.08431  0  0.110858  0.073248  0  0.973035  0
H  H11  1  0.84235430  0.86993020  0.01236053  1  0.084088  0  0.110798  0.073183  0  0.973097  0
H  H12  1  0.65758801  0.86993736  0.51236494  1  0.084217  0  0.11089  0.073246  0  0.973043  0
H  H13  1  0.34239574  0.63004009  0.01236978  1  0.084004  0  0.110876  0.073343  0  0.972793  0
H  H14  1  0.84240429  0.36992134  0.48763803  1  0.084029  0  0.110897  0.073282  0  0.973049  0
H  H15  1  0.15765088  0.13007075  0.98763220  1  0.083986  0  0.11081  0.073187  0  0.972934  0
H  H16  1  0.18710922  0.90859895  0.48609976  1  0.099299  0  0.107638  0.136536  0  0.989665  0
H  H17  1  0.81285404  0.59141223  0.98609119  1  0.099421  0  0.107683  0.136568  0  0.98958  0
H  H18  1  0.31285225  0.40858784  0.51391049  1  0.098897  0  0.107672  0.136586  0  0.989555  0
H  H19  1  0.68716132  0.09145791  0.01391550  1  0.098668  0  0.107659  0.136491  0  0.989713  0
H  H20  1  0.81286243  0.09141280  0.51391208  1  0.099438  0  0.107663  0.136521  0  0.989512  0
H  H21  1  0.18712009  0.40857686  0.01391503  1  0.099396  0  0.107703  0.136591  0  0.989462  0
H  H22  1  0.68713927  0.59138722  0.48609311  1  0.099621  0  0.107631  0.136552  0  0.989438  0
H  H23  1  0.31282026  0.90854088  0.98608061  1  0.098059  0  0.107664  0.136551  0  0.989624  0
H  H24  1  0.07021804  0.04569236  0.45736955  1  0.113486  0  0.111617  0.139311  0  0.977563  0
H  H25  1  0.92980236  0.45432383  0.95737720  1  0.113351  0  0.111604  0.13925  0  0.977611  0
H  H26  1  0.42976572  0.54570442  0.54262508  1  0.113474  0  0.111608  0.139312  0  0.97769  0
H  H27  1  0.57022175  0.95431905  0.04260952  1  0.113489  0  0.11164  0.139252  0  0.977731  0
H  H28  1  0.92977348  0.95429996  0.54263105  1  0.113444  0  0.11161  0.139297  0  0.977594  0
H  H29  1  0.07023884  0.54570301  0.04262977  1  0.113277  0  0.111613  0.139279  0  0.977673  0
H  H30  1  0.57021959  0.45427819  0.45737477  1  0.113163  0  0.111595  0.139294  0  0.977518  0
H  H31  1  0.42978964  0.04565925  0.95738921  1  0.113485  0  0.111668  0.139286  0  0.977762  0
H  H32  1  0.33972970  0.70919816  0.27487224  1  0.159703  0  0.130965  0.094061  0  1.03978  0
H  H33  1  0.66024857  0.79080916  0.77487094  1  0.159858  0  0.130909  0.094026  0  1.039821  0
H  H34  1  0.16024002  0.20923220  0.72512509  1  0.160075  0  0.130984  0.094043  0  1.03998  0
H  H35  1  0.83973866  0.29077209  0.22511457  1  0.160121  0  0.130914  0.093953  0  1.039961  0
H  H36  1  0.66026305  0.29076287  0.72513585  1  0.159871  0  0.130969  0.094034  0  1.040023  0
H  H37  1  0.33974046  0.20923711  0.22513866  1  0.159722  0  0.130974  0.094112  0  1.039961  0
H  H38  1  0.83976516  0.79081945  0.27486652  1  0.15908  0  0.130921  0.09398  0  1.0398  0
H  H39  1  0.16022429  0.70919973  0.77487029  1  0.159287  0  0.130902  0.093991  0  1.039953  0
H  H40  1  0.64727419  0.96455489  0.18130780  1  0.1783  0  0.118464  0.126127  0  1.043071  0
H  H41  1  0.35274003  0.53543297  0.68130046  1  0.178252  0  0.118429  0.125986  0  1.043263  0
H  H42  1  0.85267423  0.46456420  0.81869131  1  0.178131  0  0.118454  0.126193  0  1.043211  0
H  H43  1  0.14723250  0.03547142  0.31870650  1  0.178237  0  0.118503  0.126051  0  1.043124  0
H  H44  1  0.35264406  0.03543096  0.81868793  1  0.178026  0  0.118484  0.12617  0  1.04326  0
H  H45  1  0.64733470  0.46456150  0.31870351  1  0.177662  0  0.118462  0.12609  0  1.043353  0
H  H46  1  0.14728624  0.53543891  0.18130667  1  0.178154  0  0.118466  0.126158  0  1.043176  0
H  H47  1  0.85273667  0.96457161  0.68129897  1  0.178146  0  0.118466  0.126153  0  1.043177  0
H  H48  1  0.69077298  0.04662899  0.28033889  1  0.118837  0  0.114245  0.108413  0  1.045522  0
H  H49  1  0.30925638  0.45334854  0.78033624  1  0.118839  0  0.114298  0.108546  0  1.045433  0
H  H50  1  0.80917832  0.54661619  0.71964743  1  0.118775  0  0.114355  0.108588  0  1.045545  0
H  H51  1  0.19077908  0.95336071  0.21966739  1  0.118656  0  0.114244  0.108477  0  1.045516  0
H  H52  1  0.30916638  0.95338814  0.71964260  1  0.119576  0  0.114327  0.108595  0  1.045431  0
H  H53  1  0.69080221  0.54663623  0.21966736  1  0.118489  0  0.114256  0.108513  0  1.04549  0
H  H54  1  0.19074985  0.45336211  0.28034755  1  0.119394  0  0.114325  0.108526  0  1.045466  0
H  H55  1  0.80923976  0.04665966  0.78033433  1  0.118684  0  0.114322  0.10862  0  1.045468  0
H  H56  1  0.43284833  0.76033354  0.18366562  1  0.558046  0  0.306712  0.28689  0  1.001164  0
H  H57  1  0.56715108  0.73967489  0.68366257  1  0.557979  0  0.306678  0.286859  0  1.00109  0
H  H58  1  0.06713408  0.26038403  0.81633860  1  0.558186  0  0.306726  0.287101  0  1.000849  0
H  H59  1  0.93280235  0.23966232  0.31632879  1  0.55688  0  0.306693  0.28699  0  1.000945  0
H  H60  1  0.56712331  0.23959945  0.81634248  1  0.558038  0  0.306721  0.287075  0  1.000915  0
H  H61  1  0.43287025  0.26035519  0.31634777  1  0.557879  0  0.306727  0.287029  0  1.000944  0
H  H62  1  0.93289097  0.73966331  0.18365938  1  0.557927  0  0.306705  0.286947  0  1.000942  0
H  H63  1  0.06712955  0.76033324  0.68366244  1  0.558116  0  0.306716  0.28699  0  1.001006  0
H  H64  1  0.75868297  0.05869128  0.38880707  1  0.648946  0  0.282387  0.373422  0  0.98115  0
H  H65  1  0.24133093  0.44131037  0.88880367  1  0.649025  0  0.282417  0.373425  0  0.981099  0
H  H66  1  0.74129595  0.55871540  0.61119502  1  0.648822  0  0.282323  0.373275  0  0.981317  0
H  H67  1  0.25868437  0.94125681  0.11119356  1  0.648655  0  0.282315  0.373271  0  0.981324  0
H  H68  1  0.24132097  0.94131614  0.61118641  1  0.648927  0  0.282281  0.373138  0  0.981511  0
H  H69  1  0.75869785  0.55868951  0.11119956  1  0.649048  0  0.282372  0.373349  0  0.981234  0
H  H70  1  0.25866949  0.44130605  0.38880146  1  0.649058  0  0.282398  0.373367  0  0.981212  0
H  H71  1  0.74135186  0.05870854  0.88880966  1  0.648724  0  0.282321  0.373195  0  0.981439  0
H  H72  1  0.83290371  0.89705995  0.38529537  1  0.630928  0  0.291707  0.38466  0  0.95222  0
H  H73  1  0.16709272  0.60293916  0.88528877  1  0.631162  0  0.291708  0.38462  0  0.952287  0
H  H74  1  0.66705726  0.39708768  0.61470130  1  0.630973  0  0.291719  0.38474  0  0.952086  0
H  H75  1  0.33291321  0.10289354  0.11471763  1  0.631551  0  0.291679  0.384662  0  0.95228  0
H  H76  1  0.16705925  0.10293345  0.61469773  1  0.630785  0  0.291744  0.384659  0  0.952183  0
H  H77  1  0.83293234  0.39706071  0.11471108  1  0.631126  0  0.291747  0.384741  0  0.952089  0
H  H78  1  0.33290321  0.60293701  0.38529818  1  0.630827  0  0.291711  0.384701  0  0.952138  0
H  H79  1  0.66708700  0.89709015  0.88528784  1  0.631329  0  0.291748  0.384741  0  0.952118  0
H  H80  1  0.57546141  0.05991983  0.44482074  1  0.633461  0  0.316896  0.360389  0  0.932473  0
H  H81  1  0.42456344  0.44004860  0.94479953  1  0.633131  0  0.316897  0.360438  0  0.932545  0
H  H82  1  0.92451393  0.55991314  0.55518136  1  0.633453  0  0.316855  0.360342  0  0.932639  0
H  H83  1  0.07545915  0.94009336  0.05517109  1  0.633458  0  0.316921  0.36036  0  0.932488  0
H  H84  1  0.42452390  0.94012320  0.55518024  1  0.633745  0  0.316882  0.360265  0  0.932538  0
H  H85  1  0.57547402  0.55986928  0.05518009  1  0.633831  0  0.316963  0.360364  0  0.932402  0
H  H86  1  0.07546268  0.44007271  0.44481662  1  0.633352  0  0.316859  0.360264  0  0.932714  0
H  H87  1  0.92456591  0.05996045  0.94480553  1  0.632805  0  0.316915  0.360416  0  0.932592  0
C  C88  1  0.33389819  0.07544011  0.45112237  1  0.418184  0  -0.007036  0.104007  0  3.864549  0
C  C89  1  0.66612444  0.42454466  0.95112371  1  0.418864  0  -0.00701  0.104324  0  3.864131  0
C  C90  1  0.16607444  0.57545421  0.54887422  1  0.418194  0  -0.007077  0.104011  0  3.86487  0
C  C91  1  0.83389590  0.92455970  0.04887079  1  0.418231  0  -0.007025  0.103975  0  3.864385  0
C  C92  1  0.66607967  0.92456840  0.54887486  1  0.418163  0  -0.007083  0.103861  0  3.864482  0
C  C93  1  0.33392172  0.57541530  0.04887989  1  0.418157  0  -0.00717  0.103655  0  3.864461  0
C  C94  1  0.83390714  0.42453812  0.45112563  1  0.418393  0  -0.007175  0.10385  0  3.8649  0
C  C95  1  0.16612046  0.07545096  0.95112045  1  0.418891  0  -0.007013  0.10417  0  3.864243  0
C  C96  1  0.32405745  0.19299481  0.41068184  1  1.595958  0  0.203463  0.556903  0  4.201619  0
C  C97  1  0.67600328  0.30697283  0.91069041  1  1.596898  0  0.203303  0.556206  0  4.201808  0
C  C98  1  0.17592015  0.69300806  0.58931657  1  1.596162  0  0.203234  0.556631  0  4.201887  0
C  C99  1  0.82406922  0.80700248  0.08931276  1  1.596055  0  0.203511  0.55702  0  4.201656  0
C  C100  1  0.67591296  0.80702017  0.58931688  1  1.596504  0  0.203511  0.557044  0  4.201675  0
C  C101  1  0.32409131  0.69297634  0.08931806  1  1.596423  0  0.20346  0.556955  0  4.201649  0
C  C102  1  0.82405398  0.30698534  0.41068328  1  1.59682  0  0.203477  0.557043  0  4.201625  0
C  C103  1  0.17598937  0.19301789  0.91068335  1  1.59712  0  0.203663  0.55695  0  4.201042  0
C  C104  1  0.18105471  0.97762022  0.45250958  1  -0.092422  0  -0.159411  -0.34791  0  3.871859  0
C  C105  1  0.81895686  0.52237830  0.95250571  1  -0.092484  0  -0.15941  -0.347896  0  3.871755  0
C  C106  1  0.31892296  0.47763859  0.54749338  1  -0.091853  0  -0.159413  -0.348065  0  3.87213  0
C  C107  1  0.68105720  0.02238314  0.04749216  1  -0.091793  0  -0.159461  -0.34783  0  3.871821  0
C  C108  1  0.81894053  0.02237534  0.54749740  1  -0.092359  0  -0.159415  -0.347798  0  3.87148  0
C  C109  1  0.18106074  0.47761618  0.04750014  1  -0.091729  0  -0.159474  -0.347861  0  3.871738  0
C  C110  1  0.68105862  0.52235050  0.45250760  1  -0.09261  0  -0.159377  -0.347884  0  3.871672  0
C  C111  1  0.31894177  0.97761242  0.95250394  1  -0.091112  0  -0.159461  -0.347913  0  3.871971  0
C  C112  1  0.14929965  0.87748916  0.40839227  1  1.561638  0  0.223425  0.658262  0  4.091158  0
C  C113  1  0.85071013  0.62249970  0.90838435  1  1.561975  0  0.223302  0.658056  0  4.091212  0
C  C114  1  0.35067402  0.37749762  0.59161078  1  1.562087  0  0.223373  0.658268  0  4.091268  0
C  C115  1  0.64931290  0.12249277  0.09161793  1  1.561775  0  0.223342  0.658198  0  4.091122  0
C  C116  1  0.85069063  0.12252366  0.59161395  1  1.561862  0  0.223304  0.65803  0  4.091208  0
C  C117  1  0.14931368  0.37748184  0.09161850  1  1.561846  0  0.223349  0.658057  0  4.091391  0
C  C118  1  0.64931626  0.62250333  0.40839394  1  1.561629  0  0.22331  0.658007  0  4.091226  0
C  C119  1  0.35068856  0.87749632  0.90838230  1  1.56176  0  0.223269  0.657996  0  4.091373  0
C  C120  1  0.42865783  0.79060662  0.26353907  1  0.981773  0  0.142691  0.150335  0  3.930592  0
C  C121  1  0.57133116  0.70939504  0.76353408  1  0.981728  0  0.142809  0.150253  0  3.930651  0
C  C122  1  0.07131725  0.29063768  0.73646262  1  0.963432  0  0.142833  0.150476  0  3.930789  0
C  C123  1  0.92866065  0.20937228  0.23645607  1  0.981659  0  0.14291  0.150563  0  3.930735  0
C  C124  1  0.57131382  0.20936736  0.73646715  1  0.982049  0  0.142858  0.150463  0  3.931114  0
C  C125  1  0.42868395  0.29062857  0.23647551  1  0.963584  0  0.142918  0.150217  0  3.930783  0
C  C126  1  0.92867800  0.70939995  0.26353311  1  0.982006  0  0.14297  0.150531  0  3.930434  0
C  C127  1  0.07131969  0.79062112  0.76353516  1  0.982129  0  0.142952  0.150557  0  3.930735  0
C  C128  1  0.58947602  0.92512720  0.21524670  1  0.358534  0  -0.001959  -0.052335  0  3.925242  0
C  C129  1  0.41053460  0.57486146  0.71524051  1  0.357725  0  -0.001842  -0.051871  0  3.925291  0
C  C130  1  0.91047857  0.42514338  0.78475230  1  0.359616  0  -0.001948  -0.052187  0  3.925405  0
C  C131  1  0.08946776  0.07488065  0.28475982  1  0.358382  0  -0.001913  -0.051957  0  3.925265  0
C  C132  1  0.41046581  0.07484463  0.78475053  1  0.359837  0  -0.001902  -0.051949  0  3.925079  0
C  C133  1  0.58952025  0.42514056  0.28476533  1  0.360315  0  -0.001929  -0.05195  0  3.925402  0
C  C134  1  0.08948687  0.57486081  0.21524605  1  0.359055  0  -0.001836  -0.052157  0  3.925478  0
C  C135  1  0.91052252  0.92514619  0.71524004  1  0.358391  0  -0.00185  -0.051865  0  3.925541  0
C  C136  1  0.61030574  0.96552708  0.26432175  1  0.327165  0  -0.011394  -0.045773  0  4.009557  0
C  C137  1  0.38970564  0.53445842  0.76431609  1  0.327093  0  -0.011608  -0.046437  0  4.009655  0
C  C138  1  0.88964403  0.46553283  0.73567549  1  0.327111  0  -0.011609  -0.046351  0  4.009867  0
C  C139  1  0.11032265  0.03446632  0.23568600  1  0.327329  0  -0.011705  -0.046454  0  4.00973  0
C  C140  1  0.38963610  0.03446848  0.73567286  1  0.32636  0  -0.011652  -0.04648  0  4.009676  0
C  C141  1  0.61034550  0.46553498  0.23568938  1  0.327807  0  -0.011561  -0.04633  0  4.009982  0
C  C142  1  0.11029656  0.53445949  0.26432249  1  0.325924  0  -0.011495  -0.046002  0  4.009436  0
C  C143  1  0.88969867  0.96555837  0.76431460  1  0.327232  0  -0.011781  -0.04677  0  4.010013  0
N  N144  1  0.50907011  0.88076951  0.29415578  1  -1.24159  0  -0.362572  -0.312807  0  3.580088  0
N  N145  1  0.49092633  0.61922639  0.79415051  1  -1.241248  0  -0.362375  -0.312291  0  3.579601  0
N  N146  1  0.99089127  0.38078664  0.70584497  1  -1.223791  0  -0.362514  -0.312584  0  3.5797  0
N  N147  1  0.00909283  0.11920858  0.20584620  1  -1.241911  0  -0.362403  -0.312443  0  3.579715  0
N  N148  1  0.49088912  0.11922713  0.70584594  1  -1.242329  0  -0.362483  -0.31265  0  3.580025  0
N  N149  1  0.50910244  0.38078211  0.20585721  1  -1.223008  0  -0.362525  -0.312466  0  3.579806  0
N  N150  1  0.00906796  0.61923050  0.29415189  1  -1.241016  0  -0.362579  -0.312697  0  3.579858  0
N  N151  1  0.99092477  0.88079777  0.79414990  1  -1.241172  0  -0.362361  -0.312287  0  3.57968  0
N  N152  1  0.47478668  0.81482306  0.21559246  1  -1.31645  0  -0.37581  -0.204642  0  3.680549  0
N  N153  1  0.52521154  0.68517532  0.71558755  1  -1.315967  0  -0.375922  -0.204742  0  3.680929  0
N  N154  1  0.02518402  0.31485427  0.78440891  1  -1.317139  0  -0.375883  -0.204881  0  3.680405  0
N  N155  1  0.97476975  0.18517514  0.28440516  1  -1.315017  0  -0.37588  -0.204901  0  3.680739  0
N  N156  1  0.52517379  0.18513690  0.78441189  1  -1.317064  0  -0.375909  -0.204898  0  3.680458  0
N  N157  1  0.47481848  0.31484289  0.28442167  1  -1.318261  0  -0.376007  -0.204938  0  3.680439  0
N  N158  1  0.97481868  0.68517796  0.21558832  1  -1.316267  0  -0.376082  -0.204928  0  3.680845  0
N  N159  1  0.02519320  0.81483013  0.71558832  1  -1.316573  0  -0.376001  -0.205077  0  3.681059  0
O  O160  1  0.48229512  0.99071374  0.44432946  1  -1.118527  0  -0.381352  -0.482827  0  2.404056  0
O  O161  1  0.51772357  0.50926301  0.94432214  1  -1.118159  0  -0.3814  -0.482903  0  2.40367  0
O  O162  1  0.01768173  0.49071427  0.55566529  1  -1.118972  0  -0.38122  -0.482655  0  2.404187  0
O  O163  1  0.98229504  0.00929470  0.05566183  1  -1.118844  0  -0.381347  -0.482684  0  2.403769  0
O  O164  1  0.51769640  0.00932065  0.55566552  1  -1.119044  0  -0.381288  -0.482602  0  2.404033  0
O  O165  1  0.48230397  0.49066890  0.05567284  1  -1.119209  0  -0.381338  -0.482595  0  2.40403  0
O  O166  1  0.98229986  0.50927698  0.44433082  1  -1.118362  0  -0.381325  -0.482696  0  2.404155  0
O  O167  1  0.01771263  0.99073646  0.94432228  1  -1.117946  0  -0.381443  -0.482928  0  2.403819  0
O  O168  1  0.39269474  0.16721748  0.36914049  1  -1.186711  0  -0.310702  -0.547714  0  2.234952  0
O  O169  1  0.60738914  0.33271790  0.86914390  1  -1.187155  0  -0.310649  -0.547442  0  2.234968  0
O  O170  1  0.10731189  0.66722158  0.63086272  1  -1.186887  0  -0.310573  -0.547461  0  2.234903  0
O  O171  1  0.89271270  0.83279208  0.13085296  1  -1.186334  0  -0.310748  -0.547679  0  2.234842  0
O  O172  1  0.60729803  0.83281476  0.63086086  1  -1.18702  0  -0.310733  -0.547796  0  2.235184  0
O  O173  1  0.39271290  0.66719998  0.13086307  1  -1.186854  0  -0.310693  -0.547708  0  2.235144  0
O  O174  1  0.89265603  0.33277398  0.36913713  1  -1.187302  0  -0.310706  -0.54772  0  2.235016  0
O  O175  1  0.10737072  0.16725526  0.86913790  1  -1.187544  0  -0.31082  -0.547773  0  2.234581  0
O  O176  1  0.24912489  0.30855234  0.42366133  1  -1.209951  0  -0.33096  -0.581166  0  2.236934  0
O  O177  1  0.75096866  0.19143393  0.92367782  1  -1.210649  0  -0.330801  -0.580821  0  2.237166  0
O  O178  1  0.25085495  0.80856524  0.57633553  1  -1.210004  0  -0.330824  -0.581017  0  2.237174  0
O  O179  1  0.74913266  0.69144068  0.07633776  1  -1.21012  0  -0.330877  -0.581206  0  2.237096  0
O  O180  1  0.75084800  0.69146156  0.57634077  1  -1.210138  0  -0.330967  -0.581142  0  2.236885  0
O  O181  1  0.24915326  0.80852818  0.07633627  1  -1.21003  0  -0.330914  -0.581051  0  2.236758  0
O  O182  1  0.74911173  0.19142600  0.42365982  1  -1.210372  0  -0.330946  -0.581254  0  2.237079  0
O  O183  1  0.25093462  0.30856783  0.92366771  1  -1.210533  0  -0.33098  -0.581224  0  2.236983  0
O  O184  1  0.25073881  0.86383246  0.37263992  1  -1.181381  0  -0.307334  -0.550247  0  2.37252  0
O  O185  1  0.74926952  0.63615449  0.87263227  1  -1.181691  0  -0.307322  -0.5502  0  2.372767  0
O  O186  1  0.24922816  0.36382323  0.62736009  1  -1.181603  0  -0.307208  -0.550097  0  2.372735  0
O  O187  1  0.75076766  0.13614210  0.12736629  1  -1.181783  0  -0.307202  -0.550203  0  2.372744  0
O  O188  1  0.74924402  0.13619439  0.62736330  1  -1.181683  0  -0.30723  -0.550133  0  2.372583  0
O  O189  1  0.25076547  0.36381410  0.12736720  1  -1.181943  0  -0.307263  -0.550199  0  2.372698  0
O  O190  1  0.75076460  0.63616586  0.37264463  1  -1.181291  0  -0.307185  -0.549985  0  2.372771  0
O  O191  1  0.24924373  0.86384266  0.87263206  1  -1.181737  0  -0.307152  -0.55007  0  2.3728  0
O  O192  1  0.01308118  0.80547677  0.41001121  1  -1.185952  0  -0.323353  -0.573689  0  2.302083  0
O  O193  1  0.98692743  0.69451536  0.91000269  1  -1.186  0  -0.323303  -0.573627  0  2.302121  0
O  O194  1  0.48688337  0.30548069  0.58998901  1  -1.185963  0  -0.323423  -0.573788  0  2.302077  0
O  O195  1  0.51310473  0.19451613  0.09000278  1  -1.18578  0  -0.323407  -0.5737  0  2.302049  0
O  O196  1  0.98689792  0.19455008  0.58999014  1  -1.185831  0  -0.323346  -0.573654  0  2.302149  0
O  O197  1  0.01310383  0.30546077  0.08999753  1  -1.185751  0  -0.323317  -0.573618  0  2.302226  0
O  O198  1  0.51311809  0.69453752  0.41001721  1  -1.185584  0  -0.323315  -0.573607  0  2.301962  0
O  O199  1  0.48689672  0.80547295  0.91000344  1  -1.185762  0  -0.323402  -0.573659  0  2.302325  0
O  O200  1  0.74812497  0.96187687  0.37086982  1  -1.264316  0  -0.580883  -0.758817  0  2.161549  0
O  O201  1  0.25188826  0.53812730  0.87086909  1  -1.264536  0  -0.580921  -0.758791  0  2.161499  0
O  O202  1  0.75185415  0.46189230  0.62912554  1  -1.264009  0  -0.580844  -0.75882  0  2.161694  0
O  O203  1  0.24812435  0.03806768  0.12913451  1  -1.264282  0  -0.58078  -0.758772  0  2.161941  0
O  O204  1  0.25183302  0.03812085  0.62913116  1  -1.264152  0  -0.580856  -0.758574  0  2.161629  0
O  O205  1  0.74815046  0.46187581  0.12913638  1  -1.264512  0  -0.580924  -0.75891  0  2.161667  0
O  O206  1  0.24812743  0.53812591  0.37086757  1  -1.264381  0  -0.580848  -0.758788  0  2.161714  0
O  O207  1  0.75187338  0.96190415  0.87086384  1  -1.264496  0  -0.580842  -0.758753  0  2.161657  0
