# generated using pymatgen
data_Zr3H14C31Cl5O16F
_symmetry_space_group_name_H-M   'P 1'
_cell_length_a   14.95128882
_cell_length_b   14.87906272
_cell_length_c   14.90605220
_cell_angle_alpha   60.15052549
_cell_angle_beta   59.87297688
_cell_angle_gamma   59.89621583
_symmetry_Int_Tables_number   1
_chemical_formula_structural   Zr3H14C31Cl5O16F
_chemical_formula_sum   'Zr6 H28 C62 Cl10 O32 F2'
_cell_volume   2343.32179982
_cell_formula_units_Z   2
loop_
 _symmetry_equiv_pos_site_id
 _symmetry_equiv_pos_as_xyz
  1  'x, y, z'
loop_
 _atom_site_type_symbol
 _atom_site_label
 _atom_site_symmetry_multiplicity
 _atom_site_fract_x
 _atom_site_fract_y
 _atom_site_fract_z
 _atom_site_occupancy
 _atom_site_pbe_bader_charge
 _atom_site_pbe_bader_spin_density
 _atom_site_pbe_cm5_charge
 _atom_site_pbe_ddec_charge
 _atom_site_pbe_ddec_spin_density
 _atom_site_pbe_ddec_sum_bond_order
 _atom_site_pbe_magmom
Zr  Zr0  1  0.88199745  0.38123904  0.61358904  1  2.637427  0  1.62808  2.380669  0  2.754083  0
Zr  Zr1  1  0.11703549  0.62081066  0.37860104  1  2.632948  0  1.615485  2.375092  0  2.712561  0
Zr  Zr2  1  0.11751709  0.38416109  0.61746483  1  2.63805  0  1.626876  2.380725  0  2.752416  0
Zr  Zr3  1  0.88557038  0.61736067  0.37536998  1  2.634428  0  1.617993  2.374769  0  2.723107  0
Zr  Zr4  1  0.87871527  0.61662545  0.61843216  1  2.63618  0  1.622905  2.375899  0  2.73898  0
Zr  Zr5  1  0.12264143  0.37663666  0.38286717  1  2.635693  0  1.627751  2.376258  0  2.745726  0
H  H6  1  0.90321995  0.40936574  0.77788616  1  0.588903  0  0.327449  0.416801  0  0.869227  0
H  H7  1  0.90605119  0.78089810  0.40352946  1  0.606174  0  0.325978  0.415665  0  0.871234  0
H  H8  1  0.27992865  0.40662503  0.40820215  1  0.619887  0  0.331112  0.422549  0  0.858953  0
H  H9  1  0.91388152  0.40112944  0.40305602  1  0.601725  0  0.331715  0.423635  0  0.855715  0
H  H10  1  0.53388407  0.74790002  0.85745293  1  0.095508  0  0.08979  0.107628  0  1.023013  0
H  H11  1  0.61806199  0.66943790  0.94130456  1  0.046258  0  0.095957  0.107262  0  0.996725  0
H  H12  1  0.44885391  0.67336570  0.11085974  1  0.080589  0  0.085195  0.097229  0  1.040286  0
H  H13  1  0.36405552  0.74992443  0.02718660  1  0.079035  0  0.099004  0.117802  0  0.983382  0
H  H14  1  0.23614199  0.05662484  0.30766896  1  0.05035  0  0.093893  0.105348  0  1.009069  0
H  H15  1  0.12485082  0.13574452  0.25653547  1  0.088106  0  0.086694  0.102063  0  1.035436  0
H  H16  1  0.12802143  0.96464949  0.25746047  1  0.063596  0  0.100364  0.116537  0  0.971886  0
H  H17  1  0.23284219  0.88320850  0.31835029  1  0.069917  0  0.086711  0.101379  0  1.037729  0
H  H18  1  0.51878012  0.85909214  0.36300070  1  0.063538  0  0.087231  0.101507  0  1.031451  0
H  H19  1  0.60382030  0.94214666  0.26934595  1  0.051854  0  0.097574  0.113803  0  0.98693  0
H  H20  1  0.43652691  0.11290277  0.27485366  1  0.078843  0  0.08481  0.101868  0  1.049624  0
H  H21  1  0.35068684  0.03011177  0.36623095  1  0.04119  0  0.0977  0.111912  0  0.998807  0
H  H22  1  0.87351931  0.74220678  0.03199973  1  0.04478  0  0.101062  0.118428  0  0.968865  0
H  H23  1  0.77458122  0.67382918  0.11932325  1  0.067255  0  0.083285  0.097053  0  1.056512  0
H  H24  1  0.76446357  0.67996695  0.95162925  1  0.045346  0  0.094537  0.106278  0  0.995143  0
H  H25  1  0.86730909  0.74326302  0.86676634  1  0.078006  0  0.082491  0.099467  0  1.068635  0
H  H26  1  0.81249854  0.27135903  0.93788213  1  0.043064  0  0.096112  0.098731  0  1.032066  0
H  H27  1  0.65714888  0.27552272  0.11104515  1  0.048777  0  0.095227  0.093406  0  1.019263  0
H  H28  1  0.80926820  0.93127625  0.26380406  1  0.085771  0  0.098226  0.101315  0  1.046019  0
H  H29  1  0.65463258  0.10396872  0.27420488  1  0.071459  0  0.099994  0.099375  0  1.005473  0
H  H30  1  0.54797135  0.34170735  0.73264467  1  0.073571  0  0.088512  0.104763  0  1.029443  0
H  H31  1  0.62953338  0.25778812  0.64713135  1  0.060258  0  0.097483  0.113046  0  0.981288  0
H  H32  1  0.45728328  0.26101775  0.65034857  1  0.079951  0  0.088208  0.101727  0  1.02514  0
H  H33  1  0.37581941  0.34390732  0.73679514  1  0.078005  0  0.096005  0.112368  0  0.989406  0
C  C34  1  0.69290299  0.49939044  0.79422410  1  1.558702  0  0.235243  0.653277  0  4.102769  0
C  C35  1  0.99508289  0.79841554  0.50817856  1  1.577398  0  0.238787  0.659708  0  4.085935  0
C  C36  1  0.30135509  0.49846272  0.19615756  1  1.574818  0  0.236378  0.656208  0  4.08996  0
C  C37  1  0.01031802  0.18703080  0.50847133  1  1.575363  0  0.237682  0.65883  0  4.095978  0
C  C38  1  0.99973170  0.19730783  0.79891170  1  1.603525  0  0.237662  0.665939  0  4.091351  0
C  C39  1  0.70054890  0.50426073  0.48925474  1  1.59144  0  0.236096  0.653161  0  4.094918  0
C  C40  1  0.00370436  0.80000637  0.18936611  1  1.604249  0  0.241444  0.670406  0  4.091839  0
C  C41  1  0.29712148  0.51043345  0.49680113  1  1.584388  0  0.236786  0.655126  0  4.091303  0
C  C42  1  0.99772927  0.49728442  0.80357410  1  1.588702  0  0.234507  0.653896  0  4.099051  0
C  C43  1  0.29620371  0.19189876  0.51235968  1  1.566634  0  0.238679  0.659371  0  4.08924  0
C  C44  1  0.01561430  0.49193608  0.19318984  1  1.589169  0  0.23571  0.654163  0  4.092099  0
C  C45  1  0.69413280  0.79628251  0.50263243  1  1.557733  0  0.236403  0.655379  0  4.090801  0
C  C46  1  0.59396275  0.49309914  0.89550536  1  0.042479  0  -0.014502  -0.130911  0  3.936878  0
C  C47  1  0.40166387  0.49225922  0.09563134  1  0.107823  0  -0.012728  -0.127014  0  3.922308  0
C  C48  1  0.54120320  0.57399638  0.94427426  1  -0.038711  0  -0.002893  0.073569  0  3.894718  0
C  C49  1  0.45606025  0.40626671  0.04966668  1  0.070267  0  0.015503  0.05851  0  3.987209  0
C  C50  1  0.44860175  0.57461281  0.03884295  1  -0.055941  0  -0.002123  0.074173  0  3.888916  0
C  C51  1  0.54781661  0.40793789  0.95091902  1  0.104526  0  0.016422  0.059845  0  3.990016  0
C  C52  1  0.54454077  0.67930116  0.93270866  1  -0.02601  0  -0.153543  -0.195139  0  3.865456  0
C  C53  1  0.43898648  0.68089423  0.03903706  1  -0.041875  0  -0.15265  -0.19251  0  3.853726  0
C  C54  1  0.01078143  0.08158023  0.51883385  1  0.046146  0  -0.013873  -0.126048  0  3.932957  0
C  C55  1  0.99623323  0.89405133  0.51646513  1  0.021055  0  -0.014965  -0.131598  0  3.931561  0
C  C56  1  0.07515292  0.03950433  0.43208472  1  -0.041835  0  -0.004886  0.068577  0  3.895903  0
C  C57  1  0.92775249  0.93704952  0.60502971  1  0.133635  0  0.015304  0.061221  0  3.994353  0
C  C58  1  0.07048483  0.94798734  0.43244780  1  -0.010261  0  -0.003216  0.073834  0  3.897076  0
C  C59  1  0.93980467  0.02322817  0.60964911  1  0.103593  0  0.015627  0.063903  0  3.990906  0
C  C60  1  0.15734251  0.05946780  0.31676533  1  -0.037632  0  -0.15656  -0.197395  0  3.875231  0
C  C61  1  0.15588136  0.95304588  0.31922915  1  -0.024437  0  -0.152995  -0.193273  0  3.863547  0
C  C62  1  0.59231271  0.89523867  0.51143575  1  0.023466  0  -0.013798  -0.128505  0  3.925499  0
C  C63  1  0.39244241  0.08800223  0.52043488  1  -0.001854  0  -0.013939  -0.127926  0  3.933967  0
C  C64  1  0.53411034  0.94234528  0.44040122  1  -0.032623  0  -0.00485  0.066319  0  3.902786  0
C  C65  1  0.44652920  0.03855082  0.59792472  1  0.111369  0  0.017066  0.066838  0  3.981961  0
C  C66  1  0.43995140  0.03537561  0.44377978  1  0.031168  0  -0.005076  0.068855  0  3.909576  0
C  C67  1  0.54624103  0.94791871  0.59035403  1  0.11326  0  0.014704  0.063321  0  3.981657  0
C  C68  1  0.53237303  0.93330606  0.34442120  1  0.000602  0  -0.155587  -0.198928  0  3.867317  0
C  C69  1  0.42706605  0.03976630  0.34724630  1  -0.016948  0  -0.155043  -0.196337  0  3.867429  0
C  C70  1  0.01641343  0.48525186  0.09583535  1  0.004197  0  -0.014215  -0.127932  0  3.932991  0
C  C71  1  0.00098755  0.48513464  0.90786550  1  0.061185  0  -0.014359  -0.128698  0  3.930579  0
C  C72  1  0.93885005  0.56730063  0.04560328  1  -0.037327  0  -0.004082  0.072538  0  3.901446  0
C  C73  1  0.07678408  0.39618246  0.96177983  1  0.063798  0  0.015303  0.065789  0  3.983136  0
C  C74  1  0.93240792  0.56796375  0.95514065  1  0.008682  0  -0.004982  0.071394  0  3.898621  0
C  C75  1  0.08784243  0.39904607  0.04947206  1  0.104777  0  0.014261  0.060929  0  3.991281  0
C  C76  1  0.84826370  0.67717029  0.04619696  1  0.005307  0  -0.154695  -0.193756  0  3.866465  0
C  C77  1  0.84248548  0.67880476  0.94277432  1  -0.015317  0  -0.158867  -0.198303  0  3.878447  0
C  C78  1  0.99741190  0.09743599  0.90143518  1  0.060473  0  -0.01583  -0.166521  0  3.939581  0
C  C79  1  0.90537576  0.09982998  0.00109779  1  0.016863  0  -0.001698  0.069351  0  3.957335  0
C  C80  1  0.08561164  0.00127088  0.90022291  1  0.506765  0  0.095956  0.15985  0  4.088827  0
C  C81  1  0.81398579  0.19751489  0.00993080  1  -0.009123  0  -0.095574  -0.129667  0  3.98455  0
C  C82  1  0.72638188  0.19945866  0.10656553  1  -0.027252  0  -0.096873  -0.083621  0  4.043584  0
C  C83  1  0.99926253  0.90363275  0.09100659  1  0.053478  0  -0.017196  -0.173574  0  3.945881  0
C  C84  1  0.08698290  0.90586118  0.99432854  1  0.49872  0  0.096294  0.160516  0  4.082295  0
C  C85  1  0.90534379  0.00177106  0.09603921  1  0.006267  0  -0.001488  0.070159  0  3.96038  0
C  C86  1  0.81244385  0.00622199  0.19333419  1  -0.077751  0  -0.096277  -0.13582  0  3.977916  0
C  C87  1  0.72513233  0.10281806  0.19865932  1  -0.020916  0  -0.09385  -0.078348  0  4.030702  0
C  C88  1  0.60095556  0.50933070  0.48281578  1  0.032343  0  -0.013197  -0.127183  0  3.924355  0
C  C89  1  0.40026802  0.51353105  0.48773238  1  -0.032032  0  -0.013782  -0.129207  0  3.923071  0
C  C90  1  0.54919755  0.43165575  0.56131309  1  0.035095  0  -0.001954  0.074227  0  3.888155  0
C  C91  1  0.45276962  0.59250962  0.40469708  1  0.085761  0  0.014349  0.059865  0  3.988147  0
C  C92  1  0.45373888  0.43354538  0.56355454  1  0.051734  0  -0.002414  0.07451  0  3.885008  0
C  C93  1  0.55043630  0.58985062  0.40182311  1  0.060502  0  0.013379  0.05598  0  3.9937  0
C  C94  1  0.55618551  0.32954325  0.66173047  1  -0.014239  0  -0.153039  -0.195169  0  3.858214  0
C  C95  1  0.44852044  0.33141752  0.66407967  1  -0.048173  0  -0.15232  -0.191543  0  3.855493  0
Cl  Cl96  1  0.41611949  0.29281601  0.11264229  1  -0.162274  0  0.018845  -0.041271  0  1.799599  0
Cl  Cl97  1  0.60197834  0.30100758  0.90276951  1  -0.157288  0  0.027665  -0.028671  0  1.72484  0
Cl  Cl98  1  0.82316984  0.88979780  0.71017930  1  -0.16047  0  0.030591  -0.022311  0  1.833807  0
Cl  Cl99  1  0.86766449  0.05237941  0.73077265  1  -0.152033  0  0.006471  -0.042906  0  1.645962  0
Cl  Cl100  1  0.39397806  0.08559978  0.70509227  1  -0.150147  0  0.018487  -0.032178  0  1.690937  0
Cl  Cl101  1  0.61220675  0.90917831  0.67729573  1  -0.156261  0  0.012542  -0.051919  0  1.802942  0
Cl  Cl102  1  0.15600782  0.27844331  0.92605247  1  -0.161583  0  0.005582  -0.047203  0  1.654823  0
Cl  Cl103  1  0.19431768  0.29538500  0.09489096  1  -0.156798  0  0.018186  -0.041425  0  1.778226  0
Cl  Cl104  1  0.40097227  0.69587260  0.30170756  1  -0.169259  0  0.02757  -0.038201  0  1.748203  0
Cl  Cl105  1  0.60665859  0.68805297  0.29376929  1  -0.160124  0  0.033131  -0.031816  0  1.770835  0
O  O106  1  0.73504482  0.42860941  0.74709539  1  -1.17331  0  -0.367548  -0.632631  0  2.403763  0
O  O107  1  0.06947885  0.76690437  0.42615914  1  -1.170224  0  -0.338774  -0.597425  0  2.244072  0
O  O108  1  0.26454798  0.57824010  0.23024000  1  -1.165432  0  -0.33846  -0.599532  0  2.221724  0
O  O109  1  0.92926439  0.23665222  0.57521040  1  -1.183153  0  -0.367004  -0.62782  0  2.389435  0
O  O110  1  0.07517961  0.23588230  0.76195953  1  -1.163346  0  -0.342478  -0.607148  0  2.268358  0
O  O111  1  0.74349348  0.57889784  0.41770555  1  -1.185627  0  -0.369202  -0.634916  0  2.391666  0
O  O112  1  0.92927836  0.75926489  0.22747260  1  -1.174546  0  -0.346463  -0.612958  0  2.259965  0
O  O113  1  0.26339799  0.43152629  0.57436883  1  -1.16747  0  -0.332332  -0.587905  0  2.221431  0
O  O114  1  0.91748789  0.57333657  0.77114246  1  -1.171085  0  -0.333225  -0.596184  0  2.209639  0
O  O115  1  0.26345803  0.22829430  0.43230978  1  -1.169296  0  -0.342637  -0.604559  0  2.251686  0
O  O116  1  0.08775149  0.41721773  0.23775620  1  -1.181893  0  -0.360889  -0.617588  0  2.379663  0
O  O117  1  0.73480616  0.74878331  0.57881886  1  -1.174433  0  -0.368592  -0.624128  0  2.411291  0
O  O118  1  0.25546370  0.23938011  0.58231017  1  -1.178589  0  -0.364227  -0.623491  0  2.395593  0
O  O119  1  0.93897539  0.57219276  0.22687958  1  -1.169555  0  -0.341619  -0.601482  0  2.248372  0
O  O120  1  0.73339958  0.76602300  0.41976510  1  -1.170398  0  -0.334035  -0.597286  0  2.217901  0
O  O121  1  0.07795226  0.43167363  0.75197995  1  -1.184063  0  -0.371503  -0.63101  0  2.400268  0
O  O122  1  0.92439280  0.23540066  0.75960960  1  -1.172386  0  -0.345027  -0.611935  0  2.278369  0
O  O123  1  0.25068151  0.58549440  0.42590993  1  -1.187658  0  -0.369227  -0.633548  0  2.397555  0
O  O124  1  0.07909800  0.76304185  0.22807957  1  -1.1679  0  -0.342182  -0.612001  0  2.234566  0
O  O125  1  0.73591629  0.42517723  0.56642088  1  -1.178087  0  -0.331821  -0.587107  0  2.226953  0
O  O126  1  0.08744670  0.22329242  0.43023328  1  -1.176361  0  -0.339282  -0.599454  0  2.23218  0
O  O127  1  0.72995733  0.57499622  0.76254293  1  -1.16579  0  -0.337327  -0.594474  0  2.24784  0
O  O128  1  0.92144706  0.75500161  0.58174859  1  -1.178424  0  -0.36589  -0.631539  0  2.374731  0
O  O129  1  0.25964336  0.42335536  0.24120526  1  -1.180141  0  -0.365275  -0.622377  0  2.411708  0
O  O130  1  0.93840225  0.43024758  0.42901470  1  -1.227969  0  -0.694209  -1.069932  0  2.369251  0
O  O131  1  0.20033963  0.43401685  0.43346058  1  -1.247189  0  -0.693202  -1.068178  0  2.370795  0
O  O132  1  0.93245912  0.70112928  0.42879821  1  -1.235505  0  -0.689983  -1.067271  0  2.360637  0
O  O133  1  0.93108487  0.43390863  0.69827822  1  -1.222006  0  -0.696749  -1.071999  0  2.37879  0
O  O134  1  0.04658054  0.55153927  0.54681233  1  -1.199127  0  -0.788879  -1.147382  0  2.128219  0
O  O135  1  0.85418275  0.54857092  0.54366501  1  -1.196571  0  -0.790146  -1.146702  0  2.133574  0
O  O136  1  0.05197373  0.54752456  0.35017411  1  -1.194578  0  -0.786906  -1.145066  0  2.12264  0
O  O137  1  0.04996825  0.35116074  0.54925297  1  -1.19576  0  -0.792  -1.148953  0  2.127956  0
F  F138  1  0.17724009  0.81493529  0.98484896  1  -0.625856  0  -0.089443  -0.111095  0  1.360365  0
F  F139  1  0.17362140  0.99366623  0.80754944  1  -0.623676  0  -0.093567  -0.113992  0  1.373565  0
