# generated using pymatgen
data_CuH16C14NO4
_symmetry_space_group_name_H-M   'P 1'
_cell_length_a   11.12621065
_cell_length_b   12.00928781
_cell_length_c   12.06260000
_cell_angle_alpha   71.37668723
_cell_angle_beta   63.08532554
_cell_angle_gamma   63.20760464
_symmetry_Int_Tables_number   1
_chemical_formula_structural   CuH16C14NO4
_chemical_formula_sum   'Cu4 H64 C56 N4 O16'
_cell_volume   1269.37256828
_cell_formula_units_Z   4
loop_
 _symmetry_equiv_pos_site_id
 _symmetry_equiv_pos_as_xyz
  1  'x, y, z'
loop_
 _atom_site_type_symbol
 _atom_site_label
 _atom_site_symmetry_multiplicity
 _atom_site_fract_x
 _atom_site_fract_y
 _atom_site_fract_z
 _atom_site_occupancy
 _atom_site_hle17_ddec_charge
 _atom_site_hle17_ddec_spin_density
 _atom_site_hle17_ddec_sum_bond_order
 _atom_site_hle17_magmom
 _atom_site_hse06_10hf_ddec_charge
 _atom_site_hse06_10hf_ddec_spin_density
 _atom_site_hse06_10hf_ddec_sum_bond_order
 _atom_site_hse06_10hf_magmom
 _atom_site_hse06_ddec_charge
 _atom_site_hse06_ddec_spin_density
 _atom_site_hse06_ddec_sum_bond_order
 _atom_site_hse06_magmom
 _atom_site_pbe_bader_charge
 _atom_site_pbe_bader_spin_density
 _atom_site_pbe_cm5_charge
 _atom_site_pbe_ddec_charge
 _atom_site_pbe_ddec_spin_density
 _atom_site_pbe_ddec_sum_bond_order
 _atom_site_pbe_magmom
Cu  Cu0  1  0.75020382  0.61560783  0.38393083  1  0.821352  -0.635314  1.898783  -0.459  0.80762  -0.776274  2.309273  -0.618  0.936999  -0.876343  2.184675  -0.728  1.038909  -0.511331  0.673553  0.74075  -0.654916  2.368248  -0.509
Cu  Cu1  1  0.24980338  0.38442669  0.61603280  1  0.821305  0.635212  1.899061  0.459  0.807908  0.776255  2.309148  0.618  0.937275  0.876401  2.184645  0.728  1.039295  0.511356  0.673635  0.741005  0.654949  2.368161  0.509
Cu  Cu2  1  0.75027738  0.80123400  0.19920396  1  0.817275  0.635356  1.901453  0.459  0.802561  0.774045  2.312433  0.616  0.910693  0.8745  2.224615  0.727  1.050662  0.510687  0.669627  0.731698  0.653763  2.37526  0.508
Cu  Cu3  1  0.24971564  0.19874490  0.80081478  1  0.817486  -0.635293  1.900658  -0.459  0.802853  -0.774049  2.311423  -0.616  0.910913  -0.874577  2.22379  -0.727  1.050247  -0.510695  0.669607  0.731904  -0.653786  2.374362  -0.508
H  H4  1  0.61703308  0.41065380  0.50313603  1  0.093939  -3.4e-05  0.94091  0.0  0.101279  -1.6e-05  1.005889  0.0  0.105068  7e-06  1.001835  0.0  0.108666  -7.7e-05  0.120258  0.098471  -3.6e-05  1.009118  0.0
H  H5  1  0.88324861  0.49772867  0.58803599  1  0.092896  -3.4e-05  0.941408  0.0  0.10052  -1.7e-05  1.006269  0.0  0.104227  7e-06  1.00229  0.0  0.105723  -7.9e-05  0.120172  0.097736  -4e-05  1.00952  0.0
H  H6  1  0.38294925  0.58937507  0.49686714  1  0.093868  3.6e-05  0.940833  0.0  0.101161  1.5e-05  1.0059  0.0  0.104957  -7e-06  1.001826  0.0  0.108246  7.9e-05  0.120265  0.098335  3.7e-05  1.009158  0.0
H  H7  1  0.11678048  0.50226531  0.41195626  1  0.092988  3.8e-05  0.941281  0.0  0.100539  1.7e-05  1.006224  0.0  0.104236  -7e-06  1.002242  0.0  0.105697  8.2e-05  0.120194  0.097753  4.1e-05  1.009474  0.0
H  H8  1  0.60848717  0.23322225  0.68089617  1  0.108842  4e-05  0.976643  0.0  0.119948  -4e-06  1.036565  0.0  0.123408  3e-06  1.035318  0.0  0.092469  -1.4e-05  0.107726  0.117518  -1.4e-05  1.037631  0.0
H  H9  1  0.89116597  0.32026978  0.76569406  1  0.109563  3.5e-05  0.977398  0.0  0.120582  -6e-06  1.037145  0.0  0.124054  1e-06  1.035855  0.0  0.101883  -1.6e-05  0.107529  0.118134  -1.5e-05  1.038262  0.0
H  H10  1  0.39150782  0.76680284  0.31910789  1  0.108674  -3.7e-05  0.976619  0.0  0.119789  3e-06  1.036557  0.0  0.123248  -3e-06  1.035312  0.0  0.092393  1.5e-05  0.107684  0.117356  1.4e-05  1.037615  0.0
H  H11  1  0.10883608  0.67972137  0.23429961  1  0.109545  -3.1e-05  0.977314  0.0  0.120594  5e-06  1.037034  0.0  0.124063  -1e-06  1.035745  0.0  0.10176  1.7e-05  0.107541  0.118146  1.6e-05  1.038145  0.0
H  H12  1  0.96974442  0.91226954  0.98547788  1  0.084231  -2.1e-05  0.948275  0.0  0.094651  -1.6e-05  1.009962  0.0  0.097081  -2.8e-05  1.00843  0.0  0.107879  4.8e-05  0.120978  0.092873  -5e-06  1.010966  0.0
H  H13  1  0.53004264  0.01431795  0.08854635  1  0.084497  -1.6e-05  0.947439  0.0  0.094873  -1.4e-05  1.009308  0.0  0.097325  -2.7e-05  1.007749  0.0  0.108032  4.9e-05  0.120979  0.093081  -4e-06  1.010325  0.0
H  H14  1  0.03023949  0.08777253  0.01452707  1  0.084291  1.7e-05  0.947964  0.0  0.094705  1.6e-05  1.009712  0.0  0.097146  2.9e-05  1.008159  0.0  0.107616  -4.8e-05  0.120926  0.092926  5e-06  1.010719  0.0
H  H15  1  0.46995336  0.98567320  0.91139762  1  0.084469  1.5e-05  0.947331  0.0  0.094832  1.5e-05  1.009209  0.0  0.097312  2.8e-05  1.007588  0.0  0.108359  -4.9e-05  0.120913  0.093024  4e-06  1.010272  0.0
H  H16  1  0.97989932  0.08985041  0.80843391  1  0.115414  1.7e-05  0.966922  0.0  0.12435  -0.0  1.030943  0.0  0.128551  1.8e-05  1.028914  0.0  0.099618  3e-05  0.108972  0.121414  -1.1e-05  1.032497  0.0
H  H17  1  0.52004610  0.19075298  0.91045870  1  0.115131  1.2e-05  0.966889  0.0  0.123919  -2e-06  1.031251  0.0  0.128109  1.8e-05  1.029233  0.0  0.100704  3e-05  0.108461  0.121005  -1.2e-05  1.032775  0.0
H  H18  1  0.02007065  0.91018883  0.19157113  1  0.115404  -1.2e-05  0.966879  0.0  0.124355  1e-06  1.030889  0.0  0.128507  -1.8e-05  1.028927  0.0  0.099866  -3e-05  0.108952  0.121419  1.1e-05  1.032449  0.0
H  H19  1  0.47996653  0.80924666  0.08949801  1  0.115236  -1.2e-05  0.966881  0.0  0.123991  2e-06  1.031256  0.0  0.128186  -1.7e-05  1.029225  0.0  0.101049  -3e-05  0.108463  0.12108  1.2e-05  1.032784  0.0
H  H20  1  0.36864593  0.95514326  0.56080345  1  0.131352  0.000886  0.918212  0.001  0.148945  0.000666  0.970807  0.001  0.15112  0.000504  0.970772  0.001  0.062268  0.001517  0.111139  0.147464  0.000711  0.970762  0.001
H  H21  1  0.13114531  0.43860996  0.04500698  1  0.130333  0.000888  0.919565  0.001  0.147454  0.000667  0.972695  0.001  0.149588  0.000504  0.972707  0.001  0.103288  0.001496  0.110461  0.146027  0.000712  0.972649  0.001
H  H22  1  0.63140573  0.04479887  0.43916187  1  0.131433  -0.000884  0.918238  -0.001  0.148868  -0.000666  0.970992  -0.001  0.151051  -0.000504  0.970942  -0.001  0.06294  -0.001519  0.11117  0.1474  -0.000713  0.97094  -0.001
H  H23  1  0.86879246  0.56141702  0.95505353  1  0.130379  -0.000891  0.919554  -0.001  0.147555  -0.000667  0.972649  -0.001  0.149709  -0.000505  0.972645  -0.001  0.102993  -0.0015  0.110524  0.14612  -0.000714  0.972597  -0.001
H  H24  1  0.27339771  0.89205169  0.53271360  1  0.11028  0.000335  0.946069  0.0  0.124556  0.000199  1.008219  0.0  0.126196  0.00011  1.008521  0.0  0.050593  0.000468  0.104465  0.123338  0.000232  1.008026  0.0
H  H25  1  0.22686335  0.46704788  0.10711721  1  0.110481  0.000333  0.94642  0.0  0.124675  0.000196  1.00823  0.0  0.126342  0.000108  1.008464  0.0  0.051382  0.000459  0.104469  0.123482  0.000229  1.008071  0.0
H  H26  1  0.72658568  0.10794795  0.46725117  1  0.11032  -0.000331  0.946197  0.0  0.124643  -0.000198  1.008203  0.0  0.126292  -0.000109  1.008501  0.0  0.05078  -0.000467  0.104519  0.123424  -0.000232  1.008016  0.0
H  H27  1  0.77315600  0.53297438  0.89287509  1  0.110448  -0.000333  0.946445  0.0  0.124681  -0.000196  1.008279  0.0  0.126359  -0.000108  1.008518  0.0  0.052205  -0.000458  0.104462  0.123479  -0.000228  1.008117  0.0
H  H28  1  0.06909956  0.22582523  0.47232452  1  0.120403  -0.001144  0.928363  -0.001  0.134773  -0.000733  0.982075  -0.001  0.136018  -0.000462  0.982975  0.0  0.066694  -0.001735  0.105542  0.133463  -0.000821  0.981791  -0.001
H  H29  1  0.43088740  0.52811248  0.77437212  1  0.12025  -0.001157  0.928233  -0.001  0.134506  -0.000743  0.982125  -0.001  0.135753  -0.000467  0.983032  0.0  0.067842  -0.001761  0.105289  0.133193  -0.000833  0.981833  -0.001
H  H30  1  0.93095787  0.77421213  0.52765455  1  0.120505  0.001147  0.928142  0.001  0.134756  0.000734  0.98197  0.001  0.135994  0.000462  0.982869  0.0  0.073004  0.00174  0.105529  0.133453  0.000824  0.981682  0.001
H  H31  1  0.56906245  0.47189753  0.22560004  1  0.120227  0.001163  0.928016  0.001  0.13451  0.000744  0.981917  0.001  0.135755  0.000468  0.982821  0.0  0.068159  0.001764  0.105278  0.133207  0.000835  0.981619  0.001
H  H32  1  0.07890866  0.08395616  0.58135325  1  0.100379  0.001138  0.937684  0.001  0.110932  0.000786  1.003225  0.001  0.11245  0.000506  1.002982  0.001  0.023903  0.001836  0.096377  0.110025  0.0009  1.002928  0.001
H  H33  1  0.42081391  0.41833272  0.91550515  1  0.099617  0.001139  0.936267  0.001  0.110124  0.000786  1.002035  0.001  0.111637  0.000506  1.001796  0.001  0.026137  0.001835  0.09593  0.109213  0.000899  1.001738  0.001
H  H34  1  0.92103303  0.91609533  0.41858757  1  0.100271  -0.001137  0.937874  -0.001  0.110885  -0.000787  1.003354  -0.001  0.112398  -0.000507  1.003105  -0.001  0.02468  -0.00184  0.096326  0.109979  -0.000902  1.003065  -0.001
H  H35  1  0.57924503  0.58171312  0.08444821  1  0.099363  -0.001135  0.936571  -0.001  0.110021  -0.000787  1.002208  -0.001  0.111533  -0.000508  1.001962  -0.001  0.025526  -0.001839  0.095891  0.109121  -0.000901  1.001909  -0.001
H  H36  1  0.39341747  0.19123003  0.39562409  1  0.083944  2e-06  0.978697  0.0  0.100143  1.3e-05  1.041901  0.0  0.101579  -1.6e-05  1.041818  0.0  0.041846  8.8e-05  0.086573  0.099119  5.2e-05  1.041996  0.0
H  H37  1  0.10623440  0.60393343  0.80989342  1  0.084305  -0.0  0.9787  0.0  0.099899  1.2e-05  1.04252  0.0  0.101341  -1.7e-05  1.042423  0.0  0.046547  8.5e-05  0.086285  0.098875  5.1e-05  1.042607  0.0
H  H38  1  0.60656805  0.80876207  0.60441182  1  0.084096  -2e-06  0.978614  0.0  0.100173  -1.3e-05  1.041916  0.0  0.101604  1.6e-05  1.041841  0.0  0.041238  -8.8e-05  0.086586  0.099151  -5.2e-05  1.042016  0.0
H  H39  1  0.89378585  0.39602850  0.19010692  1  0.084139  2e-06  0.978521  0.0  0.099871  -1.2e-05  1.042171  0.0  0.101305  1.7e-05  1.042084  0.0  0.046426  -8.4e-05  0.086323  0.098862  -5e-05  1.042253  0.0
H  H40  1  0.48154169  0.08656106  0.28419252  1  0.083132  4.9e-05  0.971882  0.0  0.098458  -6e-06  1.035104  0.0  0.099455  -3e-05  1.035741  0.0  0.047503  6.7e-05  0.088523  0.097809  5.3e-05  1.034548  0.0
H  H41  1  0.01819174  0.71591835  0.91401494  1  0.083034  4.4e-05  0.972813  0.0  0.098266  -8e-06  1.035885  0.0  0.099265  -3.1e-05  1.036501  0.0  0.047817  6.2e-05  0.088399  0.097619  5e-05  1.035314  0.0
H  H42  1  0.51846909  0.91343575  0.71582887  1  0.083044  -4.8e-05  0.972031  0.0  0.098404  6e-06  1.035161  0.0  0.099397  3.1e-05  1.035804  0.0  0.047521  -6.6e-05  0.08856  0.097759  -5.3e-05  1.0346  0.0
H  H43  1  0.98179866  0.28404264  0.08599401  1  0.082912  -4.2e-05  0.97268  0.0  0.098153  9e-06  1.035717  0.0  0.099153  3.1e-05  1.036327  0.0  0.047314  -6.2e-05  0.088327  0.0975  -4.9e-05  1.035171  0.0
H  H44  1  0.13151682  0.04013024  0.36281413  1  0.063004  2.1e-05  0.937177  0.0  0.080568  1e-05  0.998543  0.0  0.081525  2e-06  0.998769  0.0  0.017142  6.5e-05  0.080816  0.07995  2.1e-05  0.998171  0.0
H  H45  1  0.36832682  0.63808269  0.95915354  1  0.063511  2.6e-05  0.937951  0.0  0.081045  1.1e-05  0.999154  0.0  0.081973  3e-06  0.99943  0.0  0.025197  6.6e-05  0.081234  0.080427  2.2e-05  0.998772  0.0
H  H46  1  0.86846585  0.95989297  0.63719402  1  0.063004  -2.4e-05  0.937198  0.0  0.080549  -1e-05  0.998597  0.0  0.081503  -2e-06  0.998826  0.0  0.016707  -6.5e-05  0.0808  0.079945  -2.1e-05  0.998223  0.0
H  H47  1  0.63167852  0.36189810  0.04084454  1  0.063457  -2.7e-05  0.938057  0.0  0.081013  -1.1e-05  0.999289  0.0  0.08195  -3e-06  0.999555  0.0  0.027364  -6.7e-05  0.081217  0.080397  -2.3e-05  0.998907  0.0
H  H48  1  0.31644588  0.98734475  0.26502357  1  0.065922  0.000175  0.987144  0.0  0.078435  0.000132  1.058655  0.0  0.078706  8.1e-05  1.060038  0.0  0.043536  0.000191  0.081432  0.078374  0.000193  1.057632  0.0
H  H49  1  0.18343094  0.73588825  0.01202105  1  0.066161  0.000183  0.987112  0.0  0.078518  0.000135  1.058616  0.0  0.078852  8.2e-05  1.059942  0.0  0.006937  0.000206  0.081133  0.078422  0.000197  1.057614  0.0
H  H50  1  0.68353203  0.01266809  0.73497743  1  0.06583  -0.000179  0.987254  0.0  0.078406  -0.000132  1.058703  0.0  0.078673  -8e-05  1.060092  0.0  0.043225  -0.000192  0.081449  0.078352  -0.000194  1.057685  0.0
H  H51  1  0.81657810  0.26409820  0.98797036  1  0.066203  -0.000184  0.987098  0.0  0.07859  -0.000135  1.058641  0.0  0.078928  -8.2e-05  1.059967  0.0  0.006808  -0.000206  0.08116  0.078494  -0.000197  1.057641  0.0
H  H52  1  0.38106466  0.27326293  0.15971718  1  0.049085  5.2e-05  0.95512  0.0  0.066379  4.1e-05  1.019577  0.0  0.066892  2.4e-05  1.020209  0.0  -0.00655  9.5e-05  0.079158  0.066113  5.9e-05  1.018924  0.0
H  H53  1  0.11905716  0.84066658  0.72726717  1  0.04809  4.9e-05  0.955528  0.0  0.065461  4e-05  1.019562  0.0  0.065926  2.4e-05  1.020244  0.0  0.00543  9.4e-05  0.078825  0.065233  5.9e-05  1.018866  0.0
H  H54  1  0.61895211  0.72672917  0.84031398  1  0.049044  -4.9e-05  0.955081  0.0  0.066402  -4.1e-05  1.019527  0.0  0.066913  -2.5e-05  1.020161  0.0  -0.00687  -9.6e-05  0.079135  0.066143  -6e-05  1.018874  0.0
H  H55  1  0.88091806  0.15930666  0.27276827  1  0.047979  -5.4e-05  0.955352  0.0  0.065467  -4.1e-05  1.019389  0.0  0.065935  -2.4e-05  1.020066  0.0  0.005421  -9.5e-05  0.078828  0.065243  -6e-05  1.018697  0.0
H  H56  1  0.22959567  0.33626494  0.29101001  1  0.059571  7e-06  0.959145  0.0  0.074997  -1.6e-05  1.026056  0.0  0.076104  -1.6e-05  1.025597  0.0  0.00719  -3.8e-05  0.083229  0.074155  -2.4e-05  1.02647  0.0
H  H57  1  0.27032665  0.70877964  0.66479662  1  0.059813  4e-06  0.959454  0.0  0.075292  -1.6e-05  1.025976  0.0  0.076442  -1.6e-05  1.025461  0.0  -0.000695  -3.8e-05  0.083288  0.074419  -2.3e-05  1.026432  0.0
H  H58  1  0.77041853  0.66374790  0.70901314  1  0.05967  -3e-06  0.959028  0.0  0.075104  1.5e-05  1.026019  0.0  0.076213  1.5e-05  1.025561  0.0  0.007355  3.8e-05  0.083268  0.07426  2.4e-05  1.026448  0.0
H  H59  1  0.72964880  0.29121246  0.33519541  1  0.059808  -1e-05  0.959448  0.0  0.075293  1.5e-05  1.026094  0.0  0.076447  1.6e-05  1.025577  0.0  0.01672  3.8e-05  0.083247  0.074425  2.3e-05  1.026551  0.0
H  H60  1  0.24711145  0.18030796  0.13431115  1  0.066915  8.4e-05  0.94827  0.0  0.083112  6.6e-05  1.010938  0.0  0.083276  4.5e-05  1.012308  0.0  0.030524  0.000141  0.083129  0.083007  7.6e-05  1.010034  0.0
H  H61  1  0.25297520  0.86692857  0.81923858  1  0.066708  8.3e-05  0.948813  0.0  0.082743  6.6e-05  1.011993  0.0  0.082916  4.6e-05  1.013332  0.0  0.022041  0.000142  0.0825  0.082629  7.7e-05  1.01111  0.0
H  H62  1  0.75286657  0.81973128  0.86571539  1  0.067065  -8.7e-05  0.948047  0.0  0.083242  -6.6e-05  1.010665  0.0  0.083408  -4.5e-05  1.012031  0.0  0.030691  -0.000142  0.083102  0.083133  -7.6e-05  1.009771  0.0
H  H63  1  0.74707209  0.13303618  0.18072635  1  0.066921  -8.2e-05  0.948648  0.0  0.082733  -6.7e-05  1.012025  0.0  0.082898  -4.6e-05  1.013378  0.0  0.022972  -0.000143  0.0826  0.082634  -7.8e-05  1.011127  0.0
H  H64  1  0.09736149  0.25457709  0.25878055  1  0.069257  -4.9e-05  0.94901  0.0  0.088321  -6e-05  1.008525  0.0  0.089361  -3.4e-05  1.008652  0.0  0.031752  -9.9e-05  0.087218  0.087576  -9.3e-05  1.008417  0.0
H  H65  1  0.40259256  0.74192108  0.74538139  1  0.068865  -4.9e-05  0.949944  0.0  0.087755  -6e-05  1.009863  0.0  0.088822  -3.3e-05  1.009954  0.0  0.032747  -9.7e-05  0.087117  0.087019  -9.2e-05  1.009754  0.0
H  H66  1  0.90262130  0.74545555  0.74125191  1  0.069292  4.5e-05  0.949231  0.0  0.088233  6e-05  1.00879  0.0  0.089269  3.3e-05  1.00893  0.0  0.031343  9.9e-05  0.087259  0.087509  9.3e-05  1.008657  0.0
H  H67  1  0.59742969  0.25802388  0.25459863  1  0.068839  5e-05  0.950004  0.0  0.087809  5.9e-05  1.009762  0.0  0.088883  3.3e-05  1.009838  0.0  0.032857  9.7e-05  0.087035  0.087072  9.2e-05  1.00966  0.0
C  C68  1  0.67576683  0.38794042  0.56403999  1  0.136841  0.000594  3.680742  0.001  0.112187  0.00027  3.932334  0.0  0.121297  0.000389  3.949068  0.001  0.518842  0.00047  0.050605  0.106068  0.00024  3.922535  0.0
C  C69  1  0.82448711  0.43632090  0.61121948  1  0.13795  0.000578  3.679913  0.001  0.112802  0.000265  3.931993  0.0  0.122012  0.000383  3.948707  0.001  0.510782  0.000459  0.050365  0.106611  0.000233  3.922199  0.0
C  C70  1  0.32422738  0.61208656  0.43595302  1  0.136941  -0.000617  3.681094  -0.001  0.112294  -0.00027  3.932752  0.0  0.12141  -0.000389  3.949487  -0.001  0.519477  -0.000467  0.050547  0.106166  -0.000238  3.922947  0.0
C  C71  1  0.17552362  0.56368817  0.38877150  1  0.137861  -0.000607  3.679788  -0.001  0.112768  -0.000265  3.931925  0.0  0.122  -0.000385  3.948615  -0.001  0.510912  -0.000456  0.050286  0.106571  -0.000231  3.92213  0.0
C  C72  1  0.67183618  0.28879518  0.66287928  1  -0.158938  -0.000817  3.697135  -0.001  -0.172485  -0.00054  3.934669  -0.001  -0.179281  -0.000502  3.953141  -0.001  -0.060665  -0.000819  -0.083075  -0.168175  -0.000555  3.922461  -0.001
C  C73  1  0.82805919  0.33763762  0.71048914  1  -0.158957  -0.000814  3.697294  -0.001  -0.172087  -0.000545  3.934627  -0.001  -0.178888  -0.000506  3.95311  -0.001  -0.058218  -0.000826  -0.08189  -0.167779  -0.000561  3.922421  -0.001
C  C74  1  0.32815657  0.71122803  0.33711636  1  -0.158747  0.000822  3.697091  0.001  -0.172253  0.00054  3.934613  0.001  -0.179049  0.000504  3.953098  0.001  -0.060956  0.000818  -0.08303  -0.167944  0.000555  3.922399  0.001
C  C75  1  0.17194549  0.66237145  0.28950022  1  -0.158966  0.000816  3.696879  0.001  -0.172106  0.000545  3.934254  0.001  -0.178902  0.000507  3.952734  0.001  -0.058793  0.000825  -0.081903  -0.167808  0.00056  3.922055  0.001
C  C76  1  0.74994414  0.26140374  0.73845786  1  0.081605  0.000796  3.774878  0.001  0.094518  0.000547  4.001323  0.001  0.098726  0.000499  4.021857  0.001  0.017129  0.000887  0.009589  0.091569  0.000578  3.98742  0.001
C  C77  1  0.25005422  0.73861570  0.26153001  1  0.081714  -0.000798  3.774436  -0.001  0.094589  -0.000547  4.000992  -0.001  0.098787  -0.0005  4.021541  -0.001  0.017562  -0.00089  0.009728  0.091642  -0.000581  3.987081  -0.001
C  C78  1  0.87235083  0.97791604  0.96649891  1  0.132  -0.000681  3.695569  -0.001  0.107839  -0.000382  3.948364  0.0  0.115984  -0.000457  3.965698  -0.001  0.475824  -0.000572  0.051462  0.102454  -0.000322  3.936685  0.0
C  C79  1  0.62747876  0.03340447  0.02259717  1  0.132839  -0.000702  3.694583  -0.001  0.108883  -0.000378  3.946958  0.0  0.117057  -0.000453  3.96426  -0.001  0.469074  -0.000567  0.051657  0.103477  -0.000319  3.935298  0.0
C  C80  1  0.12763464  0.02210529  0.03350286  1  0.132151  0.000735  3.695103  0.001  0.108008  0.000381  3.94792  0.0  0.116158  0.000459  3.965227  0.001  0.47569  0.000571  0.051454  0.102627  0.000321  3.936241  0.0
C  C81  1  0.37251948  0.96658857  0.97736764  1  0.13304  0.000726  3.694828  0.001  0.109104  0.000378  3.947193  0.0  0.11729  0.000454  3.964489  0.001  0.468543  0.000566  0.051807  0.103695  0.000318  3.935534  0.0
C  C82  1  0.87724112  0.07661948  0.86719340  1  -0.161437  0.000915  3.686484  0.001  -0.176  0.00058  3.927095  0.001  -0.182314  0.000545  3.944299  0.001  -0.074459  0.000749  -0.078345  -0.172017  0.000522  3.915504  0.001
C  C83  1  0.62265997  0.13236870  0.92359291  1  -0.163236  0.000933  3.687487  0.001  -0.177821  0.000581  3.92824  0.001  -0.184133  0.000546  3.945503  0.001  -0.04031  0.000752  -0.078912  -0.173841  0.000525  3.916588  0.001
C  C84  1  0.12274077  0.92340562  0.13280950  1  -0.161494  -0.00097  3.686348  -0.001  -0.176044  -0.000578  3.927035  -0.001  -0.182328  -0.000547  3.944261  -0.001  -0.072394  -0.000749  -0.078175  -0.172062  -0.000523  3.915456  -0.001
C  C85  1  0.37734017  0.86763188  0.07638031  1  -0.163358  -0.000955  3.687586  -0.001  -0.177868  -0.000579  3.928268  -0.001  -0.184182  -0.000546  3.945525  -0.001  -0.040434  -0.000753  -0.078883  -0.173886  -0.000525  3.916625  -0.001
C  C86  1  0.74994003  0.15620964  0.84363097  1  0.096895  -0.000865  3.763884  -0.001  0.109547  -0.00056  3.991033  -0.001  0.114281  -0.000518  4.010711  -0.001  0.070149  -0.000909  0.01709  0.10644  -0.000578  3.977656  -0.001
C  C87  1  0.25005043  0.84380697  0.15635945  1  0.096935  0.000897  3.764069  0.001  0.10953  0.00056  3.991316  0.001  0.114276  0.00052  4.010974  0.001  0.068102  0.000907  0.016964  0.106421  0.000577  3.977944  0.001
C  C88  1  0.49147412  0.85055442  0.40961169  1  0.690956  0.001137  3.79974  0.001  0.652371  0.001203  4.107038  0.001  0.693351  0.001134  4.101847  0.001  1.531182  0.001304  0.214659  0.62447  0.001141  4.11111  0.001
C  C89  1  0.00885385  0.59039704  0.14922269  1  0.691309  0.001143  3.799014  0.001  0.653491  0.0012  4.104812  0.001  0.694502  0.001133  4.099502  0.001  1.532505  0.001293  0.215437  0.625611  0.001139  4.10897  0.001
C  C90  1  0.50854444  0.14943579  0.59034554  1  0.691283  -0.001139  3.799815  -0.001  0.653179  -0.001211  4.106345  -0.001  0.694173  -0.001138  4.101105  -0.001  1.531999  -0.001307  0.215029  0.625264  -0.001145  4.110434  -0.001
C  C91  1  0.99113857  0.40963183  0.85080860  1  0.690499  -0.00115  3.799548  -0.001  0.652742  -0.001205  4.105395  -0.001  0.693767  -0.001136  4.100093  -0.001  1.527671  -0.001286  0.215091  0.624848  -0.00114  4.10953  -0.001
C  C92  1  0.34904443  0.94279288  0.48454348  1  -0.31467  0.000214  3.604365  0.0  -0.357682  -0.000108  3.837516  0.0  -0.366878  -8.3e-05  3.846285  0.0  -0.003097  -0.000187  -0.157712  -0.350287  -0.000234  3.8308  0.0
C  C93  1  0.15103407  0.51522095  0.05697211  1  -0.31432  0.000143  3.606225  0.0  -0.356303  -0.00014  3.83825  0.0  -0.36538  -0.000103  3.846849  0.0  -0.047508  -0.000213  -0.157301  -0.349148  -0.000269  3.831821  0.0
C  C94  1  0.65095773  0.05719073  0.51542932  1  -0.31498  -0.000232  3.604862  0.0  -0.357856  0.000112  3.83764  0.0  -0.367074  8.4e-05  3.846408  0.0  -0.004153  0.000186  -0.157897  -0.350461  0.000235  3.830935  0.0
C  C95  1  0.84896283  0.48479471  0.94304244  1  -0.314199  -0.000137  3.606585  0.0  -0.356382  0.000145  3.838859  0.0  -0.365521  0.000105  3.847546  0.0  -0.044456  0.000204  -0.157292  -0.349167  0.000271  3.832359  0.0
C  C96  1  0.27751793  0.07163313  0.41731146  1  0.186908  -0.001473  3.505341  -0.002  0.215749  -0.000841  3.729187  -0.001  0.217934  -0.000485  3.746872  -0.001  0.041521  -0.001574  -0.011192  0.213907  -0.000972  3.71722  -0.001
C  C97  1  0.22235308  0.58278694  0.92836754  1  0.186957  -0.001471  3.507097  -0.002  0.2145  -0.000844  3.732694  -0.001  0.216663  -0.000486  3.750411  -0.001  0.044831  -0.00158  -0.011285  0.212699  -0.000977  3.72072  -0.001
C  C98  1  0.72248182  0.92836840  0.58269396  1  0.187093  0.001485  3.505105  0.002  0.215717  0.000844  3.729141  0.001  0.217899  0.000487  3.746831  0.001  0.040472  0.001582  -0.011129  0.213879  0.000977  3.717177  0.001
C  C99  1  0.77765411  0.41719667  0.07163218  1  0.186897  0.001486  3.506709  0.002  0.214382  0.000848  3.732659  0.001  0.216553  0.000489  3.750384  0.001  0.044207  0.001589  -0.011236  0.212584  0.000983  3.720676  0.001
C  C100  1  0.13846085  0.14661406  0.51871421  1  -0.315127  -0.00089  3.603496  -0.001  -0.354387  -0.000868  3.835498  -0.001  -0.363932  -0.000585  3.845298  -0.001  -0.016451  -0.001398  -0.157596  -0.346459  -0.000937  3.827948  -0.001
C  C101  1  0.36139124  0.48134321  0.85324046  1  -0.313852  -0.000962  3.601254  -0.001  -0.353179  -0.000905  3.833838  -0.001  -0.362739  -0.000607  3.843672  -0.001  -0.017096  -0.001452  -0.157394  -0.345216  -0.000979  3.826252  -0.001
C  C102  1  0.86153969  0.85340255  0.48128609  1  -0.314991  0.000864  3.603378  0.001  -0.354152  0.000862  3.835345  0.001  -0.363658  0.00058  3.845105  0.001  -0.023441  0.001383  -0.157512  -0.346231  0.000927  3.827795  0.001
C  C103  1  0.63861136  0.51864418  0.14674671  1  -0.313503  0.000925  3.600925  0.001  -0.352945  0.000903  3.83343  0.001  -0.362481  0.000603  3.84324  0.001  -0.016717  0.001445  -0.157438  -0.345004  0.000973  3.825849  0.001
C  C104  1  0.17107847  0.19978573  0.59604620  1  0.69031  0.000433  3.817618  0.0  0.652464  0.000731  4.123664  0.001  0.693239  0.000755  4.11968  0.001  1.522151  0.000486  0.214213  0.624647  0.00064  4.127247  0.001
C  C105  1  0.32865888  0.40395914  0.80005210  1  0.690071  0.000459  3.818388  0.0  0.652944  0.000736  4.123163  0.001  0.693713  0.000769  4.119195  0.001  1.511887  0.000488  0.214762  0.625122  0.000641  4.126732  0.001
C  C106  1  0.82891433  0.80017431  0.40399853  1  0.690011  -0.000408  3.818016  0.0  0.652125  -0.000721  4.124012  -0.001  0.692885  -0.000743  4.120067  -0.001  1.522439  -0.000471  0.214061  0.624316  -0.000628  4.127594  -0.001
C  C107  1  0.67136013  0.59598393  0.19998127  1  0.689541  -0.000429  3.818833  0.0  0.652474  -0.000728  4.123482  -0.001  0.693225  -0.000757  4.119561  -0.001  1.512525  -0.000475  0.214673  0.624665  -0.000631  4.127047  -0.001
C  C108  1  0.37580294  0.14932266  0.33839294  1  -0.189229  0.000389  3.616088  0.0  -0.230933  0.000151  3.858614  0.0  -0.232852  1.9e-05  3.871004  0.0  -0.014848  0.000399  -0.178534  -0.229473  0.000297  3.849731  0.0
C  C109  1  0.12391701  0.66159366  0.85135544  1  -0.189676  0.000375  3.618667  0.0  -0.23072  0.000144  3.86094  0.0  -0.232652  1.6e-05  3.873387  0.0  -0.028496  0.000386  -0.178564  -0.229234  0.000288  3.851997  0.0
C  C110  1  0.62419771  0.85066944  0.66163086  1  -0.189386  -0.000385  3.616288  0.0  -0.230911  -0.00015  3.858813  0.0  -0.23283  -1.8e-05  3.871218  0.0  -0.013824  -0.000398  -0.178566  -0.229419  -0.000297  3.84988  0.0
C  C111  1  0.87608543  0.33837958  0.14864956  1  -0.189362  -0.000384  3.618047  0.0  -0.230346  -0.000144  3.860402  0.0  -0.232272  -1.6e-05  3.872844  0.0  -0.027361  -0.000385  -0.178421  -0.228887  -0.000287  3.85153  0.0
C  C112  1  0.22992109  0.06336686  0.31889734  1  -0.171645  0.000281  3.630053  0.0  -0.214967  0.000253  3.882645  0.0  -0.217439  0.000193  3.897556  0.0  -0.061371  0.000382  -0.171319  -0.212925  0.00028  3.872025  0.0
C  C113  1  0.26995271  0.68184451  0.93622421  1  -0.172236  0.000264  3.631858  0.0  -0.214993  0.000257  3.884334  0.0  -0.217513  0.000196  3.899287  0.0  -0.028241  0.000377  -0.170933  -0.212923  0.000285  3.873718  0.0
C  C114  1  0.77006830  0.93664504  0.68111242  1  -0.171579  -0.000269  3.629956  0.0  -0.214939  -0.000253  3.882544  0.0  -0.217414  -0.000192  3.897471  0.0  -0.059775  -0.000384  -0.171348  -0.212931  -0.000281  3.871959  0.0
C  C115  1  0.73005437  0.31812968  0.06377358  1  -0.172074  -0.000261  3.631531  0.0  -0.214992  -0.000258  3.884099  0.0  -0.217518  -0.000195  3.899045  0.0  -0.029814  -0.000379  -0.170837  -0.212915  -0.000286  3.873481  0.0
C  C116  1  0.30128530  0.24891854  0.24953330  1  -0.099305  -6.5e-05  3.646946  0.0  -0.13687  -6e-05  3.907599  0.0  -0.137483  -4.3e-05  3.921068  0.0  -0.018441  -8e-06  -0.172173  -0.136191  -1.4e-05  3.897988  0.0
C  C117  1  0.19862868  0.75071435  0.75168149  1  -0.0995  -4.9e-05  3.649241  0.0  -0.136332  -5.8e-05  3.908664  0.0  -0.136927  -4.1e-05  3.922116  0.0  -0.023899  -5e-06  -0.172025  -0.135675  -1.3e-05  3.899045  0.0
C  C118  1  0.69871350  0.75108769  0.75049257  1  -0.099308  3.9e-05  3.647107  0.0  -0.137092  6e-05  3.907854  0.0  -0.137706  4.2e-05  3.921325  0.0  -0.018493  8e-06  -0.172229  -0.136415  1.4e-05  3.898237  0.0
C  C119  1  0.80137118  0.24926266  0.24832173  1  -0.099376  7.6e-05  3.648758  0.0  -0.136593  5.8e-05  3.908571  0.0  -0.137193  4.2e-05  3.922016  0.0  -0.04249  5e-06  -0.17211  -0.135925  1.2e-05  3.898966  0.0
C  C120  1  0.21130981  0.19154209  0.23253444  1  -0.112385  -0.000227  3.623735  0.0  -0.14919  -0.000156  3.883387  0.0  -0.150108  -8.9e-05  3.897581  0.0  -0.044713  -0.000184  -0.170844  -0.148428  -0.000163  3.873292  0.0
C  C121  1  0.28862110  0.76827546  0.80837335  1  -0.111405  -0.00022  3.623451  0.0  -0.148772  -0.000155  3.883169  0.0  -0.149691  -9e-05  3.897296  0.0  -0.035875  -0.000184  -0.170864  -0.148026  -0.000163  3.873144  0.0
C  C122  1  0.78867263  0.80847924  0.76749512  1  -0.112545  0.000249  3.623674  0.0  -0.149108  0.000156  3.883188  0.0  -0.15003  8.9e-05  3.897387  0.0  -0.044374  0.000183  -0.170766  -0.14834  0.000163  3.873086  0.0
C  C123  1  0.71139937  0.23168836  0.19161468  1  -0.111592  0.000207  3.623421  0.0  -0.148603  0.000156  3.882995  0.0  -0.14952  8.8e-05  3.897126  0.0  -0.036244  0.000183  -0.170835  -0.14786  0.000162  3.87296  0.0
N  N124  1  0.75025878  0.46130449  0.53831734  1  -0.298425  -0.005327  3.21443  -0.008  -0.249854  -0.005297  3.495927  -0.008  -0.277087  -0.004176  3.510845  -0.007  -1.20677  -0.006751  -0.331976  -0.234872  -0.004799  3.487151  -0.007
N  N125  1  0.24974355  0.53871024  0.46168032  1  -0.298486  0.005335  3.21494  0.008  -0.249954  0.005287  3.49645  0.008  -0.27718  0.004173  3.511356  0.007  -1.206191  0.006733  -0.331907  -0.234963  0.004784  3.487674  0.007
N  N126  1  0.74988882  0.95644901  0.04400368  1  -0.300255  0.004265  3.22919  0.006  -0.254511  0.004641  3.51626  0.007  -0.277362  0.00384  3.531932  0.007  -1.246121  0.005984  -0.330992  -0.239644  0.004303  3.506957  0.007
N  N127  1  0.25010331  0.04355629  0.95597968  1  -0.300542  -0.004269  3.229688  -0.006  -0.2549  -0.004619  3.516891  -0.007  -0.27774  -0.003826  3.532564  -0.007  -1.246046  -0.005951  -0.331088  -0.240006  -0.004282  3.507586  -0.006
O  O128  1  0.54576518  0.88210068  0.29063518  1  -0.585958  0.072634  2.160798  0.095  -0.556656  0.049483  2.451868  0.071  -0.604817  0.039017  2.447556  0.059  -1.129351  0.077857  -0.316641  -0.524831  0.050646  2.455981  0.07
O  O129  1  0.95476792  0.70978653  0.11799174  1  -0.586733  0.072337  2.160603  0.095  -0.55782  0.049267  2.451167  0.07  -0.605903  0.038858  2.446679  0.058  -1.131952  0.077579  -0.31724  -0.526002  0.050428  2.455289  0.069
O  O130  1  0.45426369  0.11794233  0.70933080  1  -0.586251  -0.072614  2.160621  -0.095  -0.557109  -0.04946  2.451366  -0.071  -0.605261  -0.038994  2.447045  -0.059  -1.129219  -0.077841  -0.316834  -0.525258  -0.050636  2.4555  -0.07
O  O131  1  0.04518563  0.29022914  0.88197128  1  -0.586613  -0.072306  2.160349  -0.095  -0.557761  -0.049246  2.45093  -0.07  -0.605858  -0.038833  2.446529  -0.058  -1.130942  -0.077564  -0.317183  -0.525922  -0.050419  2.455054  -0.069
O  O132  1  0.54750386  0.74773329  0.47145078  1  -0.576618  -0.065036  2.030796  -0.086  -0.55613  -0.045201  2.305613  -0.066  -0.601257  -0.035588  2.296596  -0.056  -1.12724  -0.071678  -0.308371  -0.52994  -0.046824  2.311703  -0.066
O  O133  1  0.95280578  0.52824541  0.25185354  1  -0.576594  -0.065087  2.031422  -0.086  -0.556397  -0.045207  2.305933  -0.066  -0.601597  -0.035594  2.296958  -0.056  -1.124468  -0.071713  -0.308357  -0.530175  -0.04683  2.311982  -0.066
O  O134  1  0.45250361  0.25223995  0.52849575  1  -0.576642  0.065082  2.030704  0.086  -0.556389  0.045225  2.305148  0.066  -0.601548  0.035597  2.296184  0.056  -1.128128  0.071738  -0.308377  -0.530207  0.04686  2.311297  0.066
O  O135  1  0.04723385  0.47180325  0.74821641  1  -0.576035  0.065132  2.031448  0.086  -0.555821  0.045227  2.305722  0.066  -0.601027  0.035598  2.296785  0.056  -1.123819  0.071772  -0.308077  -0.529583  0.046863  2.311754  0.066
O  O136  1  0.20372416  0.12923774  0.69007745  1  -0.585773  -0.066922  2.018895  -0.089  -0.563165  -0.046994  2.292405  -0.069  -0.605213  -0.037003  2.285726  -0.058  -1.131397  -0.073314  -0.310961  -0.537359  -0.047863  2.299601  -0.067
O  O137  1  0.29589376  0.30946179  0.87026552  1  -0.585732  -0.067521  2.01935  -0.089  -0.563355  -0.047311  2.292465  -0.069  -0.605567  -0.037233  2.28604  -0.058  -1.122994  -0.073765  -0.311584  -0.537447  -0.04819  2.299483  -0.068
O  O138  1  0.79630666  0.87069874  0.30993319  1  -0.585648  0.066906  2.018823  0.089  -0.56308  0.046993  2.292495  0.069  -0.605149  0.037011  2.28581  0.058  -1.131874  0.073277  -0.31091  -0.537267  0.047846  2.299645  0.067
O  O139  1  0.70406993  0.69052465  0.12979126  1  -0.585473  0.067512  2.019614  0.089  -0.563162  0.047314  2.292775  0.069  -0.605396  0.037241  2.28635  0.058  -1.122752  0.07374  -0.311433  -0.537271  0.048178  2.299788  0.068
O  O140  1  0.16640260  0.31356381  0.55683482  1  -0.580257  0.075859  2.124175  0.099  -0.556503  0.051623  2.418386  0.074  -0.609701  0.040611  2.413287  0.061  -1.109023  0.081304  -0.312488  -0.523624  0.052925  2.420746  0.073
O  O141  1  0.33329618  0.44361328  0.68676863  1  -0.580197  0.075737  2.123045  0.099  -0.556321  0.05151  2.416149  0.074  -0.609534  0.040529  2.411062  0.061  -1.108586  0.081142  -0.312401  -0.523495  0.05282  2.418628  0.073
O  O142  1  0.83354328  0.68641697  0.44326353  1  -0.580125  -0.075937  2.124545  -0.099  -0.556226  -0.051687  2.418702  -0.074  -0.60942  -0.040667  2.413605  -0.061  -1.109317  -0.08139  -0.312321  -0.523368  -0.052981  2.42106  -0.073
O  O143  1  0.66678672  0.55627794  0.31323880  1  -0.579933  -0.07576  2.123279  -0.099  -0.555928  -0.051543  2.416303  -0.074  -0.609141  -0.040558  2.411237  -0.061  -1.1094  -0.08118  -0.312332  -0.523111  -0.052846  2.418754  -0.073
