# generated using pymatgen
data_Ca2H12C14N2O11
_symmetry_space_group_name_H-M   'P 1'
_cell_length_a   8.36770642
_cell_length_b   8.36769234
_cell_length_c   13.55739581
_cell_angle_alpha   88.16665228
_cell_angle_beta   88.16644501
_cell_angle_gamma   71.95734809
_symmetry_Int_Tables_number   1
_chemical_formula_structural   Ca2H12C14N2O11
_chemical_formula_sum   'Ca4 H24 C28 N4 O22'
_cell_volume   901.88230577
_cell_formula_units_Z   2
loop_
 _symmetry_equiv_pos_site_id
 _symmetry_equiv_pos_as_xyz
  1  'x, y, z'
loop_
 _atom_site_type_symbol
 _atom_site_label
 _atom_site_symmetry_multiplicity
 _atom_site_fract_x
 _atom_site_fract_y
 _atom_site_fract_z
 _atom_site_occupancy
 _atom_site_hle17_bader_spin_density
 _atom_site_hle17_ddec_charge
 _atom_site_hle17_ddec_spin_density
 _atom_site_hle17_ddec_sum_bond_order
 _atom_site_hle17_magmom
 _atom_site_hse06_10hf_bader_spin_density
 _atom_site_hse06_10hf_ddec_charge
 _atom_site_hse06_10hf_ddec_spin_density
 _atom_site_hse06_10hf_ddec_sum_bond_order
 _atom_site_hse06_10hf_magmom
 _atom_site_hse06_bader_spin_density
 _atom_site_hse06_ddec_charge
 _atom_site_hse06_ddec_spin_density
 _atom_site_hse06_ddec_sum_bond_order
 _atom_site_hse06_magmom
 _atom_site_pbe_bader_spin_density
 _atom_site_pbe_cm5_charge
 _atom_site_pbe_ddec_charge
 _atom_site_pbe_ddec_spin_density
 _atom_site_pbe_ddec_sum_bond_order
 _atom_site_pbe_magmom
Ca  Ca0  1  0.06052765  0.04268851  0.12956779  1  0  1.512068  0  1.154015  0  0  1.374804  0  1.503528  0  0  1.419195  0  1.459099  0  0  0.916994  1.341548  0  1.535021  0
Ca  Ca1  1  0.95731019  0.93947115  0.37043210  1  0  1.512067  0  1.154027  0  0  1.374787  0  1.503574  0  0  1.419179  0  1.459143  0  0  0.916986  1.341532  0  1.535058  0
Ca  Ca2  1  0.93947028  0.95730974  0.87043077  1  0  1.512041  0  1.154055  0  0  1.374802  0  1.503515  0  0  1.419189  0  1.459089  0  0  0.916987  1.341545  0  1.535003  0
Ca  Ca3  1  0.04268734  0.06052835  0.62956644  1  0  1.512028  0  1.15407  0  0  1.374748  0  1.503605  0  0  1.419137  0  1.459179  0  0  0.916999  1.341539  0  1.53503  0
H  H4  1  0.00230947  0.33060353  0.99663922  1  0  0.430646  0  0.87022  0  0  0.397648  0  0.93712  0  0  0.409505  0  0.919773  0  0  0.300028  0.389192  0  0.949475  0
H  H5  1  0.66939525  0.99768863  0.50335980  1  0  0.430659  0  0.870209  0  0  0.397667  0  0.937097  0  0  0.409524  0  0.91975  0  0  0.300032  0.389209  0  0.949456  0
H  H6  1  0.99769085  0.66939473  0.00336003  1  0  0.430645  0  0.870218  0  0  0.397654  0  0.937104  0  0  0.409511  0  0.919758  0  0  0.300029  0.389198  0  0.949458  0
H  H7  1  0.33060507  0.00230963  0.49663945  1  0  0.430613  0  0.870262  0  0  0.397612  0  0.937164  0  0  0.409471  0  0.919814  0  0  0.300008  0.389153  0  0.949516  0
H  H8  1  0.08659849  0.39749289  0.08412075  1  0  0.42912  0  0.878152  0  0  0.396187  0  0.945368  0  0  0.406857  0  0.929871  0  0  0.296099  0.388642  0  0.956295  0
H  H9  1  0.60250704  0.91339913  0.41587878  1  0  0.429123  0  0.878144  0  0  0.396187  0  0.945363  0  0  0.406858  0  0.929865  0  0  0.296107  0.388645  0  0.956285  0
H  H10  1  0.91340303  0.60250538  0.91587921  1  0  0.429107  0  0.878168  0  0  0.396177  0  0.945379  0  0  0.406846  0  0.929883  0  0  0.296094  0.388633  0  0.956305  0
H  H11  1  0.39749248  0.08659786  0.58412052  1  0  0.429114  0  0.87816  0  0  0.396184  0  0.945373  0  0  0.406853  0  0.929876  0  0  0.296105  0.38864  0  0.956298  0
H  H12  1  0.73544725  0.18396490  0.20644376  1  0  0.427127  0  0.880501  0  0  0.393923  0  0.947484  0  0  0.406617  0  0.92918  0  0  0.297675  0.384932  0  0.960399  0
H  H13  1  0.81603299  0.26455278  0.29355626  1  0  0.427198  0  0.880407  0  0  0.393991  0  0.947393  0  0  0.406686  0  0.92909  0  0  0.2977  0.384997  0  0.960315  0
H  H14  1  0.26455148  0.81603460  0.79355550  1  0  0.427187  0  0.880425  0  0  0.393977  0  0.947417  0  0  0.406673  0  0.929113  0  0  0.297699  0.384985  0  0.960335  0
H  H15  1  0.18396574  0.73544673  0.70644374  1  0  0.427172  0  0.880444  0  0  0.393963  0  0.947435  0  0  0.406658  0  0.92913  0  0  0.297689  0.38497  0  0.960353  0
H  H16  1  0.64517241  0.59630883  0.98585520  1  0  0.116074  0  0.960119  0  0  0.11999  0  1.030423  0  0  0.124295  0  1.027483  0  0  0.112382  0.116796  0  1.032765  0
H  H17  1  0.40369416  0.35482482  0.51414627  1  0  0.116077  0  0.960024  0  0  0.119989  0  1.030353  0  0  0.124294  0  1.027413  0  0  0.11238  0.116795  0  1.032698  0
H  H18  1  0.35482674  0.40369320  0.01414621  1  0  0.11607  0  0.960068  0  0  0.119972  0  1.03039  0  0  0.124283  0  1.027444  0  0  0.112376  0.116776  0  1.032736  0
H  H19  1  0.59630974  0.64517345  0.48585438  1  0  0.11608  0  0.96007  0  0  0.119985  0  1.030397  0  0  0.124296  0  1.027449  0  0  0.112386  0.116787  0  1.032739  0
H  H20  1  0.79426453  0.51873727  0.14656342  1  0  0.098715  0  0.944744  0  0  0.110293  0  1.001629  0  0  0.113716  0  0.999135  0  0  0.115408  0.107675  0  1.003724  0
H  H21  1  0.48126495  0.20573682  0.35343753  1  0  0.098777  0  0.944742  0  0  0.110322  0  1.001641  0  0  0.113744  0  0.999146  0  0  0.115436  0.107709  0  1.003724  0
H  H22  1  0.20573581  0.48126477  0.85343796  1  0  0.098793  0  0.944764  0  0  0.110372  0  1.001635  0  0  0.113794  0  0.99914  0  0  0.115439  0.107754  0  1.003724  0
H  H23  1  0.51873657  0.79426144  0.64656317  1  0  0.098782  0  0.94479  0  0  0.110359  0  1.001654  0  0  0.113782  0  0.999158  0  0  0.115446  0.107741  0  1.003741  0
H  H24  1  0.65970871  0.66925763  0.29923011  1  0  0.122318  0  0.95488  0  0  0.12827  0  1.020472  0  0  0.132798  0  1.016955  0  0  0.116049  0.124981  0  1.023099  0
H  H25  1  0.33074611  0.34028625  0.20076905  1  0  0.122308  0  0.954876  0  0  0.128314  0  1.020427  0  0  0.132849  0  1.016903  0  0  0.116049  0.125019  0  1.023064  0
H  H26  1  0.34028765  0.33074564  0.70076912  1  0  0.122314  0  0.954848  0  0  0.128309  0  1.020406  0  0  0.132847  0  1.016885  0  0  0.116052  0.125012  0  1.023047  0
H  H27  1  0.66925422  0.65971201  0.79923167  1  0  0.122278  0  0.954881  0  0  0.128273  0  1.020445  0  0  0.132811  0  1.01692  0  0  0.116039  0.124981  0  1.023083  0
C  C28  1  0.43482899  0.78341022  0.05274289  1  0  0.104663  0  3.74698  0  0  0.110124  0  3.991128  0  0  0.10991  0  4.010116  0  0  0.123773  0.110039  0  3.978371  0
C  C29  1  0.21659307  0.56516569  0.44725963  1  0  0.104676  0  3.747065  0  0  0.110223  0  3.99111  0  0  0.110007  0  4.0101  0  0  0.123776  0.110143  0  3.978341  0
C  C30  1  0.56516816  0.21659055  0.94725859  1  0  0.104511  0  3.747195  0  0  0.110082  0  3.991202  0  0  0.109867  0  4.010193  0  0  0.123721  0.109996  0  3.978442  0
C  C31  1  0.78340964  0.43483258  0.55274031  1  0  0.104702  0  3.747017  0  0  0.110227  0  3.991086  0  0  0.110011  0  4.010078  0  0  0.123754  0.110139  0  3.978329  0
C  C32  1  0.59179299  0.65969582  0.05365982  1  0  -0.085989  0  3.656306  0  0  -0.11204  0  3.907981  0  0  -0.114413  0  3.925725  0  0  -0.060708  -0.110388  0  3.896151  0
C  C33  1  0.34030371  0.40820648  0.44633940  1  0  -0.086026  0  3.656328  0  0  -0.112122  0  3.908016  0  0  -0.114497  0  3.925761  0  0  -0.060692  -0.110476  0  3.896191  0
C  C34  1  0.40820813  0.34030370  0.94634013  1  0  -0.085847  0  3.656392  0  0  -0.111905  0  3.908028  0  0  -0.114283  0  3.925768  0  0  -0.060625  -0.110255  0  3.896199  0
C  C35  1  0.65969780  0.59179178  0.55365982  1  0  -0.086013  0  3.65635  0  0  -0.112084  0  3.908033  0  0  -0.114463  0  3.925774  0  0  -0.060693  -0.110427  0  3.896194  0
C  C36  1  0.67407408  0.61803968  0.14309035  1  0  0.018651  0  3.657707  0  0  0.001258  0  3.909668  0  0  0.002869  0  3.926388  0  0  -0.05381  0.000304  0  3.898344  0
C  C37  1  0.38196734  0.32591571  0.35690804  1  0  0.018725  0  3.657571  0  0  0.001392  0  3.909543  0  0  0.003008  0  3.926258  0  0  -0.053815  0.000432  0  3.898217  0
C  C38  1  0.32591990  0.38196736  0.85690885  1  0  0.018474  0  3.657767  0  0  0.001069  0  3.909771  0  0  0.002683  0  3.926489  0  0  -0.053915  0.000111  0  3.898446  0
C  C39  1  0.61803456  0.67408129  0.64309194  1  0  0.018506  0  3.657742  0  0  0.001121  0  3.909734  0  0  0.002734  0  3.926453  0  0  -0.053928  0.000164  0  3.898405  0
C  C40  1  0.59994580  0.70265107  0.22808234  1  0  -0.086594  0  3.646516  0  0  -0.11217  0  3.895798  0  0  -0.114368  0  3.913671  0  0  -0.061449  -0.110627  0  3.883794  0
C  C41  1  0.29735702  0.40004737  0.27191982  1  0  -0.086599  0  3.64644  0  0  -0.112257  0  3.895747  0  0  -0.11446  0  3.913615  0  0  -0.061435  -0.110713  0  3.883747  0
C  C42  1  0.40005097  0.29735474  0.77191903  1  0  -0.086426  0  3.646395  0  0  -0.112054  0  3.895685  0  0  -0.114258  0  3.913557  0  0  -0.061359  -0.110511  0  3.883684  0
C  C43  1  0.70264569  0.59995090  0.72808012  1  0  -0.086355  0  3.646493  0  0  -0.111983  0  3.895773  0  0  -0.11419  0  3.913651  0  0  -0.06131  -0.110447  0  3.883773  0
C  C44  1  0.44287729  0.82487470  0.22051393  1  0  0.092527  0  3.760519  0  0  0.097642  0  4.008678  0  0  0.096728  0  4.028642  0  0  0.11878  0.097998  0  3.995311  0
C  C45  1  0.17513242  0.55711425  0.27948639  1  0  0.092358  0  3.760328  0  0  0.097512  0  4.008539  0  0  0.096596  0  4.028505  0  0  0.118693  0.097872  0  3.995166  0
C  C46  1  0.55711548  0.17512856  0.77948463  1  0  0.092345  0  3.760407  0  0  0.097483  0  4.008611  0  0  0.096566  0  4.028578  0  0  0.118671  0.097843  0  3.995234  0
C  C47  1  0.82487348  0.44288529  0.72051419  1  0  0.092388  0  3.760422  0  0  0.097513  0  4.008609  0  0  0.096595  0  4.028575  0  0  0.118706  0.097874  0  3.995234  0
C  C48  1  0.33167020  0.83082727  0.96052845  1  0  0.647182  0  3.892377  0  0  0.594631  0  4.190898  0  0  0.628968  0  4.181956  0  0  0.233421  0.571306  0  4.196205  0
C  C49  1  0.16917345  0.66832823  0.53947145  1  0  0.647176  0  3.892438  0  0  0.594609  0  4.190947  0  0  0.628946  0  4.182003  0  0  0.233437  0.571288  0  4.19625  0
C  C50  1  0.66832972  0.16917224  0.03947078  1  0  0.64716  0  3.892525  0  0  0.594565  0  4.19106  0  0  0.628901  0  4.18212  0  0  0.233391  0.571246  0  4.196361  0
C  C51  1  0.83082767  0.33167128  0.46052776  1  0  0.647157  0  3.892446  0  0  0.594575  0  4.190977  0  0  0.628911  0  4.182036  0  0  0.233416  0.571263  0  4.196274  0
C  C52  1  0.34517495  0.91527740  0.30870938  1  0  0.652834  0  3.890252  0  0  0.59362  0  4.198762  0  0  0.627907  0  4.189775  0  0  0.237407  0.570366  0  4.204064  0
C  C53  1  0.08472266  0.65482752  0.19129476  1  0  0.653117  0  3.889925  0  0  0.593813  0  4.198545  0  0  0.628103  0  4.189553  0  0  0.237527  0.570549  0  4.203866  0
C  C54  1  0.65482817  0.08471962  0.69129426  1  0  0.6529  0  3.890218  0  0  0.593644  0  4.198792  0  0  0.627934  0  4.189798  0  0  0.237453  0.570395  0  4.204098  0
C  C55  1  0.91528204  0.34517202  0.80870511  1  0  0.652875  0  3.890243  0  0  0.593666  0  4.198727  0  0  0.627954  0  4.189733  0  0  0.237452  0.57041  0  4.204035  0
N  N56  1  0.36195508  0.86253160  0.13470636  1  0  -0.399358  0  3.236134  0  0  -0.353825  0  3.482932  0  0  -0.366702  0  3.502665  0  0  -0.357873  -0.344585  0  3.469441  0
N  N57  1  0.13747005  0.63804376  0.36529480  1  0  -0.399385  0  3.235966  0  0  -0.35387  0  3.482738  0  0  -0.366746  0  3.50247  0  0  -0.357875  -0.344627  0  3.469232  0
N  N58  1  0.63804285  0.13746664  0.86529368  1  0  -0.399246  0  3.235949  0  0  -0.353746  0  3.482707  0  0  -0.366621  0  3.502438  0  0  -0.357821  -0.344512  0  3.469214  0
N  N59  1  0.86253307  0.36195703  0.63470582  1  0  -0.39935  0  3.235881  0  0  -0.353834  0  3.482662  0  0  -0.366709  0  3.502393  0  0  -0.357851  -0.344604  0  3.469173  0
O  O60  1  0.05683457  0.29857837  0.06180147  1  0  -0.910667  0  1.785563  0  0  -0.852337  0  1.97479  0  0  -0.874634  0  1.94149  0  0  -0.652304  -0.836101  0  1.998011  0
O  O61  1  0.70142269  0.94316406  0.43819868  1  0  -0.91067  0  1.785559  0  0  -0.852344  0  1.974788  0  0  -0.874641  0  1.941485  0  0  -0.652307  -0.836111  0  1.998013  0
O  O62  1  0.94316575  0.70141989  0.93819852  1  0  -0.910659  0  1.785604  0  0  -0.852345  0  1.974832  0  0  -0.874644  0  1.941537  0  0  -0.652298  -0.836113  0  1.998059  0
O  O63  1  0.29857883  0.05683420  0.56180202  1  0  -0.910635  0  1.785612  0  0  -0.852311  0  1.974848  0  0  -0.874606  0  1.941547  0  0  -0.652294  -0.836076  0  1.998079  0
O  O64  1  0.83666353  0.16333681  0.24999954  1  0  -0.954975  0  1.851624  0  0  -0.885005  0  2.048595  0  0  -0.909251  0  2.011453  0  0  -0.652386  -0.867422  0  2.074453  0
O  O65  1  0.16333758  0.83666271  0.74999967  1  0  -0.954971  0  1.85158  0  0  -0.884999  0  2.048555  0  0  -0.909245  0  2.011411  0  0  -0.652385  -0.867421  0  2.074411  0
O  O66  1  0.17616388  0.91643538  0.97390968  1  0  -0.74038  0  2.003455  0  0  -0.672999  0  2.255564  0  0  -0.702391  0  2.24399  0  0  -0.395622  -0.65193  0  2.262767  0
O  O67  1  0.08356491  0.82383399  0.52609126  1  0  -0.740344  0  2.003427  0  0  -0.672984  0  2.25558  0  0  -0.702375  0  2.244004  0  0  -0.395629  -0.651925  0  2.262785  0
O  O68  1  0.82383605  0.08356413  0.02608956  1  0  -0.740344  0  2.003481  0  0  -0.672966  0  2.255621  0  0  -0.702357  0  2.244047  0  0  -0.395594  -0.651903  0  2.262824  0
O  O69  1  0.91643700  0.17616302  0.47390872  1  0  -0.7404  0  2.003474  0  0  -0.672994  0  2.255588  0  0  -0.702385  0  2.244013  0  0  -0.395617  -0.651939  0  2.262794  0
O  O70  1  0.40246615  0.78239278  0.87868172  1  0  -0.59257  0  1.947316  0  0  -0.541935  0  2.162327  0  0  -0.566897  0  2.153388  0  0  -0.292939  -0.524571  0  2.168021  0
O  O71  1  0.21760830  0.59753558  0.62131796  1  0  -0.592582  0  1.947393  0  0  -0.541942  0  2.162409  0  0  -0.566904  0  2.153469  0  0  -0.292953  -0.524581  0  2.168103  0
O  O72  1  0.59753497  0.21760674  0.12131675  1  0  -0.59253  0  1.947414  0  0  -0.541895  0  2.16244  0  0  -0.566859  0  2.153507  0  0  -0.292919  -0.524539  0  2.168134  0
O  O73  1  0.78239162  0.40246393  0.37868201  1  0  -0.592548  0  1.947393  0  0  -0.541908  0  2.162411  0  0  -0.566869  0  2.153475  0  0  -0.292942  -0.524552  0  2.168103  0
O  O74  1  0.19328795  0.00484856  0.29434245  1  0  -0.728546  0  2.013135  0  0  -0.664461  0  2.264617  0  0  -0.693548  0  2.255304  0  0  -0.378897  -0.643561  0  2.270031  0
O  O75  1  0.99515887  0.80670736  0.20566304  1  0  -0.728628  0  2.013241  0  0  -0.664511  0  2.264775  0  0  -0.693594  0  2.255454  0  0  -0.378951  -0.643608  0  2.270193  0
O  O76  1  0.80670405  0.99515722  0.70565977  1  0  -0.728552  0  2.013445  0  0  -0.664444  0  2.264935  0  0  -0.693529  0  2.255629  0  0  -0.378937  -0.643559  0  2.270357  0
O  O77  1  0.00484385  0.19329469  0.79433829  1  0  -0.728549  0  2.013426  0  0  -0.664465  0  2.264903  0  0  -0.693547  0  2.255586  0  0  -0.378942  -0.643571  0  2.270315  0
O  O78  1  0.41559527  0.89381705  0.39161628  1  0  -0.630387  0  2.028283  0  0  -0.566148  0  2.252828  0  0  -0.591819  0  2.241995  0  0  -0.288233  -0.548329  0  2.25988  0
O  O79  1  0.10618296  0.58440100  0.10838347  1  0  -0.630492  0  2.028009  0  0  -0.566251  0  2.252624  0  0  -0.591922  0  2.241787  0  0  -0.288268  -0.548415  0  2.259657  0
O  O80  1  0.58439907  0.10618117  0.60838015  1  0  -0.630417  0  2.028009  0  0  -0.566202  0  2.252613  0  0  -0.591877  0  2.241781  0  0  -0.288244  -0.548369  0  2.25964  0
O  O81  1  0.89381897  0.41559978  0.89161791  1  0  -0.630395  0  2.028063  0  0  -0.566192  0  2.252622  0  0  -0.591863  0  2.241791  0  0  -0.288231  -0.548356  0  2.259648  0
