# generated using pymatgen
data_CuH11C13NO9
_symmetry_space_group_name_H-M   'P 1'
_cell_length_a   10.41583815
_cell_length_b   10.82852932
_cell_length_c   10.87532722
_cell_angle_alpha   87.78118531
_cell_angle_beta   99.56922326
_cell_angle_gamma   106.33756533
_symmetry_Int_Tables_number   1
_chemical_formula_structural   CuH11C13NO9
_chemical_formula_sum   'Cu2 H22 C26 N2 O18'
_cell_volume   1160.65906381
_cell_formula_units_Z   2
loop_
 _symmetry_equiv_pos_site_id
 _symmetry_equiv_pos_as_xyz
  1  'x, y, z'
loop_
 _atom_site_type_symbol
 _atom_site_label
 _atom_site_symmetry_multiplicity
 _atom_site_fract_x
 _atom_site_fract_y
 _atom_site_fract_z
 _atom_site_occupancy
 _atom_site_pbe_cm5_charge
 _atom_site_pbe_ddec_charge
 _atom_site_pbe_ddec_spin_density
 _atom_site_pbe_ddec_sum_bond_order
 _atom_site_pbe_magmom
Cu  Cu0  1  0.36798598  0.46580601  0.48119502  1  0.689304  0.835477  0.694902  2.322712  0.542
Cu  Cu1  1  0.63201395  0.53418747  0.51881310  1  0.689352  0.835469  -0.694907  2.322711  -0.542
H  H2  1  0.26466522  0.74915714  0.16841567  1  0.341625  0.382037  -1.8e-05  0.853942  0.0
H  H3  1  0.73534288  0.25084157  0.83158725  1  0.341607  0.382407  1.9e-05  0.853782  0.0
H  H4  1  0.68555240  0.92026745  0.61857943  1  0.121784  0.137718  -3.3e-05  0.96825  0.0
H  H5  1  0.31445155  0.07973403  0.38141908  1  0.121759  0.137734  3.3e-05  0.968151  0.0
H  H6  1  0.44476286  0.66681702  0.11466257  1  0.111689  0.125291  -3.9e-05  1.015829  0.0
H  H7  1  0.55524355  0.33316733  0.88534126  1  0.111691  0.125298  3.9e-05  1.015588  0.0
H  H8  1  0.62234511  0.13652181  0.11701277  1  0.350066  0.388288  8e-06  0.847517  0.0
H  H9  1  0.37764416  0.86346820  0.88300197  1  0.35008  0.388442  -8e-06  0.847502  0.0
H  H10  1  0.13950750  0.56645363  0.33881944  1  0.115489  0.039083  -5.3e-05  1.024948  0.0
H  H11  1  0.86048856  0.43355901  0.66117575  1  0.115538  0.039198  5.3e-05  1.024984  0.0
H  H12  1  0.96612024  0.59907101  0.22349833  1  0.1053  0.119275  -3e-06  1.009189  0.0
H  H13  1  0.03387453  0.40094815  0.77650020  1  0.105243  0.119198  3e-06  1.009373  0.0
H  H14  1  0.80490716  0.52601925  0.26864468  1  0.105302  0.13947  -0.000119  1.019178  0.0
H  H15  1  0.19508540  0.47399121  0.73135549  1  0.1053  0.13937  0.000119  1.019289  0.0
H  H16  1  0.85756767  0.45409567  0.14715678  1  0.090428  0.096388  -5e-06  1.002218  0.0
H  H17  1  0.14242644  0.54592458  0.85283427  1  0.090391  0.096409  5e-06  1.002131  0.0
H  H18  1  0.83939558  0.23976100  0.29312433  1  0.094895  0.097714  -6e-06  0.996834  0.0
H  H19  1  0.16060900  0.76025037  0.70685847  1  0.094878  0.097792  6e-06  0.996694  0.0
H  H20  1  0.77875523  0.32670524  0.39662076  1  0.104369  0.130892  -1.9e-05  1.014312  0.0
H  H21  1  0.22124319  0.67329727  0.60336396  1  0.104338  0.130991  1.9e-05  1.01416  0.0
H  H22  1  0.92776375  0.27472696  0.44886335  1  0.11405  0.141158  2e-06  0.994435  0.0
H  H23  1  0.07223568  0.72527948  0.55111778  1  0.114076  0.141196  -2e-06  0.994449  0.0
C  C24  1  0.50232526  0.73502916  0.48095120  1  0.217111  0.57922  0.00015  4.174243  0.0
C  C25  1  0.49769015  0.26498693  0.51905443  1  0.217164  0.579075  -0.000151  4.173862  0.0
C  C26  1  0.50322663  0.87326289  0.48373803  1  0.003242  -0.016674  -0.000352  3.907195  0.0
C  C27  1  0.49679132  0.12673623  0.51626557  1  0.003292  -0.016437  0.000351  3.90681  0.0
C  C28  1  0.60563570  0.95655770  0.56571759  1  -0.064472  -0.098581  0.000915  3.909979  0.001
C  C29  1  0.39437196  0.04343535  0.43428260  1  -0.064543  -0.098799  -0.000917  3.909837  -0.001
C  C30  1  0.39749186  0.91748977  0.41669149  1  0.001973  -0.032202  -0.001133  3.927206  -0.001
C  C31  1  0.60252415  0.08250166  0.58331194  1  0.001993  -0.032237  0.001133  3.927452  0.001
C  C32  1  0.28915759  0.83731462  0.32134529  1  0.238228  0.5907  0.000178  4.115941  0.0
C  C33  1  0.71085892  0.16269026  0.67865337  1  0.238191  0.590758  -0.000179  4.115454  0.0
C  C34  1  0.49111585  0.48308794  0.26610218  1  0.217483  0.582642  -0.000439  4.209251  -0.001
C  C35  1  0.50887581  0.51689584  0.73389835  1  0.217452  0.582528  0.000436  4.208955  0.001
C  C36  1  0.49330597  0.48627993  0.12815024  1  0.010588  0.000537  0.000525  3.902045  0.001
C  C37  1  0.50667866  0.51371476  0.87185906  1  0.010732  0.000603  -0.000525  3.901988  -0.001
C  C38  1  0.46707876  0.59273536  0.06380662  1  -0.072439  -0.110803  -0.000934  3.906775  -0.001
C  C39  1  0.53291645  0.40725880  0.93620441  1  -0.07239  -0.110713  0.000935  3.906366  0.001
C  C40  1  0.52680398  0.39238483  0.06374664  1  -0.002267  -0.049625  5.6e-05  3.954652  0.0
C  C41  1  0.47319387  0.60761216  0.93627028  1  -0.002266  -0.049705  -5.6e-05  3.954939  0.0
C  C42  1  0.55062299  0.27648535  0.13021252  1  0.235619  0.56815  -1.1e-05  4.125028  0.0
C  C43  1  0.44935680  0.72349015  0.86979450  1  0.235667  0.56832  1e-05  4.125305  0.0
C  C44  1  0.08718915  0.47277927  0.37601031  1  0.17022  0.304361  -0.00032  4.102446  0.0
C  C45  1  0.91280278  0.52722470  0.62398161  1  0.170268  0.304446  0.00032  4.102365  0.0
C  C46  1  0.89219581  0.50685527  0.23678123  1  -0.135938  -0.278233  -0.000181  3.911139  0.0
C  C47  1  0.10779778  0.49315917  0.76321352  1  -0.135862  -0.278068  0.000181  3.911387  0.0
C  C48  1  0.86996721  0.31122079  0.36952556  1  -0.136023  -0.271089  -1.8e-05  3.885398  0.0
C  C49  1  0.13002899  0.68878449  0.63045875  1  -0.135995  -0.27131  1.8e-05  3.885343  0.0
N  N50  1  0.95490338  0.43197557  0.32941151  1  -0.282554  0.029842  -0.000144  3.71975  0.0
N  N51  1  0.04509469  0.56803342  0.67058040  1  -0.282556  0.029762  0.000144  3.720001  0.0
O  O52  1  0.38545030  0.65346932  0.46399718  1  -0.304881  -0.532597  0.051389  2.408025  0.072
O  O53  1  0.61457429  0.34653292  0.53600744  1  -0.304907  -0.532543  -0.05139  2.40806  -0.072
O  O54  1  0.61691370  0.71196298  0.50023069  1  -0.301125  -0.493739  -0.054882  2.331391  -0.077
O  O55  1  0.38308999  0.28803369  0.49976971  1  -0.301086  -0.49367  0.054872  2.3315  0.077
O  O56  1  0.16746915  0.81556545  0.32021717  1  -0.280847  -0.479558  -1.9e-05  2.082136  0.0
O  O57  1  0.83254616  0.18443466  0.67977954  1  -0.280798  -0.479388  1.9e-05  2.081706  0.0
O  O58  1  0.34194902  0.79780803  0.22817862  1  -0.336646  -0.49418  -4e-06  2.249919  0.0
O  O59  1  0.65805314  0.20219038  0.77182610  1  -0.336659  -0.49492  4e-06  2.249294  0.0
O  O60  1  0.60699280  0.51521652  0.33422940  1  -0.297523  -0.511521  -0.048147  2.385575  -0.067
O  O61  1  0.39299164  0.48476966  0.66577726  1  -0.29753  -0.511433  0.048156  2.385477  0.067
O  O62  1  0.37535656  0.45821293  0.29891151  1  -0.305316  -0.509445  0.051922  2.326109  0.073
O  O63  1  0.62463774  0.54178902  0.70109003  1  -0.305281  -0.509403  -0.051908  2.32604  -0.073
O  O64  1  0.61483134  0.21184039  0.06638624  1  -0.339127  -0.499073  -6e-06  2.235218  0.0
O  O65  1  0.38516622  0.78814360  0.93361616  1  -0.339189  -0.499386  6e-06  2.235537  0.0
O  O66  1  0.51715792  0.23975068  0.23075624  1  -0.26267  -0.454489  6.5e-05  2.151334  0.0
O  O67  1  0.48282643  0.76023914  0.76925769  1  -0.262677  -0.454491  -6.5e-05  2.151545  0.0
O  O68  1  0.14814145  0.41346662  0.45538062  1  -0.31707  -0.456425  -0.000624  2.311041  0.0
O  O69  1  0.85185176  0.58653845  0.54460688  1  -0.317138  -0.456503  0.000623  2.310921  0.0
