# generated using pymatgen
data_LaCuH8C14(NO4)2
_symmetry_space_group_name_H-M   'P 1'
_cell_length_a   9.33265769
_cell_length_b   9.69026411
_cell_length_c   21.65439537
_cell_angle_alpha   89.99999527
_cell_angle_beta   89.99982899
_cell_angle_gamma   114.86976334
_symmetry_Int_Tables_number   1
_chemical_formula_structural   LaCuH8C14(NO4)2
_chemical_formula_sum   'La4 Cu4 H32 C56 N8 O32'
_cell_volume   1776.73102988
_cell_formula_units_Z   4
loop_
 _symmetry_equiv_pos_site_id
 _symmetry_equiv_pos_as_xyz
  1  'x, y, z'
loop_
 _atom_site_type_symbol
 _atom_site_label
 _atom_site_symmetry_multiplicity
 _atom_site_fract_x
 _atom_site_fract_y
 _atom_site_fract_z
 _atom_site_occupancy
 _atom_site_hle17_bader_spin_density
 _atom_site_hle17_ddec_charge
 _atom_site_hle17_ddec_spin_density
 _atom_site_hle17_ddec_sum_bond_order
 _atom_site_hle17_magmom
 _atom_site_hse06_10hf_bader_charge
 _atom_site_hse06_10hf_bader_spin_density
 _atom_site_hse06_10hf_ddec_charge
 _atom_site_hse06_10hf_ddec_spin_density
 _atom_site_hse06_10hf_ddec_sum_bond_order
 _atom_site_hse06_10hf_magmom
 _atom_site_hse06_bader_spin_density
 _atom_site_hse06_ddec_charge
 _atom_site_hse06_ddec_spin_density
 _atom_site_hse06_ddec_sum_bond_order
 _atom_site_hse06_magmom
 _atom_site_pbe_bader_spin_density
 _atom_site_pbe_cm5_charge
 _atom_site_pbe_ddec_charge
 _atom_site_pbe_ddec_spin_density
 _atom_site_pbe_ddec_sum_bond_order
 _atom_site_pbe_magmom
La  La0  1  0.87997084  0.64203083  0.00923865  1  0  2.067578  0  1.853744  0  2.298888  0  1.941859  0  2.389525  0  0  2.042032  0  2.2918  0  0  1.395023  1.86676  0  2.458072  0
La  La1  1  0.62002973  0.35796949  0.50923847  1  0  2.067499  0  1.853761  0  2.298899  0  1.941791  0  2.389548  0  0  2.041973  0  2.291814  0  0  1.394996  1.866702  0  2.458079  0
La  La2  1  0.12002995  0.35796976  0.99076090  1  0  2.067555  0  1.853713  0  2.298874  0  1.941856  0  2.389472  0  0  2.042025  0  2.291754  0  0  1.395028  1.866766  0  2.458012  0
La  La3  1  0.37997362  0.64203452  0.49076200  1  0  2.067535  0  1.853788  0  2.298968  0  1.941832  0  2.389559  0  0  2.042  0  2.291844  0  0  1.394984  1.866733  0  2.458103  0
Cu  Cu4  1  0.54670131  0.69392621  0.14337422  1  0  0.496647  0  1.63965  0  0.665482  0  0.354743  0  2.083544  0  0  0.365316  0  2.035846  0  0  0.53591  0.3531  0  2.112561  0
Cu  Cu5  1  0.95329812  0.30607362  0.64337407  1  0  0.496687  0  1.639682  0  0.665459  0  0.354711  0  2.08349  0  0  0.365349  0  2.035915  0  0  0.535893  0.353096  0  2.112509  0
Cu  Cu6  1  0.45329427  0.30606984  0.85662625  1  0  0.496676  0  1.639784  0  0.665457  0  0.354714  0  2.083607  0  0  0.365319  0  2.035995  0  0  0.535898  0.353079  0  2.112593  0
Cu  Cu7  1  0.04670424  0.69392811  0.35662640  1  0  0.496671  0  1.639663  0  0.665475  0  0.354773  0  2.083552  0  0  0.365335  0  2.035846  0  0  0.535886  0.353117  0  2.112466  0
H  H8  1  0.28442674  0.77384101  0.15831039  1  0  0.065016  0  0.966612  0  0.125157  0  0.074269  0  1.033812  0  0  0.076464  0  1.031382  0  0  0.111829  0.072521  0  1.035794  0
H  H9  1  0.21557659  0.22615993  0.65831009  1  0  0.065029  0  0.966622  0  0.125152  0  0.074286  0  1.03382  0  0  0.076479  0  1.031393  0  0  0.111817  0.072537  0  1.035799  0
H  H10  1  0.71557247  0.22615845  0.84169009  1  0  0.064994  0  0.96663  0  0.125173  0  0.074254  0  1.033837  0  0  0.076448  0  1.031408  0  0  0.111815  0.072505  0  1.035817  0
H  H11  1  0.78442634  0.77384066  0.34168993  1  0  0.065017  0  0.966612  0  0.125175  0  0.074267  0  1.033816  0  0  0.076466  0  1.031388  0  0  0.111837  0.07252  0  1.035789  0
H  H12  1  0.21910611  0.98762840  0.12552124  1  0  0.124354  0  0.938413  0  0.120104  0  0.135048  0  0.992491  0  0  0.139083  0  0.990445  0  0  0.117697  0.132072  0  0.994173  0
H  H13  1  0.28089279  0.01236925  0.62552179  1  0  0.124332  0  0.938462  0  0.120119  0  0.13503  0  0.992534  0  0  0.139064  0  0.990489  0  0  0.117678  0.132056  0  0.994218  0
H  H14  1  0.78089310  0.01237106  0.87447877  1  0  0.124347  0  0.938434  0  0.120137  0  0.135039  0  0.99252  0  0  0.139075  0  0.990472  0  0  0.117692  0.132064  0  0.994203  0
H  H15  1  0.71910964  0.98763020  0.37447915  1  0  0.124369  0  0.938403  0  0.120148  0  0.135066  0  0.992484  0  0  0.139102  0  0.990436  0  0  0.117692  0.132088  0  0.994165  0
H  H16  1  0.42564190  0.20910097  0.06935192  1  0  0.113733  0  0.940006  0  0.140382  0  0.1212  0  1.00461  0  0  0.124422  0  1.001827  0  0  0.116346  0.118574  0  1.007272  0
H  H17  1  0.07435426  0.79089689  0.56935363  1  0  0.113776  0  0.939939  0  0.140251  0  0.121243  0  1.004556  0  0  0.124462  0  1.001772  0  0  0.11636  0.118615  0  1.007217  0
H  H18  1  0.57435417  0.79089621  0.93064763  1  0  0.113767  0  0.939986  0  0.140232  0  0.121234  0  1.004581  0  0  0.124455  0  1.001802  0  0  0.116358  0.118609  0  1.007241  0
H  H19  1  0.92564439  0.20910371  0.43064823  1  0  0.11375  0  0.939973  0  0.140358  0  0.121228  0  1.004559  0  0  0.124446  0  1.00178  0  0  0.116353  0.118598  0  1.007219  0
H  H20  1  0.72397256  0.96888665  0.07365385  1  0  0.097622  0  0.949508  0  0.155678  0  0.105407  0  1.014976  0  0  0.108859  0  1.01112  0  0  0.124444  0.102723  0  1.018022  0
H  H21  1  0.77603374  0.03111797  0.57365117  1  0  0.097556  0  0.949639  0  0.155678  0  0.105434  0  1.015003  0  0  0.108882  0  1.01116  0  0  0.124439  0.102747  0  1.018054  0
H  H22  1  0.27603030  0.03111622  0.92635032  1  0  0.097625  0  0.949607  0  0.155711  0  0.105449  0  1.01502  0  0  0.108902  0  1.01117  0  0  0.124437  0.102761  0  1.018071  0
H  H23  1  0.22397168  0.96888830  0.42634654  1  0  0.097618  0  0.949599  0  0.155682  0  0.105446  0  1.015019  0  0  0.108899  0  1.011167  0  0  0.124429  0.102756  0  1.018066  0
H  H24  1  0.13065341  0.42932318  0.35561131  1  0  0.096832  0  0.945735  0  0.16638  0  0.101256  0  1.014141  0  0  0.10432  0  1.011317  0  0  0.125403  0.0985  0  1.017427  0
H  H25  1  0.36934411  0.57067250  0.85561126  1  0  0.096798  0  0.945749  0  0.166578  0  0.101227  0  1.014168  0  0  0.104294  0  1.01134  0  0  0.125403  0.098476  0  1.017455  0
H  H26  1  0.86934531  0.57067514  0.64438962  1  0  0.096806  0  0.945768  0  0.166424  0  0.101238  0  1.014178  0  0  0.104302  0  1.011351  0  0  0.125407  0.098485  0  1.017465  0
H  H27  1  0.63065104  0.42932014  0.14438875  1  0  0.09682  0  0.945728  0  0.166373  0  0.101257  0  1.014115  0  0  0.104313  0  1.011298  0  0  0.125407  0.098504  0  1.017407  0
H  H28  1  0.15647575  0.26160077  0.27293155  1  0  0.107647  0  0.93342  0  0.120947  0  0.121711  0  0.981392  0  0  0.12428  0  0.98279  0  0  0.113248  0.120093  0  0.980249  0
H  H29  1  0.34352768  0.73839975  0.77293153  1  0  0.107641  0  0.933434  0  0.12092  0  0.121721  0  0.981386  0  0  0.12429  0  0.982783  0  0  0.11324  0.120105  0  0.980245  0
H  H30  1  0.84352561  0.73839869  0.72706892  1  0  0.107656  0  0.933394  0  0.120961  0  0.121719  0  0.981362  0  0  0.124287  0  0.982761  0  0  0.113244  0.120102  0  0.980221  0
H  H31  1  0.65647211  0.26159857  0.22706756  1  0  0.107626  0  0.933393  0  0.120927  0  0.121687  0  0.98137  0  0  0.124257  0  0.982767  0  0  0.113237  0.120069  0  0.980229  0
H  H32  1  0.10662105  0.30928640  0.16169781  1  0  0.124357  0  0.921478  0  0.140771  0  0.133541  0  0.980275  0  0  0.137757  0  0.975613  0  0  0.125519  0.130228  0  0.984118  0
H  H33  1  0.39337961  0.69071339  0.66169727  1  0  0.124362  0  0.921411  0  0.140781  0  0.133549  0  0.980212  0  0  0.137765  0  0.975547  0  0  0.125517  0.130233  0  0.984058  0
H  H34  1  0.89337924  0.69071305  0.83830266  1  0  0.124402  0  0.92138  0  0.140782  0  0.133606  0  0.980155  0  0  0.137822  0  0.975491  0  0  0.125524  0.130289  0  0.984003  0
H  H35  1  0.60662025  0.30928265  0.33830182  1  0  0.124339  0  0.921468  0  0.140747  0  0.133514  0  0.980271  0  0  0.137729  0  0.97561  0  0  0.125486  0.130194  0  0.984116  0
H  H36  1  0.99646566  0.67236111  0.22747510  1  0  0.091254  0  0.935243  0  0.130583  0  0.098051  0  1.001258  0  0  0.102813  0  0.995328  0  0  0.121988  0.094583  0  1.005434  0
H  H37  1  0.50352521  0.32763274  0.72747415  1  0  0.091226  0  0.935296  0  0.130858  0  0.098015  0  1.001306  0  0  0.102767  0  0.995387  0  0  0.121951  0.094546  0  1.005491  0
H  H38  1  0.00352778  0.32763494  0.77252583  1  0  0.091241  0  0.935271  0  0.130874  0  0.098036  0  1.001277  0  0  0.102789  0  0.995358  0  0  0.121974  0.094565  0  1.005462  0
H  H39  1  0.49646830  0.67236104  0.27252540  1  0  0.091288  0  0.935221  0  0.130602  0  0.098074  0  1.001246  0  0  0.102833  0  0.995319  0  0  0.121999  0.094604  0  1.005435  0
C  C40  1  0.36867365  0.86959879  0.13229529  1  0  0.124581  0  3.689951  0  0.392005  0  0.093646  0  3.933074  0  0  0.102202  0  3.949268  0  0  0.044456  0.088069  0  3.922571  0
C  C41  1  0.13132726  0.13040111  0.63229510  1  0  0.124492  0  3.689934  0  0.391981  0  0.093546  0  3.933059  0  0  0.102101  0  3.949261  0  0  0.04441  0.087964  0  3.922548  0
C  C42  1  0.63132714  0.13040181  0.86770565  1  0  0.124602  0  3.689928  0  0.391957  0  0.09363  0  3.933084  0  0  0.102185  0  3.949284  0  0  0.044415  0.088046  0  3.922569  0
C  C43  1  0.86867459  0.86959948  0.36770491  1  0  0.124519  0  3.689967  0  0.391974  0  0.09358  0  3.933085  0  0  0.102127  0  3.949286  0  0  0.044395  0.088006  0  3.922562  0
C  C44  1  0.33427392  0.99022107  0.11489746  1  0  -0.102429  0  3.717557  0  0.045089  0  -0.112739  0  3.964477  0  0  -0.120653  0  3.984948  0  0  -0.075333  -0.107911  0  3.951414  0
C  C45  1  0.16572878  0.00977775  0.61489723  1  0  -0.102349  0  3.71756  0  0.045017  0  -0.112663  0  3.96448  0  0  -0.120575  0  3.984947  0  0  -0.075284  -0.107836  0  3.951411  0
C  C46  1  0.66572637  0.00977838  0.88510256  1  0  -0.102358  0  3.717497  0  0.045071  0  -0.112672  0  3.964428  0  0  -0.120584  0  3.984897  0  0  -0.075291  -0.107844  0  3.951361  0
C  C47  1  0.83427736  0.99022283  0.38510278  1  0  -0.102364  0  3.717539  0  0.045109  0  -0.112685  0  3.964462  0  0  -0.1206  0  3.984937  0  0  -0.075267  -0.107852  0  3.951386  0
C  C48  1  0.44805486  0.11180176  0.08302350  1  0  -0.004547  0  3.666531  0  -0.051902  0  -0.035429  0  3.917304  0  0  -0.028108  0  3.932783  0  0  -0.057373  -0.040479  0  3.90815  0
C  C49  1  0.05194226  0.88819606  0.58302662  1  0  -0.004626  0  3.666456  0  -0.051759  0  -0.035503  0  3.917254  0  0  -0.02818  0  3.93273  0  0  -0.057376  -0.04055  0  3.90809  0
C  C50  1  0.55194122  0.88819543  0.91697559  1  0  -0.004587  0  3.666533  0  -0.051739  0  -0.035447  0  3.917309  0  0  -0.02813  0  3.93279  0  0  -0.057371  -0.040496  0  3.908149  0
C  C51  1  0.94805902  0.11180567  0.41697616  1  0  -0.004587  0  3.666548  0  -0.051926  0  -0.035461  0  3.917335  0  0  -0.028136  0  3.932812  0  0  -0.057407  -0.040507  0  3.908168  0
C  C52  1  0.59136762  0.10627505  0.06784404  1  0  -0.116374  0  3.732696  0  -0.007216  0  -0.09082  0  3.966516  0  0  -0.103729  0  3.98922  0  0  -0.0117  -0.08251  0  3.95164  0
C  C53  1  0.90863081  0.89372620  0.56784624  1  0  -0.116272  0  3.732633  0  -0.007337  0  -0.090765  0  3.966484  0  0  -0.103676  0  3.989188  0  0  -0.011689  -0.082459  0  3.951605  0
C  C54  1  0.40863053  0.89372441  0.93215689  1  0  -0.11639  0  3.732767  0  -0.007216  0  -0.090859  0  3.966639  0  0  -0.10377  0  3.989344  0  0  -0.011707  -0.082553  0  3.95176  0
C  C55  1  0.09136933  0.10627781  0.43215562  1  0  -0.116462  0  3.732762  0  -0.007238  0  -0.090918  0  3.966645  0  0  -0.103831  0  3.989352  0  0  -0.011712  -0.082609  0  3.951764  0
C  C56  1  0.61528273  0.97886033  0.08538687  1  0  0.117518  0  3.636089  0  0.442939  0  0.078916  0  3.874262  0  0  0.087879  0  3.889916  0  0  0.048756  0.07234  0  3.865298  0
C  C57  1  0.88471819  0.02114199  0.58538636  1  0  0.117502  0  3.636294  0  0.442936  0  0.078804  0  3.874487  0  0  0.087781  0  3.890131  0  0  0.048711  0.072229  0  3.865516  0
C  C58  1  0.38471749  0.02114141  0.91461407  1  0  0.117412  0  3.636292  0  0.442903  0  0.078764  0  3.874467  0  0  0.087737  0  3.890105  0  0  0.048674  0.072184  0  3.865494  0
C  C59  1  0.11528459  0.97886316  0.41461319  1  0  0.117452  0  3.636308  0  0.443087  0  0.078798  0  3.874495  0  0  0.087769  0  3.890135  0  0  0.048726  0.072227  0  3.865519  0
C  C60  1  0.71957662  0.23642882  0.03438008  1  0  0.693705  0  3.896228  0  1.635853  0  0.647798  0  4.188992  0  0  0.68509  0  4.180564  0  0  0.227883  0.62249  0  4.193441  0
C  C61  1  0.78042488  0.76356912  0.53438337  1  0  0.693805  0  3.896221  0  1.635973  0  0.648014  0  4.188804  0  0  0.685307  0  4.180369  0  0  0.227917  0.622711  0  4.193265  0
C  C62  1  0.28042053  0.76356837  0.96562039  1  0  0.693846  0  3.896183  0  1.635897  0  0.64793  0  4.188952  0  0  0.685222  0  4.180523  0  0  0.22793  0.622625  0  4.193405  0
C  C63  1  0.21957855  0.23643260  0.46562034  1  0  0.693997  0  3.896  0  1.635847  0  0.648038  0  4.188832  0  0  0.685332  0  4.180398  0  0  0.227952  0.622732  0  4.193288  0
C  C64  1  0.10726428  0.44485850  0.30742019  1  0  0.149338  0  3.630098  0  0.45465  0  0.116255  0  3.876378  0  0  0.125502  0  3.892467  0  0  0.056826  0.110046  0  3.866974  0
C  C65  1  0.39273721  0.55514303  0.80742011  1  0  0.149456  0  3.629937  0  0.454106  0  0.11631  0  3.876264  0  0  0.125551  0  3.89235  0  0  0.056846  0.1101  0  3.866871  0
C  C66  1  0.89273751  0.55514436  0.69257982  1  0  0.149414  0  3.630004  0  0.454034  0  0.116274  0  3.876307  0  0  0.125525  0  3.892398  0  0  0.056826  0.110067  0  3.866914  0
C  C67  1  0.60725993  0.44485415  0.19257990  1  0  0.149308  0  3.630171  0  0.454326  0  0.116213  0  3.876456  0  0  0.125469  0  3.892555  0  0  0.056775  0.109998  0  3.867063  0
C  C68  1  0.12191972  0.35247923  0.26078069  1  0  -0.122826  0  3.734213  0  -0.054912  0  -0.132014  0  3.982175  0  0  -0.142343  0  4.005871  0  0  -0.078465  -0.125447  0  3.966504  0
C  C69  1  0.37808010  0.64752020  0.76078201  1  0  -0.122854  0  3.734179  0  -0.054988  0  -0.13204  0  3.982171  0  0  -0.142366  0  4.005857  0  0  -0.078455  -0.125471  0  3.966505  0
C  C70  1  0.87808106  0.64752136  0.73921840  1  0  -0.12281  0  3.734153  0  -0.054835  0  -0.131995  0  3.982138  0  0  -0.14232  0  4.005822  0  0  -0.078453  -0.125424  0  3.966471  0
C  C71  1  0.62191805  0.35247926  0.23921892  1  0  -0.122728  0  3.734206  0  -0.054607  0  -0.131921  0  3.982167  0  0  -0.14225  0  4.005862  0  0  -0.078416  -0.125352  0  3.966503  0
C  C72  1  0.09375490  0.37796911  0.19942965  1  0  7.9e-05  0  3.655195  0  -0.06857  0  -0.028243  0  3.898593  0  0  -0.02003  0  3.912569  0  0  -0.049092  -0.033845  0  3.889723  0
C  C73  1  0.40624765  0.62202826  0.69942909  1  0  5.6e-05  0  3.655166  0  -0.068376  0  -0.028273  0  3.898586  0  0  -0.020028  0  3.912585  0  0  -0.04907  -0.033877  0  3.889715  0
C  C74  1  0.90624917  0.62202920  0.80057082  1  0  -7.1e-05  0  3.655209  0  -0.068392  0  -0.0284  0  3.898587  0  0  -0.020156  0  3.912586  0  0  -0.049088  -0.033996  0  3.889715  0
C  C75  1  0.59375228  0.37796550  0.30057046  1  0  0.000113  0  3.655207  0  -0.068582  0  -0.028177  0  3.898566  0  0  -0.019964  0  3.912544  0  0  -0.049014  -0.033775  0  3.889694  0
C  C76  1  0.04615957  0.49431618  0.18735869  1  0  -0.114997  0  3.755352  0  0.042981  0  -0.08816  0  3.987494  0  0  -0.10119  0  4.0104  0  0  -0.010357  -0.080001  0  3.972613  0
C  C77  1  0.45384037  0.50568238  0.68735761  1  0  -0.114889  0  3.755204  0  0.042913  0  -0.088029  0  3.987342  0  0  -0.101163  0  4.010375  0  0  -0.010297  -0.079862  0  3.97245  0
C  C78  1  0.95384228  0.50568441  0.81264271  1  0  -0.114934  0  3.755324  0  0.042872  0  -0.088071  0  3.987444  0  0  -0.101204  0  4.010473  0  0  -0.010384  -0.079906  0  3.972556  0
C  C79  1  0.54615685  0.49431253  0.31264102  1  0  -0.115114  0  3.755444  0  0.043257  0  -0.088271  0  3.987578  0  0  -0.101305  0  4.010486  0  0  -0.010401  -0.08011  0  3.972692  0
C  C80  1  0.03345017  0.58166119  0.23647482  1  0  0.097187  0  3.704952  0  0.452795  0  0.057665  0  3.948519  0  0  0.066015  0  3.964876  0  0  0.047056  0.051677  0  3.939014  0
C  C81  1  0.46654522  0.41833265  0.73647558  1  0  0.097154  0  3.704988  0  0.452501  0  0.057646  0  3.948503  0  0  0.066033  0  3.964878  0  0  0.047091  0.051652  0  3.939009  0
C  C82  1  0.96654912  0.41833599  0.76352427  1  0  0.097166  0  3.704916  0  0.452536  0  0.057638  0  3.948439  0  0  0.066029  0  3.964819  0  0  0.04708  0.051648  0  3.938947  0
C  C83  1  0.53344993  0.58165999  0.26352490  1  0  0.097171  0  3.704991  0  0.452754  0  0.057657  0  3.948556  0  0  0.066011  0  3.964914  0  0  0.047059  0.051665  0  3.939067  0
C  C84  1  0.00542209  0.53150252  0.12446433  1  0  0.66865  0  3.928926  0  1.605079  0  0.621733  0  4.219567  0  0  0.657587  0  4.214854  0  0  0.221482  0.597214  0  4.221698  0
C  C85  1  0.49457582  0.46849287  0.62446504  1  0  0.668778  0  3.92882  0  1.60531  0  0.621795  0  4.219548  0  0  0.657678  0  4.214837  0  0  0.221531  0.597281  0  4.221684  0
C  C86  1  0.99458141  0.46849693  0.87553476  1  0  0.668742  0  3.929031  0  1.605093  0  0.621781  0  4.219724  0  0  0.657665  0  4.215014  0  0  0.221554  0.597263  0  4.221857  0
C  C87  1  0.50542718  0.53150545  0.37553543  1  0  0.668942  0  3.928663  0  1.605034  0  0.622014  0  4.21928  0  0  0.657869  0  4.214566  0  0  0.221638  0.597496  0  4.221409  0
C  C88  1  0.49422302  0.52233086  0.03378773  1  0  0.545874  0  3.930959  0  1.631376  0  0.50125  0  4.222126  0  0  0.532049  0  4.216057  0  0  0.210882  0.480294  0  4.225274  0
C  C89  1  0.00577216  0.47767397  0.53378769  1  0  0.545936  0  3.930903  0  1.63109  0  0.501304  0  4.222061  0  0  0.532117  0  4.21598  0  0  0.210877  0.480342  0  4.225208  0
C  C90  1  0.50577570  0.47766746  0.96621228  1  0  0.545969  0  3.930906  0  1.65643  0  0.50132  0  4.222108  0  0  0.532114  0  4.216045  0  0  0.210857  0.480349  0  4.225271  0
C  C91  1  0.99422298  0.52233575  0.46621186  1  0  0.545817  0  3.931013  0  1.656795  0  0.501227  0  4.222126  0  0  0.532004  0  4.21608  0  0  0.210827  0.480272  0  4.22526  0
C  C92  1  0.01137795  0.00766371  0.03579827  1  0  0.539179  0  3.949687  0  1.622708  0  0.497017  0  4.255706  0  0  0.527182  0  4.25022  0  0  0.210126  0.476251  0  4.258369  0
C  C93  1  0.48861614  0.99234112  0.53579620  1  0  0.539191  0  3.949765  0  1.621998  0  0.497054  0  4.255747  0  0  0.527228  0  4.250263  0  0  0.210182  0.476292  0  4.258406  0
C  C94  1  0.98862226  0.99233803  0.96420128  1  0  0.539274  0  3.949596  0  1.657981  0  0.497116  0  4.255613  0  0  0.527282  0  4.250128  0  0  0.210169  0.476348  0  4.258279  0
C  C95  1  0.51137594  0.00766405  0.46419873  1  0  0.539204  0  3.949898  0  1.658387  0  0.497036  0  4.255914  0  0  0.52721  0  4.250425  0  0  0.210104  0.476264  0  4.258581  0
N  N96  1  0.50714581  0.86267656  0.11816828  1  0  -0.306736  0  3.436091  0  -1.255587  0  -0.22405  0  3.743434  0  0  -0.236923  0  3.748635  0  0  -0.376647  -0.216626  0  3.739576  0
N  N97  1  0.99285583  0.13732791  0.61816716  1  0  -0.306718  0  3.436099  0  -1.255522  0  -0.223983  0  3.74338  0  0  -0.236888  0  3.748669  0  0  -0.376599  -0.216557  0  3.739514  0
N  N98  1  0.49285376  0.13732859  0.88183312  1  0  -0.306771  0  3.436149  0  -1.255539  0  -0.22402  0  3.743421  0  0  -0.236917  0  3.748685  0  0  -0.376596  -0.21658  0  3.739527  0
N  N99  1  0.00714902  0.86267951  0.38183193  1  0  -0.306688  0  3.436105  0  -1.255686  0  -0.223968  0  3.743419  0  0  -0.23684  0  3.748619  0  0  -0.376602  -0.216538  0  3.7395  0
N  N100  1  0.06530547  0.56015898  0.29550901  1  0  -0.2957  0  3.425183  0  -1.257219  0  -0.212505  0  3.726604  0  0  -0.225954  0  3.732651  0  0  -0.370354  -0.204574  0  3.722346  0
N  N101  1  0.43469213  0.43983350  0.79550842  1  0  -0.295773  0  3.42525  0  -1.256946  0  -0.212484  0  3.72656  0  0  -0.225941  0  3.732645  0  0  -0.370404  -0.204563  0  3.722354  0
N  N102  1  0.93469546  0.43983706  0.70449193  1  0  -0.295788  0  3.425213  0  -1.256944  0  -0.212486  0  3.726497  0  0  -0.225971  0  3.732631  0  0  -0.370383  -0.20457  0  3.72231  0
N  N103  1  0.56530309  0.56015686  0.20449113  1  0  -0.295728  0  3.425228  0  -1.257185  0  -0.212524  0  3.726635  0  0  -0.225986  0  3.732701  0  0  -0.370374  -0.204593  0  3.722428  0
O  O104  1  0.70895574  0.36291836  0.03531569  1  0  -0.696071  0  2.019984  0  -1.221966  0  -0.647603  0  2.273188  0  0  -0.681159  0  2.26588  0  0  -0.362852  -0.623973  0  2.277367  0
O  O105  1  0.79104831  0.63708299  0.53531805  1  0  -0.696092  0  2.020112  0  -1.222005  0  -0.647682  0  2.273303  0  0  -0.681238  0  2.265992  0  0  -0.362807  -0.624052  0  2.277488  0
O  O106  1  0.29104561  0.63708109  0.96468386  1  0  -0.696086  0  2.020009  0  -1.222002  0  -0.647609  0  2.273218  0  0  -0.681164  0  2.265911  0  0  -0.362836  -0.623979  0  2.277398  0
O  O107  1  0.20895868  0.36292442  0.46468381  1  0  -0.696188  0  2.019888  0  -1.222066  0  -0.647707  0  2.273158  0  0  -0.681265  0  2.26585  0  0  -0.362856  -0.624078  0  2.277338  0
O  O108  1  0.82849485  0.21086060  0.00883046  1  0  -0.698186  0  2.014463  0  -1.229881  0  -0.65222  0  2.269228  0  0  -0.687009  0  2.263483  0  0  -0.372032  -0.627234  0  2.272401  0
O  O109  1  0.67150679  0.78913972  0.50883251  1  0  -0.698268  0  2.014339  0  -1.229795  0  -0.652358  0  2.269113  0  0  -0.68715  0  2.263367  0  0  -0.372075  -0.627368  0  2.27229  0
O  O110  1  0.17150379  0.78914000  0.99116955  1  0  -0.698234  0  2.014428  0  -1.229929  0  -0.65227  0  2.269228  0  0  -0.687063  0  2.263487  0  0  -0.372055  -0.627273  0  2.272377  0
O  O111  1  0.32849029  0.21085975  0.49117120  1  0  -0.698262  0  2.014444  0  -1.229809  0  -0.652256  0  2.269208  0  0  -0.687047  0  2.263462  0  0  -0.372035  -0.627273  0  2.272384  0
O  O112  1  0.93200046  0.61557481  0.12205405  1  0  -0.642079  0  1.978853  0  -1.175126  0  -0.594374  0  2.220997  0  0  -0.625425  0  2.213235  0  0  -0.356898  -0.572293  0  2.22546  0
O  O113  1  0.56799195  0.38441600  0.62205486  1  0  -0.642173  0  1.978716  0  -1.175326  0  -0.594495  0  2.220956  0  0  -0.625542  0  2.213179  0  0  -0.356998  -0.572415  0  2.225423  0
O  O114  1  0.06799883  0.38442237  0.87794411  1  0  -0.64211  0  1.978762  0  -1.175182  0  -0.594453  0  2.221003  0  0  -0.625496  0  2.21322  0  0  -0.356976  -0.572373  0  2.225468  0
O  O115  1  0.43201205  0.61558458  0.37794561  1  0  -0.642209  0  1.97864  0  -1.175271  0  -0.594518  0  2.220826  0  0  -0.62556  0  2.213045  0  0  -0.357036  -0.572448  0  2.22531  0
O  O116  1  0.04564150  0.47941026  0.07668047  1  0  -0.730689  0  2.075074  0  -1.243282  0  -0.678718  0  2.340684  0  0  -0.715673  0  2.332122  0  0  -0.387818  -0.652005  0  2.345666  0
O  O117  1  0.45435988  0.52058984  0.57668123  1  0  -0.730712  0  2.075051  0  -1.243295  0  -0.678728  0  2.34075  0  0  -0.715681  0  2.332177  0  0  -0.387804  -0.651991  0  2.345683  0
O  O118  1  0.95436414  0.52058918  0.92331862  1  0  -0.730684  0  2.075141  0  -1.243195  0  -0.678702  0  2.340804  0  0  -0.715655  0  2.332229  0  0  -0.387796  -0.651987  0  2.345779  0
O  O119  1  0.54564041  0.47940961  0.42331832  1  0  -0.730761  0  2.07505  0  -1.243327  0  -0.678814  0  2.340741  0  0  -0.715772  0  2.332178  0  0  -0.387844  -0.652092  0  2.345701  0
O  O120  1  0.62107067  0.62095484  0.05770612  1  0  -0.623814  0  2.126961  0  -1.209367  0  -0.558017  0  2.398861  0  0  -0.589293  0  2.387332  0  0  -0.358323  -0.535955  0  2.405425  0
O  O121  1  0.87893091  0.37905099  0.55770560  1  0  -0.623762  0  2.127099  0  -1.209541  0  -0.557978  0  2.398984  0  0  -0.589271  0  2.387483  0  0  -0.358291  -0.535933  0  2.405559  0
O  O122  1  0.37892862  0.37904235  0.94229390  1  0  -0.623842  0  2.126969  0  -1.209404  0  -0.558028  0  2.398862  0  0  -0.589312  0  2.38736  0  0  -0.358293  -0.535971  0  2.405433  0
O  O123  1  0.12107158  0.62096326  0.44229349  1  0  -0.623794  0  2.1269  0  -1.209376  0  -0.558  0  2.398768  0  0  -0.589269  0  2.387248  0  0  -0.35829  -0.535946  0  2.405312  0
O  O124  1  0.36316215  0.46114503  0.06097953  1  0  -0.613714  0  2.02443  0  -1.213568  0  -0.570385  0  2.276898  0  0  -0.597981  0  2.266273  0  0  -0.346109  -0.550571  0  2.283237  0
O  O125  1  0.13683865  0.53886082  0.56097978  1  0  -0.613781  0  2.024155  0  -1.213448  0  -0.570441  0  2.276621  0  0  -0.598049  0  2.265999  0  0  -0.34615  -0.550633  0  2.282962  0
O  O126  1  0.63683714  0.53885215  0.93901956  1  0  -0.613772  0  2.024378  0  -1.213492  0  -0.570433  0  2.276857  0  0  -0.598033  0  2.266241  0  0  -0.346106  -0.550616  0  2.283199  0
O  O127  1  0.86316605  0.46115115  0.43901931  1  0  -0.61371  0  2.024544  0  -1.213555  0  -0.57038  0  2.276975  0  0  -0.597969  0  2.266358  0  0  -0.346089  -0.550574  0  2.283304  0
O  O128  1  0.94739414  0.88710635  0.06714417  1  0  -0.615133  0  2.016412  0  -1.213017  0  -0.577133  0  2.265333  0  0  -0.604124  0  2.254161  0  0  -0.362264  -0.557489  0  2.272285  0
O  O129  1  0.55261021  0.11289375  0.56713947  1  0  -0.615115  0  2.01666  0  -1.212988  0  -0.577105  0  2.265538  0  0  -0.604103  0  2.254373  0  0  -0.362288  -0.557465  0  2.272492  0
O  O130  1  0.05260557  0.11289425  0.93285584  1  0  -0.615172  0  2.016434  0  -1.213046  0  -0.577164  0  2.265344  0  0  -0.604156  0  2.254178  0  0  -0.362273  -0.557521  0  2.272297  0
O  O131  1  0.44739286  0.88710229  0.43285270  1  0  -0.615169  0  2.01639  0  -1.213139  0  -0.577169  0  2.265322  0  0  -0.604167  0  2.25415  0  0  -0.362291  -0.557522  0  2.272272  0
O  O132  1  0.09250265  0.13984924  0.05718694  1  0  -0.637851  0  2.002908  0  -1.21836  0  -0.598952  0  2.252421  0  0  -0.629238  0  2.243147  0  0  -0.379238  -0.576618  0  2.257841  0
O  O133  1  0.40748812  0.86015324  0.55718637  1  0  -0.637835  0  2.00282  0  -1.21806  0  -0.598948  0  2.252324  0  0  -0.629238  0  2.243049  0  0  -0.379259  -0.576617  0  2.257748  0
O  O134  1  0.90749763  0.86015022  0.94281353  1  0  -0.637906  0  2.002864  0  -1.218364  0  -0.599008  0  2.252388  0  0  -0.629296  0  2.243114  0  0  -0.379266  -0.576676  0  2.25781  0
O  O135  1  0.59249504  0.13984626  0.44280995  1  0  -0.637835  0  2.003241  0  -1.218392  0  -0.598934  0  2.252749  0  0  -0.629225  0  2.243475  0  0  -0.379187  -0.576604  0  2.258171  0
