# generated using pymatgen
data_ZnH7C10N3O5
_symmetry_space_group_name_H-M   'P 1'
_cell_length_a   7.49506828
_cell_length_b   11.44864345
_cell_length_c   12.88580000
_cell_angle_alpha   90.00000000
_cell_angle_beta   105.59243302
_cell_angle_gamma   90.00000000
_symmetry_Int_Tables_number   1
_chemical_formula_structural   ZnH7C10N3O5
_chemical_formula_sum   'Zn4 H28 C40 N12 O20'
_cell_volume   1065.01718560
_cell_formula_units_Z   4
loop_
 _symmetry_equiv_pos_site_id
 _symmetry_equiv_pos_as_xyz
  1  'x, y, z'
loop_
 _atom_site_type_symbol
 _atom_site_label
 _atom_site_symmetry_multiplicity
 _atom_site_fract_x
 _atom_site_fract_y
 _atom_site_fract_z
 _atom_site_occupancy
 _atom_site_hle17_bader_spin_density
 _atom_site_hle17_ddec_charge
 _atom_site_hle17_ddec_spin_density
 _atom_site_hle17_ddec_sum_bond_order
 _atom_site_hle17_magmom
 _atom_site_hse06_10hf_bader_spin_density
 _atom_site_hse06_10hf_ddec_charge
 _atom_site_hse06_10hf_ddec_spin_density
 _atom_site_hse06_10hf_ddec_sum_bond_order
 _atom_site_hse06_10hf_magmom
 _atom_site_hse06_bader_spin_density
 _atom_site_hse06_ddec_charge
 _atom_site_hse06_ddec_spin_density
 _atom_site_hse06_ddec_sum_bond_order
 _atom_site_hse06_magmom
 _atom_site_pbe_bader_charge
 _atom_site_pbe_bader_spin_density
 _atom_site_pbe_cm5_charge
 _atom_site_pbe_ddec_charge
 _atom_site_pbe_ddec_spin_density
 _atom_site_pbe_ddec_sum_bond_order
 _atom_site_pbe_magmom
Zn  Zn0  1  0.63305320  0.72403862  0.31659509  1  0  1.002503  0  1.832672  0  0  0.815886  0  2.280405  0  0  0.861948  0  2.232384  0  1.300289  0  0.684758  0.783813  0  2.313113  0
Zn  Zn1  1  0.86694500  0.22403877  0.18340374  1  0  1.002521  0  1.832594  0  0  0.815926  0  2.280315  0  0  0.861989  0  2.232295  0  1.300314  0  0.68477  0.783854  0  2.313025  0
Zn  Zn2  1  0.36694745  0.27596108  0.68340493  1  0  1.00247  0  1.832679  0  0  0.815865  0  2.280404  0  0  0.861932  0  2.232386  0  1.300298  0  0.684759  0.783789  0  2.313111  0
Zn  Zn3  1  0.13305149  0.77596180  0.81659486  1  0  1.002558  0  1.832569  0  0  0.815954  0  2.280305  0  0  0.862013  0  2.232284  0  1.300203  0  0.684771  0.783878  0  2.313014  0
H  H4  1  0.21037547  0.93900033  0.46603986  1  0  0.386265  0  0.916779  0  0  0.351795  0  0.999538  0  0  0.364782  0  0.987154  0  0.648438  0  0.293787  0.342763  0  1.008019  0
H  H5  1  0.28962070  0.43900223  0.03395795  1  0  0.386289  0  0.916711  0  0  0.35178  0  0.999549  0  0  0.364767  0  0.987167  0  0.648429  0  0.293774  0.342748  0  1.008029  0
H  H6  1  0.78962241  0.06099937  0.53396051  1  0  0.386302  0  0.9167  0  0  0.351786  0  0.999542  0  0  0.364769  0  0.987163  0  0.648434  0  0.293775  0.342753  0  1.008023  0
H  H7  1  0.71037856  0.56100009  0.96603953  1  0  0.386324  0  0.916677  0  0  0.351807  0  0.999523  0  0  0.364793  0  0.987143  0  0.648451  0  0.293778  0.342774  0  1.008004  0
H  H8  1  0.47376209  0.69449276  0.56199383  1  0  0.120364  0  0.930016  0  0  0.130488  0  0.988403  0  0  0.133629  0  0.987669  0  0.129023  0  0.112138  0.128194  0  0.989126  0
H  H9  1  0.02623824  0.19449291  0.93800773  1  0  0.120364  0  0.929998  0  0  0.1305  0  0.988377  0  0  0.133641  0  0.987642  0  0.129018  0  0.112136  0.128206  0  0.989101  0
H  H10  1  0.52623856  0.30550606  0.43800619  1  0  0.120352  0  0.930035  0  0  0.130488  0  0.988408  0  0  0.133629  0  0.987673  0  0.129004  0  0.112131  0.128194  0  0.989132  0
H  H11  1  0.97376380  0.80550679  0.06199251  1  0  0.120341  0  0.930031  0  0  0.130466  0  0.988419  0  0  0.133607  0  0.987685  0  0.12902  0  0.112126  0.128172  0  0.989143  0
H  H12  1  0.97174558  0.48655634  0.67336581  1  0  0.132471  0  0.973478  0  0  0.138549  0  1.035876  0  0  0.143124  0  1.033063  0  0.175002  0  0.110905  0.13521  0  1.0381  0
H  H13  1  0.52825401  0.98655706  0.82663324  1  0  0.132522  0  0.973433  0  0  0.138552  0  1.035886  0  0  0.143126  0  1.033072  0  0.174987  0  0.110926  0.135216  0  1.038106  0
H  H14  1  0.02825507  0.51344162  0.32663344  1  0  0.132471  0  0.973503  0  0  0.138526  0  1.035925  0  0  0.143099  0  1.033115  0  0.175007  0  0.110904  0.135189  0  1.038147  0
H  H15  1  0.47174525  0.01344351  0.17336735  1  0  0.132551  0  0.973452  0  0  0.138591  0  1.03588  0  0  0.143161  0  1.033077  0  0.175  0  0.110921  0.135254  0  1.038101  0
H  H16  1  0.77623734  0.32735145  0.71192029  1  0  0.081039  0  0.923281  0  0  0.093173  0  0.980202  0  0  0.095126  0  0.97912  0  0.086249  0  0.118401  0.091685  0  0.981111  0
H  H17  1  0.72375948  0.82735304  0.78807754  1  0  0.081019  0  0.923258  0  0  0.093162  0  0.980176  0  0  0.095114  0  0.979096  0  0.086244  0  0.118377  0.091672  0  0.981087  0
H  H18  1  0.22376193  0.67264738  0.28808029  1  0  0.081027  0  0.923301  0  0  0.093168  0  0.980215  0  0  0.095121  0  0.979135  0  0.086297  0  0.118394  0.091679  0  0.981126  0
H  H19  1  0.27623840  0.17264840  0.21192127  1  0  0.080997  0  0.923295  0  0  0.093133  0  0.980219  0  0  0.095086  0  0.979138  0  0.086233  0  0.118387  0.091643  0  0.981129  0
H  H20  1  0.29906630  0.52669209  0.61189485  1  0  0.089602  0  0.919523  0  0  0.099256  0  0.979681  0  0  0.101675  0  0.977457  0  0.084943  0  0.122043  0.097438  0  0.981413  0
H  H21  1  0.20093125  0.02669312  0.88810473  1  0  0.08959  0  0.919552  0  0  0.099261  0  0.979683  0  0  0.101679  0  0.97746  0  0.084965  0  0.122052  0.097443  0  0.981415  0
H  H22  1  0.70093296  0.47330760  0.38810496  1  0  0.089608  0  0.919529  0  0  0.099269  0  0.979675  0  0  0.101687  0  0.977452  0  0.08495  0  0.122054  0.097452  0  0.981406  0
H  H23  1  0.79906801  0.97330658  0.11189353  1  0  0.08961  0  0.919541  0  0  0.099273  0  0.97968  0  0  0.101692  0  0.977457  0  0.084955  0  0.122056  0.097456  0  0.981411  0
H  H24  1  0.56102341  0.93141428  0.39014174  1  0  0.43497  0  0.864766  0  0  0.400605  0  0.93228  0  0  0.412563  0  0.914935  0  0.662705  0  0.291297  0.392174  0  0.944499  0
H  H25  1  0.93897895  0.43141443  0.10985851  1  0  0.434984  0  0.864743  0  0  0.400623  0  0.93225  0  0  0.412582  0  0.914905  0  0.662718  0  0.291306  0.392192  0  0.944468  0
H  H26  1  0.43898001  0.06858542  0.60985949  1  0  0.434983  0  0.864747  0  0  0.400631  0  0.932241  0  0  0.412589  0  0.914896  0  0.662715  0  0.291312  0.392201  0  0.944457  0
H  H27  1  0.06102170  0.56858614  0.89014073  1  0  0.434971  0  0.864769  0  0  0.400612  0  0.932274  0  0  0.412572  0  0.914927  0  0.662711  0  0.291302  0.392181  0  0.944493  0
H  H28  1  0.35898539  0.87739041  0.34917807  1  0  0.417124  0  0.868783  0  0  0.388726  0  0.936718  0  0  0.397872  0  0.923535  0  0.605654  0  0.299216  0.382242  0  0.946085  0
H  H29  1  0.14101493  0.37738969  0.15082194  1  0  0.41711  0  0.868809  0  0  0.388714  0  0.936739  0  0  0.39786  0  0.923556  0  0.605543  0  0.299212  0.38223  0  0.946107  0
H  H30  1  0.64101664  0.12261016  0.65082217  1  0  0.417231  0  0.868619  0  0  0.388782  0  0.936668  0  0  0.397929  0  0.923484  0  0.605529  0  0.299225  0.382293  0  0.946047  0
H  H31  1  0.85898433  0.62261088  0.84917787  1  0  0.417247  0  0.868602  0  0  0.388801  0  0.936643  0  0  0.397948  0  0.923458  0  0.605648  0  0.299235  0.382312  0  0.946022  0
C  C32  1  0.98362079  0.86117626  0.37986630  1  0  0.630147  0  3.86917  0  0  0.578286  0  4.169187  0  0  0.612154  0  4.160335  0  1.527457  0  0.22125  0.555304  0  4.174617  0
C  C33  1  0.51637325  0.36117642  0.12013343  1  0  0.629948  0  3.869165  0  0  0.578178  0  4.169043  0  0  0.612043  0  4.160196  0  1.527472  0  0.2212  0.555198  0  4.174471  0
C  C34  1  0.01637431  0.13882343  0.62013208  1  0  0.630043  0  3.869121  0  0  0.578211  0  4.169074  0  0  0.612077  0  4.160226  0  1.527292  0  0.22119  0.555229  0  4.174503  0
C  C35  1  0.48362324  0.63882328  0.87986750  1  0  0.630054  0  3.869067  0  0  0.578273  0  4.168942  0  0  0.612139  0  4.160094  0  1.527401  0  0.221238  0.555293  0  4.174375  0
C  C36  1  0.96985341  0.80615403  0.47966871  1  0  -0.029426  0  3.828878  0  0  -0.036778  0  4.086565  0  0  -0.040706  0  4.108937  0  0.46572  0  0.063065  -0.034206  0  4.071481  0
C  C37  1  0.53014479  0.30615505  0.02033089  1  0  -0.029374  0  3.828891  0  0  -0.036727  0  4.086528  0  0  -0.040653  0  4.108899  0  0.465711  0  0.063088  -0.034156  0  4.071443  0
C  C38  1  0.03014447  0.19384480  0.52033088  1  0  -0.029421  0  3.828891  0  0  -0.036743  0  4.086504  0  0  -0.040673  0  4.108879  0  0.465796  0  0.063124  -0.034172  0  4.071421  0
C  C39  1  0.46985724  0.69384814  0.97966780  1  0  -0.029509  0  3.829025  0  0  -0.036807  0  4.086595  0  0  -0.040733  0  4.108963  0  0.465726  0  0.063045  -0.034236  0  4.071513  0
C  C40  1  0.85026595  0.69476528  0.57893665  1  0  0.339195  0  3.708777  0  0  0.314534  0  3.971335  0  0  0.327286  0  3.986167  0  0.979219  0  0.215738  0.306049  0  3.961019  0
C  C41  1  0.64973363  0.19476980  0.92106239  1  0  0.339144  0  3.708753  0  0  0.314481  0  3.971322  0  0  0.327234  0  3.986155  0  0.979233  0  0.215731  0.305983  0  3.961022  0
C  C42  1  0.14973469  0.30523180  0.42106259  1  0  0.33921  0  3.708816  0  0  0.314494  0  3.971439  0  0  0.327275  0  3.986231  0  0.979145  0  0.215745  0.305999  0  3.961134  0
C  C43  1  0.35026840  0.80523252  0.07893940  1  0  0.339187  0  3.708828  0  0  0.314444  0  3.971502  0  0  0.327172  0  3.986373  0  0.979458  0  0.215748  0.305967  0  3.961174  0
C  C44  1  0.73687860  0.60335096  0.61069624  1  0  0.050684  0  3.772725  0  0  0.064764  0  4.009286  0  0  0.067465  0  4.030043  0  -0.02148  0  0.015706  0.063058  0  3.995222  0
C  C45  1  0.76312099  0.10335198  0.88930435  1  0  0.050645  0  3.772741  0  0  0.064752  0  4.009261  0  0  0.067453  0  4.030017  0  -0.021071  0  0.015737  0.063051  0  3.995201  0
C  C46  1  0.26312344  0.39664612  0.38930322  1  0  0.050622  0  3.772739  0  0  0.064739  0  4.009289  0  0  0.06743  0  4.03004  0  -0.02172  0  0.015736  0.063037  0  3.995227  0
C  C47  1  0.23687966  0.89664946  0.11069800  1  0  0.050671  0  3.772726  0  0  0.064779  0  4.009291  0  0  0.067488  0  4.03005  0  -0.021078  0  0.015695  0.063071  0  3.995226  0
C  C48  1  0.54558687  0.61444223  0.59488194  1  0  -0.134232  0  3.67845  0  0  -0.157865  0  3.932994  0  0  -0.164321  0  3.95235  0  0.00818  0  -0.076493  -0.153757  0  3.920155  0
C  C49  1  0.95441410  0.11444151  0.90511887  1  0  -0.134242  0  3.678456  0  0  -0.157907  0  3.933007  0  0  -0.164364  0  3.952364  0  0.008231  0  -0.076512  -0.153798  0  3.920163  0
C  C50  1  0.45441516  0.38555747  0.40511830  1  0  -0.134233  0  3.678497  0  0  -0.157895  0  3.93303  0  0  -0.164351  0  3.95239  0  0.008374  0  -0.076506  -0.153786  0  3.920188  0
C  C51  1  0.04558655  0.88555732  0.09488037  1  0  -0.134146  0  3.678324  0  0  -0.157789  0  3.932865  0  0  -0.164245  0  3.95222  0  0.008218  0  -0.076454  -0.15368  0  3.920021  0
C  C52  1  0.82248877  0.49929409  0.65592602  1  0  -0.155192  0  3.69876  0  0  -0.177306  0  3.949886  0  0  -0.184011  0  3.968523  0  -0.020913  0  -0.083976  -0.17303  0  3.937582  0
C  C53  1  0.67750804  0.99929569  0.84407337  1  0  -0.155206  0  3.698689  0  0  -0.177297  0  3.949836  0  0  -0.184  0  3.968475  0  -0.021301  0  -0.084042  -0.173023  0  3.937533  0
C  C54  1  0.17751049  0.50070386  0.34407301  1  0  -0.155133  0  3.698686  0  0  -0.177251  0  3.949828  0  0  -0.183954  0  3.968466  0  -0.020812  0  -0.083986  -0.172977  0  3.937523  0
C  C55  1  0.32248983  0.00070576  0.15592778  1  0  -0.155333  0  3.698855  0  0  -0.177428  0  3.95001  0  0  -0.184134  0  3.968643  0  -0.021303  0  -0.084012  -0.173155  0  3.937709  0
C  C56  1  0.07489851  0.81658059  0.58680423  1  0  -0.003133  0  3.798301  0  0  -0.012952  0  4.061062  0  0  -0.014505  0  4.081597  0  0.402489  0  0.070775  -0.011947  0  4.047197  0
C  C57  1  0.42510042  0.31658074  0.91319634  1  0  -0.003191  0  3.798301  0  0  -0.013014  0  4.061062  0  0  -0.014567  0  4.081596  0  0.402491  0  0.07076  -0.012009  0  4.047194  0
C  C58  1  0.92510075  0.18341911  0.41319558  1  0  -0.003217  0  3.798382  0  0  -0.013047  0  4.061106  0  0  -0.0146  0  4.081645  0  0.402488  0  0.070736  -0.012042  0  4.047239  0
C  C59  1  0.57490299  0.68342071  0.08680412  1  0  -0.00313  0  3.798173  0  0  -0.013011  0  4.060969  0  0  -0.014561  0  4.081498  0  0.4025  0  0.070735  -0.012007  0  4.047103  0
C  C60  1  0.23337375  0.89203145  0.63803871  1  0  0.644181  0  3.899105  0  0  0.585141  0  4.207108  0  0  0.61971  0  4.19783  0  1.537118  0  0.215784  0.561746  0  4.21269  0
C  C61  1  0.26662658  0.39203335  0.86195975  1  0  0.644136  0  3.899108  0  0  0.585076  0  4.207142  0  0  0.619646  0  4.197864  0  1.537133  0  0.215753  0.561681  0  4.212723  0
C  C62  1  0.76662551  0.10796650  0.36196110  1  0  0.644207  0  3.899102  0  0  0.585201  0  4.207048  0  0  0.619766  0  4.19777  0  1.537173  0  0.215802  0.561806  0  4.212629  0
C  C63  1  0.73337545  0.60796897  0.13803894  1  0  0.64422  0  3.899031  0  0  0.585202  0  4.206999  0  0  0.619771  0  4.197718  0  1.537116  0  0.215826  0.561807  0  4.212579  0
C  C64  1  0.71357973  0.40992630  0.67846865  1  0  0.139471  0  3.696035  0  0  0.106911  0  3.952396  0  0  0.114143  0  3.96964  0  0.449145  0  0.046674  0.102171  0  3.940766  0
C  C65  1  0.78642124  0.90992702  0.82153372  1  0  0.139501  0  3.696057  0  0  0.106934  0  3.952425  0  0  0.11416  0  3.969666  0  0.449323  0  0.046729  0.102198  0  3.940799  0
C  C66  1  0.28642230  0.59007340  0.32153547  1  0  0.139474  0  3.696103  0  0  0.106908  0  3.95247  0  0  0.114135  0  3.969709  0  0.449157  0  0.046706  0.102172  0  3.940842  0
C  C67  1  0.21357802  0.09007443  0.17846687  1  0  0.139584  0  3.696095  0  0  0.107026  0  3.952444  0  0  0.114253  0  3.969683  0  0.449289  0  0.046723  0.102289  0  3.940817  0
C  C68  1  0.44749061  0.52089403  0.62142615  1  0  0.157772  0  3.687636  0  0  0.120071  0  3.953522  0  0  0.128779  0  3.968854  0  0.503702  0  0.054834  0.114329  0  3.943182  0
C  C69  1  0.05250833  0.02089418  0.87857520  1  0  0.157855  0  3.687657  0  0  0.12016  0  3.953525  0  0  0.128862  0  3.968855  0  0.503615  0  0.05487  0.114424  0  3.943184  0
C  C70  1  0.55250865  0.47910480  0.37857366  1  0  0.157814  0  3.687624  0  0  0.12012  0  3.95349  0  0  0.128823  0  3.968819  0  0.503696  0  0.054845  0.114383  0  3.94315  0
C  C71  1  0.94749093  0.97910465  0.12142616  1  0  0.157752  0  3.687552  0  0  0.120056  0  3.953425  0  0  0.128759  0  3.968755  0  0.503639  0  0.054815  0.11432  0  3.943085  0
N  N72  1  0.82740203  0.72975196  0.47567864  1  0  -0.417976  0  3.13886  0  0  -0.355373  0  3.409017  0  0  -0.373738  0  3.424235  0  -1.200161  0  -0.334926  -0.342707  0  3.398396  0
N  N73  1  0.67259339  0.22975211  0.02432053  1  0  -0.417989  0  3.138824  0  0  -0.3554  0  3.408984  0  0  -0.373766  0  3.424202  0  -1.200124  0  -0.334949  -0.342729  0  3.398369  0
N  N74  1  0.17259723  0.27024599  0.52431961  1  0  -0.417943  0  3.138813  0  0  -0.355336  0  3.408969  0  0  -0.37371  0  3.424181  0  -1.200104  0  -0.334941  -0.342666  0  3.398352  0
N  N75  1  0.32740725  0.77025021  0.97568183  1  0  -0.41797  0  3.138893  0  0  -0.355361  0  3.409038  0  0  -0.37372  0  3.424265  0  -1.200304  0  -0.33493  -0.342698  0  3.398415  0
N  N76  1  0.99856836  0.74567000  0.64864694  1  0  -0.426759  0  3.157264  0  0  -0.365818  0  3.432283  0  0  -0.384395  0  3.446497  0  -1.1961  0  -0.336613  -0.353036  0  3.42234  0
N  N77  1  0.50142845  0.24567103  0.85135244  1  0  -0.426638  0  3.15718  0  0  -0.365687  0  3.432189  0  0  -0.384265  0  3.446406  0  -1.196172  0  -0.336582  -0.352899  0  3.422248  0
N  N78  1  0.00143090  0.25432795  0.35135209  1  0  -0.426707  0  3.157239  0  0  -0.365756  0  3.432269  0  0  -0.384342  0  3.446477  0  -1.196043  0  -0.336615  -0.352969  0  3.422328  0
N  N79  1  0.49857358  0.75433129  0.14864780  1  0  -0.42665  0  3.157153  0  0  -0.365657  0  3.432172  0  0  -0.384226  0  3.446394  0  -1.196192  0  -0.336566  -0.352876  0  3.422224  0
N  N80  1  0.52861416  0.41919115  0.65986870  1  0  -0.335556  0  3.307035  0  0  -0.258813  0  3.585427  0  0  -0.277412  0  3.60156  0  -1.250068  0  -0.325194  -0.246288  0  3.574357  0
N  N81  1  0.97138543  0.91919275  0.84013034  1  0  -0.335653  0  3.307159  0  0  -0.258914  0  3.585559  0  0  -0.277493  0  3.601667  0  -1.250086  0  -0.325233  -0.246399  0  3.5745  0
N  N82  1  0.47138649  0.58080680  0.34013055  1  0  -0.335635  0  3.307144  0  0  -0.258895  0  3.585541  0  0  -0.277477  0  3.601651  0  -1.250114  0  -0.32524  -0.246381  0  3.574482  0
N  N83  1  0.02861383  0.08080695  0.15986869  1  0  -0.335626  0  3.30713  0  0  -0.258888  0  3.585523  0  0  -0.277469  0  3.601632  0  -1.250166  0  -0.325229  -0.246374  0  3.574466  0
O  O84  1  0.13014121  0.92766100  0.38334406  1  0  -0.559385  0  2.107772  0  0  -0.501812  0  2.327553  0  0  -0.525018  0  2.315837  0  -1.185462  0  -0.324537  -0.485706  0  2.335248  0
O  O85  1  0.36985635  0.42766202  0.11665629  1  0  -0.55929  0  2.107692  0  0  -0.501744  0  2.327482  0  0  -0.524951  0  2.315771  0  -1.185325  0  -0.324469  -0.485637  0  2.335174  0
O  O86  1  0.86985528  0.07233957  0.61665609  1  0  -0.559366  0  2.107765  0  0  -0.501749  0  2.327563  0  0  -0.524958  0  2.315853  0  -1.185472  0  -0.324463  -0.485637  0  2.335258  0
O  O87  1  0.63014292  0.57233855  0.88334352  1  0  -0.559385  0  2.10767  0  0  -0.501794  0  2.327465  0  0  -0.525003  0  2.315753  0  -1.185469  0  -0.324491  -0.485687  0  2.335159  0
O  O88  1  0.86074213  0.84496474  0.29453099  1  0  -0.54324  0  2.035905  0  0  -0.487992  0  2.280387  0  0  -0.511535  0  2.27205  0  -1.138703  0  -0.274403  -0.471631  0  2.285509  0
O  O89  1  0.63925053  0.34496576  0.20546852  1  0  -0.543159  0  2.035788  0  0  -0.487944  0  2.280216  0  0  -0.511485  0  2.271882  0  -1.13887  0  -0.274426  -0.471583  0  2.28533  0
O  O90  1  0.13925575  0.15503496  0.70546937  1  0  -0.543181  0  2.035739  0  0  -0.487965  0  2.280214  0  0  -0.511507  0  2.271878  0  -1.13864  0  -0.274419  -0.471604  0  2.285336  0
O  O91  1  0.36074181  0.65503481  0.79453020  1  0  -0.543218  0  2.03577  0  0  -0.488026  0  2.280228  0  0  -0.51157  0  2.271894  0  -1.13867  0  -0.274436  -0.471644  0  2.285295  0
O  O92  1  0.28932289  0.89395744  0.73941202  1  0  -0.580778  0  2.041474  0  0  -0.51679  0  2.29061  0  0  -0.541911  0  2.279569  0  -1.121058  0  -0.291474  -0.499324  0  2.297631  0
O  O93  1  0.21067744  0.39395934  0.76058722  1  0  -0.580699  0  2.041403  0  0  -0.516722  0  2.290563  0  0  -0.541849  0  2.279528  0  -1.121098  0  -0.291441  -0.499254  0  2.297581  0
O  O94  1  0.71067499  0.10603964  0.26058835  1  0  -0.58075  0  2.041438  0  0  -0.516813  0  2.290614  0  0  -0.541937  0  2.279577  0  -1.121108  0  -0.291471  -0.499344  0  2.297632  0
O  O95  1  0.78932321  0.60604036  0.23941203  1  0  -0.580769  0  2.041473  0  0  -0.516782  0  2.290608  0  0  -0.541908  0  2.279571  0  -1.121068  0  -0.291471  -0.499314  0  2.297626  0
O  O96  1  0.30502399  0.95337321  0.57501879  1  0  -0.612108  0  2.042844  0  0  -0.544934  0  2.259832  0  0  -0.570939  0  2.24853  0  -1.180499  0  -0.306841  -0.526908  0  2.267155  0
O  O97  1  0.19497771  0.45337599  0.92497989  1  0  -0.612119  0  2.042868  0  0  -0.5449  0  2.25986  0  0  -0.570904  0  2.248557  0  -1.180504  0  -0.306829  -0.526875  0  2.267185  0
O  O98  1  0.69497665  0.04662386  0.42498123  1  0  -0.612164  0  2.042848  0  0  -0.544958  0  2.259825  0  0  -0.570954  0  2.248519  0  -1.18054  0  -0.306851  -0.526933  0  2.267149  0
O  O99  1  0.80502847  0.54662895  0.07501790  1  0  -0.612196  0  2.042834  0  0  -0.545002  0  2.259832  0  0  -0.571005  0  2.24853  0  -1.180533  0  -0.306874  -0.526976  0  2.267155  0
O  O100  1  0.48949506  0.85608221  0.37740040  1  0  -0.828008  0  1.923698  0  0  -0.771756  0  2.144488  0  0  -0.791775  0  2.11011  0  -1.250895  0  -0.581927  -0.757646  0  2.16826  0
O  O101  1  0.01050527  0.35608236  0.12260039  1  0  -0.828009  0  1.923701  0  0  -0.771759  0  2.14448  0  0  -0.791776  0  2.110099  0  -1.250785  0  -0.581925  -0.75765  0  2.168252  0
O  O102  1  0.51050698  0.14391749  0.62260062  1  0  -0.82812  0  1.923526  0  0  -0.771861  0  2.144339  0  0  -0.791869  0  2.10994  0  -1.25078  0  -0.581941  -0.757748  0  2.168112  0
O  O103  1  0.98949399  0.64391734  0.87739942  1  0  -0.828133  0  1.923519  0  0  -0.771871  0  2.144325  0  0  -0.791882  0  2.109929  0  -1.25089  0  -0.581948  -0.75776  0  2.168098  0
