# generated using pymatgen
data_NdH20C22NO8
_symmetry_space_group_name_H-M   'P 1'
_cell_length_a   12.67877364
_cell_length_b   14.01887716
_cell_length_c   16.10204083
_cell_angle_alpha   115.78219716
_cell_angle_beta   103.40696174
_cell_angle_gamma   90.02274910
_symmetry_Int_Tables_number   1
_chemical_formula_structural   NdH20C22NO8
_chemical_formula_sum   'Nd4 H80 C88 N4 O32'
_cell_volume   2490.07386376
_cell_formula_units_Z   4
loop_
 _symmetry_equiv_pos_site_id
 _symmetry_equiv_pos_as_xyz
  1  'x, y, z'
loop_
 _atom_site_type_symbol
 _atom_site_label
 _atom_site_symmetry_multiplicity
 _atom_site_fract_x
 _atom_site_fract_y
 _atom_site_fract_z
 _atom_site_occupancy
 _atom_site_pbe_bader_charge
 _atom_site_pbe_bader_spin_density
 _atom_site_pbe_cm5_charge
 _atom_site_pbe_ddec_charge
 _atom_site_pbe_ddec_spin_density
 _atom_site_pbe_ddec_sum_bond_order
 _atom_site_pbe_magmom
Nd  Nd0  1  0.43508045  0.89242708  0.35936035  1  2.263288  0  1.511823  2.120138  0  2.159228  0
Nd  Nd1  1  0.06492433  0.53298901  0.64073742  1  2.264199  0  1.512356  2.119924  0  2.161391  0
Nd  Nd2  1  0.56492351  0.10756833  0.64063696  1  2.26338  0  1.511779  2.120024  0  2.159337  0
Nd  Nd3  1  0.93507234  0.46700639  0.35925983  1  2.264155  0  1.512388  2.119845  0  2.161606  0
H  H4  1  0.54659283  0.98318549  0.11734471  1  0.107791  0  0.106082  0.110875  0  1.017168  0
H  H5  1  0.95329945  0.86503858  0.88243012  1  0.086693  0  0.105892  0.110486  0  1.017248  0
H  H6  1  0.45340785  0.01681676  0.88265848  1  0.107821  0  0.106083  0.110889  0  1.017201  0
H  H7  1  0.04670832  0.13495774  0.11757282  1  0.086681  0  0.105865  0.110439  0  1.017235  0
H  H8  1  0.61148171  0.93795213  0.96937340  1  0.083371  0  0.104584  0.102504  0  1.023116  0
H  H9  1  0.88856239  0.96795031  0.03042321  1  0.07765  0  0.104475  0.102206  0  1.022898  0
H  H10  1  0.38852331  0.06205004  0.03063211  1  0.083345  0  0.104584  0.102491  0  1.023128  0
H  H11  1  0.11143823  0.03205188  0.96957284  1  0.077607  0  0.104445  0.102253  0  1.022929  0
H  H12  1  0.61030495  0.61063077  0.92063825  1  0.087354  0  0.104012  0.10295  0  1.000257  0
H  H13  1  0.88922482  0.68946844  0.07938029  1  0.059123  0  0.103991  0.103034  0  1.000825  0
H  H14  1  0.38968423  0.38936991  0.07935547  1  0.08725  0  0.10408  0.102992  0  1.000241  0
H  H15  1  0.11076105  0.31053529  0.92061561  1  0.059385  0  0.103973  0.102969  0  1.000745  0
H  H16  1  0.54404491  0.65687299  0.06734105  1  0.07249  0  0.105093  0.108673  0  1.012888  0
H  H17  1  0.95523798  0.58885179  0.93259114  1  0.080239  0  0.104868  0.108384  0  1.012281  0
H  H18  1  0.45594137  0.34312273  0.93265093  1  0.073256  0  0.105099  0.108698  0  1.012828  0
H  H19  1  0.04475466  0.41114605  0.06740847  1  0.080344  0  0.104823  0.108284  0  1.012281  0
H  H20  1  0.64801593  0.65369802  0.80472771  1  0.068216  0  0.106389  0.058766  0  1.010689  0
H  H21  1  0.85165865  0.84868459  0.19526050  1  0.049782  0  0.106455  0.059289  0  1.010732  0
H  H22  1  0.35197461  0.34629936  0.19526751  1  0.068216  0  0.106408  0.058809  0  1.010679  0
H  H23  1  0.14833088  0.15131857  0.80473171  1  0.04979  0  0.106409  0.059254  0  1.010627  0
H  H24  1  0.55999754  0.88009498  0.69118234  1  0.1545  0  0.119042  0.13764  0  1.01269  0
H  H25  1  0.94028051  0.18883129  0.30854175  1  0.135295  0  0.118927  0.137743  0  1.011953  0
H  H26  1  0.44000160  0.11990158  0.30880976  1  0.154473  0  0.119027  0.137621  0  1.012646  0
H  H27  1  0.05971456  0.81117323  0.69145732  1  0.135325  0  0.119012  0.13789  0  1.012  0
H  H28  1  0.77506587  0.65227167  0.72275718  1  0.100589  0  0.107648  0.11299  0  1.035753  0
H  H29  1  0.72516609  0.92944686  0.27722248  1  0.092182  0  0.107483  0.112682  0  1.034931  0
H  H30  1  0.22493597  0.34772695  0.27724562  1  0.10057  0  0.10766  0.113004  0  1.035772  0
H  H31  1  0.27483104  0.07055245  0.72277544  1  0.092199  0  0.107493  0.112675  0  1.03499  0
H  H32  1  0.67644995  0.66151470  0.45351454  1  0.093949  0  0.112063  0.118484  0  1.019156  0
H  H33  1  0.82406060  0.20777782  0.54638562  1  0.08268  0  0.111764  0.117951  0  1.019187  0
H  H34  1  0.32355755  0.33848239  0.54648679  1  0.094007  0  0.11204  0.118418  0  1.01911  0
H  H35  1  0.17593923  0.79221988  0.45361311  1  0.082682  0  0.111753  0.117929  0  1.019193  0
H  H36  1  0.11995566  0.05673671  0.33047928  1  0.066152  0  0.107479  0.16841  0  0.964225  0
H  H37  1  0.37991779  0.72618186  0.66947702  1  0.081844  0  0.107693  0.168367  0  0.964381  0
H  H38  1  0.88005337  0.94326670  0.66953376  1  0.065871  0  0.107495  0.168381  0  0.964246  0
H  H39  1  0.62008107  0.27381353  0.33052496  1  0.081665  0  0.10772  0.168491  0  0.964476  0
H  H40  1  0.04748526  0.02548052  0.20983123  1  0.082751  0  0.097262  0.147484  0  1.04516  0
H  H41  1  0.45252934  0.81555439  0.79005676  1  0.091072  0  0.097308  0.146925  0  1.044955  0
H  H42  1  0.95251729  0.97452176  0.79018066  1  0.08279  0  0.097243  0.147374  0  1.045135  0
H  H43  1  0.54746724  0.18445203  0.20994970  1  0.091024  0  0.097325  0.14698  0  1.04496  0
H  H44  1  0.15507373  0.12988783  0.27169385  1  0.082947  0  0.105312  0.161975  0  1.015439  0
H  H45  1  0.34497498  0.85815635  0.72820914  1  0.106988  0  0.105203  0.161378  0  1.015322  0
H  H46  1  0.84492385  0.87011843  0.72831403  1  0.083291  0  0.105299  0.161915  0  1.015333  0
H  H47  1  0.65501603  0.14183995  0.27178896  1  0.107055  0  0.105157  0.161334  0  1.015284  0
H  H48  1  0.26930709  0.87816138  0.10571715  1  0.072603  0  0.106454  0.16257  0  0.984039  0
H  H49  1  0.23039562  0.77267696  0.89428786  1  0.058409  0  0.106418  0.162281  0  0.984987  0
H  H50  1  0.73070580  0.12185732  0.89430143  1  0.072399  0  0.106373  0.162465  0  0.984165  0
H  H51  1  0.76960075  0.22732850  0.10571609  1  0.058622  0  0.106431  0.162272  0  0.98505  0
H  H52  1  0.25715166  0.01295345  0.12553367  1  0.111987  0  0.104804  0.159846  0  1.019924  0
H  H53  1  0.24289901  0.88753380  0.87433925  1  0.107043  0  0.10492  0.159858  0  1.01978  0
H  H54  1  0.74285903  0.98706027  0.87448238  1  0.111232  0  0.104712  0.15973  0  1.019934  0
H  H55  1  0.75710786  0.11247276  0.12567214  1  0.107061  0  0.104874  0.159792  0  1.019588  0
H  H56  1  0.13728692  0.92056923  0.07594370  1  0.06439  0  0.094815  0.145617  0  1.020958  0
H  H57  1  0.36256003  0.84471703  0.92409347  1  0.063631  0  0.09468  0.145399  0  1.020618  0
H  H58  1  0.86272704  0.07944263  0.92406426  1  0.064419  0  0.094844  0.145667  0  1.020754  0
H  H59  1  0.63744463  0.15528203  0.07591293  1  0.063903  0  0.094639  0.145353  0  1.020939  0
H  H60  1  0.35335393  0.58345015  0.32013097  1  0.103568  0  0.106002  0.164026  0  0.988771  0
H  H61  1  0.14625795  0.26390793  0.67937936  1  0.103188  0  0.105928  0.163615  0  0.98973  0
H  H62  1  0.64665485  0.41655224  0.67987242  1  0.103211  0  0.106006  0.163993  0  0.988635  0
H  H63  1  0.85375071  0.73609047  0.32063272  1  0.103073  0  0.105946  0.163651  0  0.989759  0
H  H64  1  0.24375343  0.49627347  0.22073009  1  0.026888  0  0.099432  0.142326  0  1.013695  0
H  H65  1  0.25538426  0.27545965  0.77881521  1  0.02542  0  0.099339  0.142231  0  1.013132  0
H  H66  1  0.75626174  0.50372365  0.77927447  1  0.02691  0  0.099386  0.142302  0  1.013553  0
H  H67  1  0.74462840  0.72454932  0.22119936  1  0.025097  0  0.099314  0.142171  0  1.013065  0
H  H68  1  0.21988681  0.55823694  0.33428789  1  0.109429  0  0.113885  0.183471  0  0.99132  0
H  H69  1  0.27968519  0.22431252  0.66545078  1  0.128758  0  0.113621  0.182915  0  0.991737  0
H  H70  1  0.78012077  0.44176467  0.66571157  1  0.109316  0  0.113915  0.183522  0  0.991267  0
H  H71  1  0.72032234  0.77569266  0.33456477  1  0.128908  0  0.113643  0.182894  0  0.99153  0
H  H72  1  0.09203586  0.72481525  0.21039807  1  0.06761  0  0.098475  0.151193  0  0.996546  0
H  H73  1  0.40871949  0.51441548  0.79044608  1  0.053265  0  0.098513  0.151467  0  0.99657  0
H  H74  1  0.90795814  0.27515883  0.78958459  1  0.067605  0  0.098598  0.15138  0  0.996576  0
H  H75  1  0.59128290  0.48558726  0.20954501  1  0.053265  0  0.098494  0.151404  0  0.996712  0
H  H76  1  0.07279723  0.68125630  0.29663948  1  0.118807  0  0.115703  0.183092  0  0.998333  0
H  H77  1  0.42731312  0.38478295  0.70359857  1  0.114809  0  0.116031  0.18357  0  0.997919  0
H  H78  1  0.92720504  0.31871573  0.70334281  1  0.118684  0  0.115638  0.183016  0  0.99845  0
H  H79  1  0.57268982  0.61521698  0.29639450  1  0.114956  0  0.115969  0.18344  0  0.998057  0
H  H80  1  0.06658237  0.58473123  0.18150105  1  0.067659  0  0.10235  0.159886  0  1.008381  0
H  H81  1  0.43341089  0.40253038  0.81850768  1  0.096943  0  0.102244  0.160078  0  1.008824  0
H  H82  1  0.93342478  0.41523667  0.81848430  1  0.068075  0  0.102403  0.159958  0  1.008594  0
H  H83  1  0.56660499  0.59747795  0.18149290  1  0.097147  0  0.102192  0.159994  0  1.008899  0
C  C84  1  0.49807154  0.84803871  0.18596833  1  1.554763  0  0.185231  0.550968  0  4.285047  0
C  C85  1  0.00172371  0.66153344  0.81403042  1  1.55156  0  0.184656  0.550057  0  4.284962  0
C  C86  1  0.50192532  0.15195702  0.81403081  1  1.555041  0  0.184965  0.550611  0  4.285347  0
C  C87  1  0.99826819  0.33846254  0.18596815  1  1.552347  0  0.18466  0.550254  0  4.284772  0
C  C88  1  0.54144919  0.82242890  0.10035458  1  -0.028647  0  -0.010991  -0.015381  0  3.939573  0
C  C89  1  0.95826780  0.72140624  0.89958910  1  -0.029064  0  -0.010994  -0.016408  0  3.941506  0
C  C90  1  0.45855291  0.17756706  0.89964797  1  -0.028776  0  -0.010926  -0.015245  0  3.939463  0
C  C91  1  0.04173206  0.27859523  0.10041333  1  -0.029372  0  -0.011029  -0.016582  0  3.941726  0
C  C92  1  0.56138211  0.90217367  0.07340849  1  -0.072623  0  -0.080706  -0.094013  0  3.963939  0
C  C93  1  0.93847443  0.82808671  0.92647011  1  -0.069822  0  -0.08021  -0.092529  0  3.963873  0
C  C94  1  0.43861693  0.09782577  0.92659194  1  -0.072713  0  -0.080749  -0.094117  0  3.964021  0
C  C95  1  0.06152278  0.17191150  0.07352752  1  -0.069843  0  -0.080139  -0.092268  0  3.963683  0
C  C96  1  0.59747029  0.87722707  0.99201613  1  -0.01046  0  -0.082505  -0.116871  0  3.957561  0
C  C97  1  0.90249642  0.88461585  0.00785203  1  -0.021757  0  -0.082475  -0.116501  0  3.956671  0
C  C98  1  0.40252516  0.12277620  0.00798488  1  -0.010468  0  -0.082488  -0.116859  0  3.957403  0
C  C99  1  0.09750106  0.11538657  0.99214501  1  -0.021169  0  -0.082555  -0.116843  0  3.956628  0
C  C100  1  0.61442376  0.77150957  0.93573188  1  0.000842  0  -0.012333  0.056806  0  4.046351  0
C  C101  1  0.88549307  0.83524152  0.06422242  1  0.052744  0  -0.012432  0.057065  0  4.046252  0
C  C102  1  0.38556663  0.22848754  0.06426859  1  0.000915  0  -0.012329  0.056945  0  4.04634  0
C  C103  1  0.11449635  0.16476022  0.93576760  1  0.052162  0  -0.012281  0.057204  0  4.045942  0
C  C104  1  0.59692334  0.69248954  0.96421608  1  -0.125494  0  -0.084965  -0.127928  0  3.990431  0
C  C105  1  0.90273051  0.72772538  0.03579230  1  -0.03609  0  -0.085223  -0.128661  0  3.992227  0
C  C106  1  0.40306486  0.30750695  0.03577903  1  -0.125288  0  -0.085018  -0.128011  0  3.990444  0
C  C107  1  0.09726008  0.27227400  0.96419857  1  -0.036885  0  -0.085262  -0.128565  0  3.992001  0
C  C108  1  0.56050379  0.71771662  0.04560616  1  -0.022556  0  -0.084742  -0.095779  0  3.983715  0
C  C109  1  0.93901868  0.67146024  0.95434571  1  -0.091581  0  -0.084222  -0.094699  0  3.983456  0
C  C110  1  0.43948930  0.28228387  0.95439290  1  -0.023099  0  -0.08477  -0.095825  0  3.983504  0
C  C111  1  0.06097077  0.32853279  0.04564996  1  -0.091243  0  -0.084159  -0.094586  0  3.983559  0
C  C112  1  0.64102309  0.73942590  0.84463946  1  0.621713  0  0.077301  0.08385  0  3.969083  0
C  C113  1  0.85898162  0.89441127  0.15530679  1  0.656426  0  0.077542  0.083357  0  3.967663  0
C  C114  1  0.35896788  0.26057223  0.15535334  1  0.621326  0  0.07731  0.083791  0  3.969328  0
C  C115  1  0.14100654  0.10558769  0.84468365  1  0.656813  0  0.077496  0.083346  0  3.967667  0
C  C116  1  0.54923340  0.82019329  0.50259403  1  1.570665  0  0.222939  0.629843  0  4.172218  0
C  C117  1  0.95102932  0.31753413  0.49717535  1  1.564982  0  0.221889  0.629223  0  4.171961  0
C  C118  1  0.45076792  0.17980075  0.49740033  1  1.571385  0  0.223037  0.629955  0  4.17229  0
C  C119  1  0.04897595  0.68245357  0.50281915  1  1.565034  0  0.2219  0.629251  0  4.171937  0
C  C120  1  0.61009539  0.77453385  0.56505583  1  0.059295  0  -0.011564  -0.021138  0  3.985161  0
C  C121  1  0.89026579  0.20934650  0.43478486  1  0.049035  0  -0.011096  -0.01927  0  3.982953  0
C  C122  1  0.38990191  0.22546263  0.43494090  1  0.059077  0  -0.011492  -0.020968  0  3.984964  0
C  C123  1  0.10972172  0.79065316  0.56521414  1  0.04902  0  -0.011144  -0.01929  0  3.98289  0
C  C124  1  0.60627106  0.81384868  0.66014198  1  -0.116061  0  -0.06754  -0.159006  0  3.873609  0
C  C125  1  0.89408014  0.15359302  0.33967819  1  -0.122418  0  -0.068155  -0.160722  0  3.873883  0
C  C126  1  0.39372875  0.18614775  0.33985552  1  -0.11612  0  -0.067514  -0.159078  0  3.873535  0
C  C127  1  0.10591061  0.84640658  0.66032077  1  -0.122615  0  -0.068271  -0.16099  0  3.873864  0
C  C128  1  0.66064009  0.76603839  0.71609526  1  0.368955  0  0.088035  0.192125  0  4.090619  0
C  C129  1  0.83975451  0.04979236  0.28380517  1  0.372034  0  0.08664  0.191156  0  4.090815  0
C  C130  1  0.33936648  0.23396276  0.28390216  1  0.366376  0  0.088069  0.192252  0  4.090389  0
C  C131  1  0.16023371  0.95021290  0.71619144  1  0.372121  0  0.086627  0.191314  0  4.090537  0
C  C132  1  0.72607041  0.68513663  0.67854152  1  -0.056697  0  -0.07921  -0.17422  0  3.911901  0
C  C133  1  0.77428008  0.00646686  0.32142302  1  -0.025905  0  -0.078737  -0.173751  0  3.911332  0
C  C134  1  0.27393321  0.31486444  0.32145817  1  -0.054026  0  -0.07921  -0.174219  0  3.911701  0
C  C135  1  0.22571939  0.99353396  0.67857562  1  -0.025765  0  -0.078715  -0.173691  0  3.911203  0
C  C136  1  0.73268527  0.64886638  0.58436524  1  -0.011403  0  -0.012095  -0.019228  0  3.967391  0
C  C137  1  0.76769065  0.06433087  0.41559227  1  0.012966  0  -0.012456  -0.019216  0  3.967132  0
C  C138  1  0.26731879  0.35113670  0.41563328  1  -0.011181  0  -0.012089  -0.019215  0  3.967231  0
C  C139  1  0.23230709  0.93566826  0.58440391  1  0.012706  0  -0.012408  -0.019285  0  3.967047  0
C  C140  1  0.67211475  0.69156706  0.52712681  1  -0.041505  0  -0.072083  -0.101511  0  3.912836  0
C  C141  1  0.82836023  0.16422355  0.47278030  1  -0.040984  0  -0.071299  -0.10118  0  3.912397  0
C  C142  1  0.32788651  0.30843059  0.47287031  1  -0.041564  0  -0.072177  -0.101581  0  3.912756  0
C  C143  1  0.17163402  0.83577332  0.52721837  1  -0.040657  0  -0.071291  -0.101125  0  3.912265  0
C  C144  1  0.80818289  0.56803941  0.54454913  1  1.609564  0  0.230283  0.642407  0  4.166363  0
C  C145  1  0.69200255  0.02343895  0.45542306  1  1.603142  0  0.2302  0.642071  0  4.166867  0
C  C146  1  0.19181546  0.43196257  0.45545457  1  1.609137  0  0.230369  0.642457  0  4.166133  0
C  C147  1  0.30800112  0.97655099  0.54457361  1  1.603075  0  0.230084  0.641957  0  4.166949  0
C  C148  1  0.20878464  0.97562432  0.22631983  1  0.903304  0  0.196384  0.632898  0  3.837525  0
C  C149  1  0.29116326  0.74931068  0.77369628  1  0.915262  0  0.195916  0.631317  0  3.839197  0
C  C150  1  0.79122082  0.02438549  0.77368291  1  0.903447  0  0.196287  0.632713  0  3.837927  0
C  C151  1  0.70882972  0.25069332  0.22631172  1  0.915109  0  0.195996  0.631443  0  3.838996  0
C  C152  1  0.12747876  0.05030831  0.26189959  1  -0.096575  0  -0.24275  -0.521005  0  3.859521  0
C  C153  1  0.37250528  0.78839146  0.73805043  1  -0.151305  0  -0.242507  -0.518874  0  3.858975  0
C  C154  1  0.87252267  0.94969770  0.73810649  1  -0.096664  0  -0.242684  -0.520686  0  3.859228  0
C  C155  1  0.62748617  0.21161677  0.26195541  1  -0.151313  0  -0.242519  -0.519042  0  3.859038  0
C  C156  1  0.21824530  0.94313026  0.12665811  1  -0.122893  0  -0.239942  -0.510467  0  3.850106  0
C  C157  1  0.28161822  0.81657066  0.87330053  1  -0.107439  0  -0.239894  -0.509589  0  3.850033  0
C  C158  1  0.78176226  0.05688001  0.87334904  1  -0.12223  0  -0.239826  -0.510304  0  3.849879  0
C  C159  1  0.71837185  0.18343836  0.12670134  1  -0.107706  0  -0.239875  -0.509504  0  3.850095  0
C  C160  1  0.22803950  0.66119203  0.26758058  1  0.920801  0  0.196429  0.635445  0  3.839247  0
C  C161  1  0.27209784  0.39398992  0.73265993  1  0.926317  0  0.196642  0.636423  0  3.838698  0
C  C162  1  0.77196629  0.33880095  0.73240963  1  0.920547  0  0.196396  0.635535  0  3.839094  0
C  C163  1  0.72791398  0.60601640  0.26735203  1  0.926572  0  0.196581  0.636076  0  3.839453  0
C  C164  1  0.26514005  0.57036540  0.28828325  1  -0.11436  0  -0.237123  -0.521364  0  3.852069  0
C  C165  1  0.23444716  0.28239518  0.71142568  1  -0.137623  0  -0.236475  -0.520422  0  3.852448  0
C  C166  1  0.73486977  0.42963006  0.71171572  1  -0.113901  0  -0.23705  -0.521301  0  3.851841  0
C  C167  1  0.76556841  0.71760385  0.28858390  1  -0.13738  0  -0.236439  -0.520242  0  3.852322  0
C  C168  1  0.10782930  0.66378870  0.23550559  1  -0.114328  0  -0.236769  -0.523082  0  3.855432  0
C  C169  1  0.39242718  0.42825283  0.76488000  1  -0.123914  0  -0.237195  -0.524379  0  3.85527  0
C  C170  1  0.89217608  0.33618988  0.76448155  1  -0.114465  0  -0.236886  -0.523304  0  3.855761  0
C  C171  1  0.60757577  0.57174836  0.23511430  1  -0.124465  0  -0.237065  -0.523988  0  3.855333  0
N  N172  1  0.64645672  0.80458282  0.80863953  1  -1.196816  0  -0.305766  -0.287153  0  3.37967  0
N  N173  1  0.85395606  0.99561658  0.19125972  1  -1.225926  0  -0.305389  -0.286809  0  3.377226  0
N  N174  1  0.35353843  0.19541997  0.19135864  1  -1.196661  0  -0.305868  -0.287321  0  3.379895  0
N  N175  1  0.14603283  0.00438488  0.80873239  1  -1.22608  0  -0.305271  -0.286786  0  3.377458  0
O  O176  1  0.47915859  0.77212027  0.20638329  1  -1.179052  0  -0.388866  -0.640872  0  2.182718  0
O  O177  1  0.02045995  0.56517662  0.79352982  1  -1.176199  0  -0.388718  -0.640252  0  2.182102  0
O  O178  1  0.52083500  0.22787174  0.79361219  1  -1.179501  0  -0.388774  -0.640712  0  2.182773  0
O  O179  1  0.97953998  0.43482186  0.20647047  1  -1.176275  0  -0.388698  -0.640305  0  2.182063  0
O  O180  1  0.48151226  0.94364858  0.23538199  1  -1.178306  0  -0.367705  -0.627554  0  2.212604  0
O  O181  1  0.01857621  0.70786763  0.76476245  1  -1.177926  0  -0.36752  -0.627231  0  2.212076  0
O  O182  1  0.51849682  0.05634931  0.76462644  1  -1.178073  0  -0.367525  -0.627369  0  2.212582  0
O  O183  1  0.98141822  0.29212768  0.23523626  1  -1.178305  0  -0.367544  -0.627286  0  2.212037  0
O  O184  1  0.51762889  0.76135611  0.41317545  1  -1.190261  0  -0.368612  -0.625262  0  2.211175  0
O  O185  1  0.98268554  0.34808966  0.58660696  1  -1.186563  0  -0.368684  -0.625499  0  2.211263  0
O  O186  1  0.48236676  0.23863756  0.58681853  1  -1.190628  0  -0.368687  -0.625368  0  2.211336  0
O  O187  1  0.01732540  0.65189840  0.41338792  1  -1.186723  0  -0.368689  -0.625448  0  2.211305  0
O  O188  1  0.52974735  0.91768629  0.54014239  1  -1.220319  0  -0.421618  -0.738634  0  2.416096  0
O  O189  1  0.97018746  0.37754882  0.45958043  1  -1.222494  0  -0.420563  -0.737775  0  2.417597  0
O  O190  1  0.47026188  0.08230820  0.45985090  1  -1.220266  0  -0.421638  -0.738669  0  2.416103  0
O  O191  1  0.02980696  0.62244585  0.54041766  1  -1.222628  0  -0.420551  -0.737832  0  2.417675  0
O  O192  1  0.80786657  0.53883664  0.45800868  1  -1.196618  0  -0.391089  -0.662615  0  2.28629  0
O  O193  1  0.69232722  0.08075933  0.54195638  1  -1.201009  0  -0.390511  -0.6622  0  2.285988  0
O  O194  1  0.19214081  0.46116832  0.54199878  1  -1.196857  0  -0.391167  -0.662664  0  2.286201  0
O  O195  1  0.30767698  0.91922591  0.45804042  1  -1.200954  0  -0.390502  -0.662204  0  2.285945  0
O  O196  1  0.86815959  0.53656172  0.60083829  1  -1.211861  0  -0.395024  -0.666866  0  2.304123  0
O  O197  1  0.63181070  0.93582037  0.39908061  1  -1.205474  0  -0.395036  -0.666599  0  2.304288  0
O  O198  1  0.13183360  0.46343394  0.39916392  1  -1.211668  0  -0.395039  -0.666888  0  2.30416  0
O  O199  1  0.36819267  0.06416846  0.60091261  1  -1.205281  0  -0.394984  -0.666528  0  2.304207  0
O  O200  1  0.26788382  0.94344525  0.27919960  1  -1.153016  0  -0.317391  -0.543134  0  2.27273  0
O  O201  1  0.23208270  0.66427968  0.72086570  1  -1.154417  0  -0.317094  -0.542282  0  2.274434  0
O  O202  1  0.73212717  0.05656528  0.72080940  1  -1.152946  0  -0.317303  -0.543032  0  2.273181  0
O  O203  1  0.76790928  0.33573010  0.27913930  1  -1.154368  0  -0.317099  -0.542337  0  2.274251  0
O  O204  1  0.29443156  0.73239987  0.27753491  1  -1.15578  0  -0.31435  -0.53461  0  2.247417  0
O  O205  1  0.20610827  0.45567885  0.72305338  1  -1.156375  0  -0.314268  -0.53508  0  2.2464  0
O  O206  1  0.70556349  0.26759220  0.72245278  1  -1.155751  0  -0.314362  -0.534708  0  2.247247  0
O  O207  1  0.79389557  0.54432506  0.27695067  1  -1.156402  0  -0.314267  -0.534989  0  2.24693  0
