# generated using pymatgen
data_CuP2H16C17(NO3)2
_symmetry_space_group_name_H-M   'P 1'
_cell_length_a   8.48445894
_cell_length_b   8.71225605
_cell_length_c   12.74766631
_cell_angle_alpha   96.10452294
_cell_angle_beta   107.88555198
_cell_angle_gamma   103.81964251
_symmetry_Int_Tables_number   1
_chemical_formula_structural   CuP2H16C17(NO3)2
_chemical_formula_sum   'Cu2 P4 H32 C34 N4 O12'
_cell_volume   854.17135210
_cell_formula_units_Z   2
loop_
 _symmetry_equiv_pos_site_id
 _symmetry_equiv_pos_as_xyz
  1  'x, y, z'
loop_
 _atom_site_type_symbol
 _atom_site_label
 _atom_site_symmetry_multiplicity
 _atom_site_fract_x
 _atom_site_fract_y
 _atom_site_fract_z
 _atom_site_occupancy
 _atom_site_hle17_ddec_charge
 _atom_site_hle17_ddec_spin_density
 _atom_site_hle17_ddec_sum_bond_order
 _atom_site_hle17_magmom
 _atom_site_hse06_10hf_bader_charge
 _atom_site_hse06_10hf_bader_spin_density
 _atom_site_hse06_10hf_ddec_charge
 _atom_site_hse06_10hf_ddec_spin_density
 _atom_site_hse06_10hf_ddec_sum_bond_order
 _atom_site_hse06_10hf_magmom
 _atom_site_hse06_ddec_charge
 _atom_site_hse06_ddec_spin_density
 _atom_site_hse06_ddec_sum_bond_order
 _atom_site_hse06_magmom
 _atom_site_pbe_cm5_charge
 _atom_site_pbe_ddec_charge
 _atom_site_pbe_ddec_spin_density
 _atom_site_pbe_ddec_sum_bond_order
 _atom_site_pbe_magmom
Cu  Cu0  1  0.68116211  0.68791211  0.90940956  1  0.944031  0.745153  1.822301  0.535  1.151314  0.648891  0.923549  0.819019  2.21491  0.646  1.004732  0.891428  2.15031  0.728  0.777577  0.871636  0.76144  2.261816  0.588
Cu  Cu1  1  0.31883904  0.31208709  0.09059188  1  0.944129  -0.745204  1.822375  -0.535  1.151318  -0.648893  0.923573  -0.819019  2.214956  -0.646  1.004752  -0.891428  2.150334  -0.728  0.777592  0.871662  -0.761441  2.261862  -0.588
P  P2  1  0.64918521  0.46553258  0.65529723  1  1.45866  -9.9e-05  4.827542  0.0  3.458677  -5.4e-05  1.298353  -7e-05  5.329078  0.0  1.349726  -9.2e-05  5.287525  0.0  0.358214  1.262651  -2.7e-05  5.356724  0.0
P  P3  1  0.35081806  0.53446542  0.34470378  1  1.458628  9.8e-05  4.827533  0.0  3.458385  5.2e-05  1.298314  6.8e-05  5.329067  0.0  1.349686  9.2e-05  5.287511  0.0  0.358202  1.262611  2.7e-05  5.356713  0.0
P  P4  1  0.31930734  0.43588128  0.86251712  1  1.458091  -0.00059  4.794173  -0.001  3.437786  0.000149  1.316487  0.000454  5.28905  0.0  1.371945  0.000366  5.249766  0.0  0.357977  1.277293  0.000499  5.315418  0.0
P  P5  1  0.68069492  0.56412153  0.13748401  1  1.458125  0.00059  4.794195  0.001  3.437808  -0.000149  1.316518  -0.000454  5.28907  0.0  1.371977  -0.000365  5.24978  0.0  0.358011  1.277321  -0.0005  5.31544  0.0
H  H6  1  0.43410702  0.34888747  0.49204617  1  0.442105  -5e-06  0.867894  0.0  0.681786  -3e-06  0.406194  -0.0  0.939193  0.0  0.41868  -2e-06  0.921529  0.0  0.299204  0.397514  1e-06  0.951413  0.0
H  H7  1  0.56589537  0.65111175  0.50795632  1  0.442056  5e-06  0.867965  0.0  0.68177  4e-06  0.406196  1e-06  0.939186  0.0  0.418676  1e-06  0.921529  0.0  0.299208  0.397518  -1e-06  0.951404  0.0
H  H8  1  0.51602732  0.36309458  0.80847656  1  0.44034  -5e-06  0.868483  0.0  0.673569  7e-06  0.406482  -3e-06  0.936935  0.0  0.418478  -4e-06  0.9199  0.0  0.301895  0.398068  2e-06  0.948822  0.0
H  H9  1  0.48397150  0.63690103  0.19152573  1  0.440333  5e-06  0.868501  0.0  0.673623  -7e-06  0.406471  3e-06  0.93696  0.0  0.418468  4e-06  0.919924  0.0  0.301872  0.398055  -2e-06  0.948849  0.0
H  H10  1  0.38376427  0.79160368  0.77113379  1  0.09067  0.001353  0.959608  0.003  0.124259  0.002413  0.098344  0.00106  1.0235  0.002  0.100197  0.000706  1.021868  0.001  0.119598  0.096833  0.001368  1.024776  0.002
H  H11  1  0.61622871  0.20839306  0.22886268  1  0.090683  -0.001354  0.959653  -0.003  0.124283  -0.002413  0.098362  -0.001061  1.023543  -0.002  0.100218  -0.000706  1.021901  -0.001  0.119612  0.096849  -0.001368  1.02482  -0.002
H  H12  1  0.34984365  0.98038391  0.63214229  1  0.107908  0.000525  0.944866  0.001  0.103244  0.000959  0.120476  0.000476  0.999607  0.001  0.122864  0.000338  0.999816  0.0  0.113534  0.118646  0.000587  0.99975  0.001
H  H13  1  0.65015084  0.01960554  0.36784850  1  0.107868  -0.000526  0.944866  -0.001  0.103287  -0.000959  0.120446  -0.000476  0.99959  -0.001  0.122835  -0.000337  0.999798  0.0  0.113524  0.118616  -0.000586  0.999733  -0.001
H  H14  1  0.60985175  0.12098028  0.59140796  1  0.099248  0.000258  0.987129  0.0  0.124987  2.5e-05  0.107887  1.7e-05  1.049338  0.0  0.10991  -9e-06  1.048255  0.0  0.110164  0.106303  5.9e-05  1.050303  0.0
H  H15  1  0.39014362  0.87900800  0.40858528  1  0.099244  -0.000257  0.987085  0.0  0.124924  -2.5e-05  0.1079  -1.7e-05  1.049284  0.0  0.109926  9e-06  1.048197  0.0  0.110179  0.106317  -5.9e-05  1.050249  0.0
H  H16  1  0.89715400  0.08906489  0.69741017  1  0.103579  0.000808  0.971902  0.001  0.101825  0.00131  0.112159  0.000634  1.035926  0.001  0.113605  0.000431  1.03807  0.001  0.10866  0.111011  0.000808  1.034712  0.001
H  H17  1  0.10284096  0.91093431  0.30259078  1  0.103573  -0.000809  0.971861  -0.001  0.101773  -0.00131  0.112224  -0.000634  1.03582  -0.001  0.113671  -0.000431  1.037963  -0.001  0.108671  0.111075  -0.000808  1.03461  -0.001
H  H18  1  0.13421041  0.06521746  0.81002862  1  0.116365  0.00076  0.950294  0.001  0.126717  0.001324  0.127441  0.00066  1.009257  0.001  0.130125  0.000455  1.008883  0.001  0.1155  0.125385  0.000834  1.009842  0.001
H  H19  1  0.86579258  0.93478779  0.18997439  1  0.116323  -0.00076  0.950363  -0.001  0.126722  -0.001324  0.127403  -0.00066  1.009331  -0.001  0.130085  -0.000455  1.008958  -0.001  0.11548  0.12535  -0.000834  1.009916  -0.001
H  H20  1  0.38507779  0.99209893  0.92739368  1  0.096032  0.000272  0.948174  0.0  0.090584  3.9e-05  0.108918  3.4e-05  1.007906  0.0  0.11065  4e-06  1.007011  0.0  0.112353  0.107537  7.4e-05  1.008921  0.0
H  H21  1  0.61492075  0.00790389  0.07260825  1  0.096033  -0.000273  0.948147  0.0  0.09056  -3.9e-05  0.108913  -3.4e-05  1.007897  0.0  0.110643  -4e-06  1.007007  0.0  0.112353  0.107532  -7.4e-05  1.008909  0.0
H  H22  1  0.33813215  0.77457150  0.04133269  1  0.132421  0.000465  0.937939  0.001  0.149807  0.000942  0.141935  0.00047  0.993778  0.001  0.14497  0.000327  0.992968  0.0  0.116705  0.139505  0.000583  0.994752  0.001
H  H23  1  0.66186814  0.22542890  0.95866787  1  0.132465  -0.000464  0.937985  -0.001  0.149799  -0.000942  0.141977  -0.00047  0.99383  -0.001  0.145013  -0.000327  0.993018  0.0  0.116743  0.139548  -0.000583  0.994805  -0.001
H  H24  1  0.03536392  0.65571185  0.03877930  1  0.102448  0.00154  0.935588  0.003  0.153601  0.002646  0.110682  0.001224  0.99694  0.002  0.112505  0.000842  0.995123  0.002  0.125829  0.109097  0.001548  0.998511  0.003
H  H25  1  0.96463549  0.34428975  0.96122038  1  0.10243  -0.001541  0.935594  -0.003  0.15352  -0.002646  0.110638  -0.001224  0.996983  -0.002  0.11246  -0.000842  0.99517  -0.002  0.125824  0.109057  -0.001548  0.998556  -0.003
H  H26  1  0.88687312  0.23276836  0.35391747  1  0.100345  -3e-06  0.96614  0.0  0.012736  -3.2e-05  0.121747  -1.7e-05  1.030161  0.0  0.122361  -1.4e-05  1.031658  0.0  0.086302  0.121332  -2.1e-05  1.029074  0.0
H  H27  1  0.11313547  0.76723086  0.64608471  1  0.100245  2e-06  0.966168  0.0  0.012686  3.3e-05  0.121653  1.7e-05  1.030193  0.0  0.122261  1.4e-05  1.031696  0.0  0.086252  0.121243  2.1e-05  1.029093  0.0
H  H28  1  0.96297013  0.08328362  0.42223308  1  0.096137  -5.3e-05  0.951755  0.0  0.009477  -3.7e-05  0.118367  -2e-05  1.015636  0.0  0.119215  -1.6e-05  1.015816  0.0  0.085335  0.117834  -2.5e-05  1.015395  0.0
H  H29  1  0.03704044  0.91671803  0.57777125  1  0.096171  5.3e-05  0.951677  0.0  0.009526  3.7e-05  0.118402  2e-05  1.015558  0.0  0.119251  1.6e-05  1.015738  0.0  0.085348  0.117869  2.5e-05  1.015316  0.0
H  H30  1  0.11197251  0.25875811  0.41389297  1  0.132784  -2.7e-05  0.975102  0.0  0.095469  -1.5e-05  0.152148  -8e-06  1.034336  0.0  0.154177  -9e-06  1.034216  0.0  0.093556  0.150585  -8e-06  1.034566  0.0
H  H31  1  0.88803595  0.74124475  0.58611179  1  0.132738  2.6e-05  0.975228  0.0  0.095604  1.5e-05  0.152104  8e-06  1.034442  0.0  0.154135  9e-06  1.03432  0.0  0.093547  0.150541  8e-06  1.034669  0.0
H  H32  1  0.24413023  0.28995470  0.62824735  1  0.107717  1.8e-05  0.97123  0.0  0.113235  5.1e-05  0.116898  2.5e-05  1.034721  0.0  0.120522  1.6e-05  1.03205  0.0  0.101712  0.114226  3.5e-05  1.036754  0.0
H  H33  1  0.75587524  0.71005053  0.37175460  1  0.107718  -1.6e-05  0.971248  0.0  0.113288  -5.1e-05  0.116897  -2.5e-05  1.034741  0.0  0.120524  -1.6e-05  1.032067  0.0  0.101702  0.114227  -3.5e-05  1.03677  0.0
H  H34  1  0.98214517  0.49453221  0.82326616  1  0.089784  -0.000183  0.973092  0.0  0.07496  -9.2e-05  0.098691  -9.3e-05  1.041856  0.0  0.10129  -7.3e-05  1.040587  0.0  0.099028  0.096771  -0.000111  1.042851  0.0
H  H35  1  0.01784941  0.50546576  0.17673229  1  0.089769  0.000183  0.973094  0.0  0.074905  9.2e-05  0.098707  9.3e-05  1.041827  0.0  0.101307  7.3e-05  1.040555  0.0  0.099045  0.096788  0.000111  1.042822  0.0
H  H36  1  0.73235492  0.32731863  0.46683012  1  0.090593  -5.1e-05  0.962391  0.0  0.076172  3e-06  0.100368  5e-06  1.029091  0.0  0.103066  1e-06  1.028205  0.0  0.101001  0.098439  1e-05  1.02977  0.0
H  H37  1  0.26764724  0.67267573  0.53316886  1  0.090657  5.1e-05  0.962308  0.0  0.076299  -3e-06  0.100392  -5e-06  1.029055  0.0  0.103091  -1e-06  1.028168  0.0  0.101018  0.098462  -1e-05  1.029737  0.0
C  C38  1  0.49264128  0.86347058  0.75278240  1  0.139613  -0.006012  3.683344  -0.007  0.467144  -0.0019  0.109745  -0.00044  3.942646  -0.002  0.119585  -0.001494  3.960067  -0.003  0.055635  0.103216  0.00039  3.931444  -0.001
C  C39  1  0.50735330  0.13652737  0.24721447  1  0.139538  0.006008  3.683298  0.007  0.467111  0.001899  0.109681  0.000439  3.942633  0.002  0.119522  0.001494  3.960056  0.003  0.05558  0.103152  -0.00039  3.931428  0.001
C  C40  1  0.47555790  0.96474493  0.67526518  1  -0.095597  0.00896  3.683729  0.01  -0.021327  0.005822  -0.107914  0.00389  3.932125  0.005  -0.115309  0.003235  3.951851  0.004  -0.070632  -0.1034  0.004437  3.919574  0.005
C  C41  1  0.52443967  0.03525062  0.32473215  1  -0.09562  -0.008949  3.683694  -0.01  -0.021059  -0.005822  -0.107925  -0.00389  3.932099  -0.005  -0.115319  -0.003236  3.951822  -0.004  -0.070683  -0.103413  -0.004437  3.919544  -0.005
C  C42  1  0.62171341  0.04400352  0.65331174  1  0.023619  -0.006683  3.672983  -0.006  -0.040982  -0.003141  0.003329  -0.002016  3.917399  -0.002  0.008944  -0.00219  3.93339  -0.002  -0.057292  -0.000773  -0.001861  3.907425  -0.002
C  C43  1  0.37828416  0.95599203  0.34668558  1  0.023634  0.006673  3.673022  0.006  -0.041141  0.00314  0.003311  0.002015  3.917475  0.002  0.008927  0.00219  3.933463  0.002  -0.057294  -0.000792  0.001861  3.907499  0.002
C  C44  1  0.78157653  0.02612766  0.71271862  1  -0.111224  0.005771  3.656432  0.006  0.081854  0.003288  -0.127512  0.002384  3.896903  0.002  -0.134658  0.002067  3.917716  0.002  -0.066292  -0.123129  0.002656  3.883582  0.003
C  C45  1  0.21842202  0.97387517  0.28728410  1  -0.111161  -0.005759  3.656285  -0.006  0.081854  -0.003287  -0.12752  -0.002383  3.896759  -0.002  -0.134668  -0.002068  3.917579  -0.002  -0.06631  -0.123138  -0.002656  3.883438  -0.003
C  C46  1  0.79055043  0.92611128  0.79144182  1  0.17966  -0.002173  3.771865  -0.003  0.47873  0.000823  0.175102  0.001109  4.016769  0.001  0.183484  0.0  4.036315  -0.001  0.121284  0.169526  0.001978  4.003835  0.002
C  C47  1  0.20944935  0.07389152  0.20855880  1  0.179587  0.002164  3.771794  0.003  0.478764  -0.000824  0.175073  -0.00111  4.0167  -0.001  0.18345  0.0  4.036253  0.001  0.121292  0.169495  -0.001978  4.003765  -0.002
C  C48  1  0.95031602  0.89559124  0.85887223  1  0.17915  -0.003858  3.751573  -0.004  0.432584  -0.000203  0.176949  0.000421  3.992988  0.0  0.185551  -0.000774  4.012865  -0.002  0.123613  0.171276  0.001316  3.979674  0.001
C  C49  1  0.04968092  0.10441036  0.14112851  1  0.179119  0.003873  3.751621  0.004  0.432536  0.000202  0.176963  -0.000423  3.992956  0.0  0.18556  0.000774  4.012836  0.002  0.123653  0.171295  -0.001317  3.979641  -0.001
C  C50  1  0.11523400  0.97283248  0.85966525  1  -0.123614  0.007373  3.678723  0.007  0.044784  0.004359  -0.144255  0.003172  3.9312  0.003  -0.150697  0.002926  3.949794  0.003  -0.069938  -0.140353  0.003389  3.919506  0.003
C  C51  1  0.88476739  0.02717156  0.14033814  1  -0.123551  -0.007388  3.678679  -0.007  0.044744  -0.004357  -0.144216  -0.003172  3.93114  -0.003  -0.15066  -0.002926  3.949742  -0.003  -0.069948  -0.140305  -0.003389  3.919413  -0.003
C  C52  1  0.25650148  0.93148823  0.92647600  1  -0.005329  -0.008232  3.71312  -0.008  -0.023014  -0.004066  -0.032092  -0.002498  3.97931  -0.003  -0.027702  -0.002681  3.994772  -0.003  -0.062929  -0.035474  -0.002422  3.969943  -0.003
C  C53  1  0.74349779  0.06851699  0.07352546  1  -0.00537  0.008251  3.712964  0.008  -0.022987  0.004066  -0.03212  0.002498  3.979168  0.003  -0.027731  0.002681  3.994627  0.003  -0.06292  -0.035498  0.002422  3.969806  0.003
C  C54  1  0.23151799  0.81369168  0.99064744  1  -0.090717  0.01077  3.66231  0.012  -0.027866  0.007307  -0.104495  0.004816  3.913244  0.006  -0.110278  0.004161  3.93239  0.005  -0.071527  -0.100924  0.005411  3.901016  0.006
C  C55  1  0.76848142  0.18630992  0.00935302  1  -0.090682  -0.010789  3.662236  -0.012  -0.027882  -0.007307  -0.104473  -0.004816  3.913195  -0.006  -0.110256  -0.004161  3.932341  -0.005  -0.071549  -0.100905  -0.005411  3.900975  -0.006
C  C56  1  0.06413017  0.74452461  0.98821752  1  0.143575  -0.006831  3.650135  -0.008  0.459929  -0.002429  0.116082  -0.000628  3.907153  -0.002  0.125498  -0.001822  3.92417  -0.003  0.058154  0.109775  0.00025  3.896226  -0.001
C  C57  1  0.93586924  0.25547699  0.01178294  1  0.143586  0.00685  3.650055  0.008  0.460399  0.002429  0.116106  0.000628  3.907094  0.002  0.125521  0.001823  3.924108  0.003  0.058175  0.109794  -0.00025  3.896177  0.001
C  C58  1  0.98713628  0.21420674  0.42545120  1  -0.348123  -7.6e-05  3.72311  0.0  -0.044689  -0.000105  -0.42956  -7.4e-05  3.957202  0.0  -0.432631  -5e-05  3.968048  0.0  -0.248143  -0.427107  -9.5e-05  3.949558  0.0
C  C59  1  0.01286947  0.78579128  0.57455110  1  -0.34803  8.1e-05  3.723063  0.0  -0.044762  0.000102  -0.429442  7.2e-05  3.957158  0.0  -0.432511  5e-05  3.967999  0.0  -0.248111  -0.426988  9.5e-05  3.949513  0.0
C  C60  1  0.98721749  0.29752608  0.53505228  1  0.143103  -0.000898  3.741317  -0.001  -0.04234  -0.000318  0.174502  -0.000202  3.978301  0.0  0.174101  -0.000213  4.003227  0.0  -0.007926  0.174669  -0.000194  3.961246  0.0
C  C61  1  0.01278491  0.70247311  0.46494785  1  0.14308  0.00089  3.741299  0.001  -0.042402  0.00032  0.174467  0.000204  3.978294  0.0  0.174066  0.000212  4.00322  0.0  -0.007957  0.174635  0.000194  3.961243  0.0
C  C62  1  0.13128857  0.32554867  0.63325994  1  -0.106828  0.0006  3.702057  0.0  -0.043281  0.000106  -0.138333  2.5e-05  3.942279  0.0  -0.138579  7.5e-05  3.961969  0.0  -0.08834  -0.138011  3e-06  3.928987  0.0
C  C63  1  0.86871406  0.67445534  0.36674135  1  -0.106811  -0.000596  3.702119  0.0  -0.043156  -0.000107  -0.13834  -2.6e-05  3.942342  0.0  -0.138586  -7.4e-05  3.96203  0.0  -0.088328  -0.138019  -3e-06  3.929047  0.0
C  C64  1  0.13241654  0.39976102  0.73670311  1  -0.246835  -0.001716  3.793624  -0.002  -0.626352  -0.00165  -0.203349  -0.00105  4.036658  -0.001  -0.213835  -0.000905  4.057835  -0.001  -0.030906  -0.196296  -0.001118  4.022269  -0.001
C  C65  1  0.86758559  0.60024542  0.26329980  1  -0.246853  0.00171  3.793737  0.002  -0.626443  0.001651  -0.203304  0.001052  4.036696  0.001  -0.213789  0.000903  4.057872  0.001  -0.030891  -0.196249  0.001118  4.022302  0.001
C  C66  1  0.98587398  0.44285496  0.74275045  1  -0.026324  0.001473  3.751772  0.001  -0.01965  0.00075  -0.063988  0.000478  3.997539  0.0  -0.061662  0.000383  4.018208  0.0  -0.083483  -0.065208  0.000566  3.983349  0.001
C  C67  1  0.01412061  0.55714300  0.25724800  1  -0.026293  -0.00146  3.751703  -0.001  -0.019625  -0.000751  -0.064019  -0.000479  3.997463  0.0  -0.061693  -0.000382  4.01813  0.0  -0.083511  -0.065238  -0.000566  3.983273  -0.001
C  C68  1  0.84117318  0.41579247  0.64596284  1  -0.239752  -0.000714  3.78627  -0.001  -0.56622  -0.000203  -0.194555  -9.9e-05  4.028991  0.0  -0.204519  -0.000154  4.050966  0.0  -0.028061  -0.187961  -4.9e-05  4.014095  0.0
C  C69  1  0.15882820  0.58421148  0.35403348  1  -0.239742  0.000703  3.786177  0.001  -0.566131  0.000204  -0.1945  0.0001  4.02882  0.0  -0.204463  0.000153  4.050795  0.0  -0.027982  -0.187904  4.9e-05  4.013925  0.0
C  C70  1  0.84456233  0.34614556  0.54254181  1  -0.099199  0.002234  3.715571  0.002  -0.047098  0.000915  -0.130394  0.000586  3.955836  0.001  -0.131169  0.000446  3.977457  0.0  -0.083129  -0.129515  0.000744  3.940972  0.001
C  C71  1  0.15544057  0.65385122  0.45745826  1  -0.099274  -0.002224  3.715566  -0.002  -0.047284  -0.000917  -0.130451  -0.000587  3.955839  -0.001  -0.131225  -0.000445  3.977458  0.0  -0.083169  -0.129574  -0.000744  3.94098  -0.001
N  N72  1  0.64642738  0.84549386  0.80916216  1  -0.337366  0.082845  3.361949  0.103  -1.230931  0.086387  -0.300364  0.056748  3.665331  0.076  -0.331079  0.04641  3.686224  0.065  -0.346039  -0.28159  0.062559  3.653004  0.081
N  N73  1  0.35357115  0.15450893  0.19083741  1  -0.33724  -0.082826  3.361894  -0.103  -1.230944  -0.086383  -0.300308  -0.056744  3.665333  -0.076  -0.331019  -0.046408  3.686219  -0.065  -0.346  -0.281536  -0.062557  3.653002  -0.081
N  N74  1  0.92812985  0.78499757  0.92412176  1  -0.330783  0.08668  3.317127  0.108  -1.247458  0.093433  -0.29177  0.061537  3.612509  0.082  -0.322275  0.050522  3.634187  0.071  -0.337798  -0.272903  0.067838  3.599356  0.087
N  N75  1  0.07186832  0.21500403  0.07587845  1  -0.330823  -0.086687  3.317128  -0.108  -1.24787  -0.093433  -0.291795  -0.061536  3.612452  -0.082  -0.322291  -0.050523  3.634117  -0.071  -0.337824  -0.272931  -0.067839  3.599301  -0.087
O  O76  1  0.64687074  0.62562939  0.61888053  1  -0.835811  4e-05  1.993011  0.0  -1.484047  -0.000113  -0.757196  -9.1e-05  2.233252  0.0  -0.783934  -0.000105  2.217041  0.0  -0.369781  -0.737923  -5.5e-05  2.24378  0.0
O  O77  1  0.35313376  0.37436861  0.38112074  1  -0.835823  -4e-05  1.992983  0.0  -1.483829  0.000114  -0.75719  9.2e-05  2.233268  0.0  -0.783927  0.000106  2.217045  0.0  -0.369771  -0.73792  5.5e-05  2.243807  0.0
O  O78  1  0.48999546  0.32429150  0.57226867  1  -0.769661  2.1e-05  2.021596  0.0  -1.466938  -1e-06  -0.693067  1.7e-05  2.246321  0.0  -0.715053  4e-06  2.221265  0.0  -0.38868  -0.677312  3.3e-05  2.263183  0.0
O  O79  1  0.51000606  0.67570890  0.42773214  1  -0.769629  -2.2e-05  2.021641  0.0  -1.466931  1e-06  -0.693072  -1.7e-05  2.246328  0.0  -0.715065  -3e-06  2.221306  0.0  -0.388695  -0.677319  -3.3e-05  2.263186  0.0
O  O80  1  0.65392886  0.46013186  0.77580740  1  -0.857799  -0.00038  2.003217  0.001  -1.474153  -0.000644  -0.787501  -0.000234  2.26913  0.001  -0.815404  -0.000593  2.246529  0.0  -0.37772  -0.76723  0.00017  2.283873  0.001
O  O81  1  0.34607229  0.53986733  0.22419247  1  -0.857785  0.000382  2.003258  -0.001  -1.474088  0.000645  -0.787469  0.000236  2.269136  -0.001  -0.815382  0.000592  2.24656  0.0  -0.377712  -0.767197  -0.00017  2.283879  -0.001
O  O82  1  0.43195434  0.60973024  0.88121526  1  -0.81875  0.071317  2.05104  0.093  -1.431314  0.068428  -0.772976  0.043185  2.352109  0.06  -0.813204  0.033279  2.333621  0.048  -0.381907  -0.744229  0.049893  2.364291  0.067
O  O83  1  0.56804544  0.39027256  0.11878457  1  -0.818752  -0.071306  2.051035  -0.093  -1.43129  -0.068427  -0.772997  -0.043184  2.352119  -0.06  -0.813225  -0.033279  2.33363  -0.048  -0.38193  -0.744245  -0.049893  2.364289  -0.067
O  O84  1  0.41901553  0.31104517  0.83976573  1  -0.756263  0.00087  1.994196  0.001  -1.45236  0.000567  -0.69215  0.000361  2.223493  0.001  -0.71458  0.00015  2.198926  0.0  -0.386937  -0.675945  0.000626  2.24012  0.001
O  O85  1  0.58098475  0.68895523  0.16023483  1  -0.756316  -0.00087  1.994225  -0.001  -1.452424  -0.000567  -0.692187  -0.000361  2.223508  -0.001  -0.714614  -0.00015  2.198941  0.0  -0.386942  -0.675985  -0.000626  2.240138  -0.001
O  O86  1  0.24547488  0.39925719  0.95522275  1  -0.818009  -0.052378  2.065718  -0.069  -1.435186  -0.052712  -0.771362  -0.033535  2.375697  -0.047  -0.809606  -0.026681  2.354397  -0.039  -0.385357  -0.743852  -0.037429  2.389633  -0.051
O  O87  1  0.75452577  0.60074441  0.04477796  1  -0.817967  0.052383  2.065697  0.069  -1.435264  0.05271  -0.771361  0.033534  2.375742  0.047  -0.809611  0.026681  2.354454  0.039  -0.385365  -0.74385  0.037427  2.389676  0.051
