# generated using pymatgen
data_HoH18C18(NO2)4
_symmetry_space_group_name_H-M   'P 1'
_cell_length_a   9.84784529
_cell_length_b   10.28774509
_cell_length_c   11.01027163
_cell_angle_alpha   77.32195084
_cell_angle_beta   76.51346280
_cell_angle_gamma   65.63939137
_symmetry_Int_Tables_number   1
_chemical_formula_structural   HoH18C18(NO2)4
_chemical_formula_sum   'Ho2 H36 C36 N8 O16'
_cell_volume   978.52476322
_cell_formula_units_Z   2
loop_
 _symmetry_equiv_pos_site_id
 _symmetry_equiv_pos_as_xyz
  1  'x, y, z'
loop_
 _atom_site_type_symbol
 _atom_site_label
 _atom_site_symmetry_multiplicity
 _atom_site_fract_x
 _atom_site_fract_y
 _atom_site_fract_z
 _atom_site_occupancy
 _atom_site_hle17_bader_spin_density
 _atom_site_hle17_ddec_charge
 _atom_site_hle17_ddec_spin_density
 _atom_site_hle17_ddec_sum_bond_order
 _atom_site_hle17_magmom
 _atom_site_hse06_10hf_bader_spin_density
 _atom_site_hse06_10hf_ddec_charge
 _atom_site_hse06_10hf_ddec_spin_density
 _atom_site_hse06_10hf_ddec_sum_bond_order
 _atom_site_hse06_10hf_magmom
 _atom_site_hse06_bader_spin_density
 _atom_site_hse06_ddec_charge
 _atom_site_hse06_ddec_spin_density
 _atom_site_hse06_ddec_sum_bond_order
 _atom_site_hse06_magmom
 _atom_site_pbe_bader_spin_density
 _atom_site_pbe_cm5_charge
 _atom_site_pbe_ddec_charge
 _atom_site_pbe_ddec_spin_density
 _atom_site_pbe_ddec_sum_bond_order
 _atom_site_pbe_magmom
Ho  Ho0  1  0.05546751  0.77206801  0.17559123  1  0  2.230176  0  1.672321  0  0  2.089128  0  2.151357  0  0  2.218204  0  1.959003  0  0  1.534757  2.051174  0  2.18495  0
Ho  Ho1  1  0.94453468  0.22793094  0.82440808  1  0  2.23012  0  1.672224  0  0  2.089031  0  2.151322  0  0  2.218145  0  1.958904  0  0  1.534721  2.05109  0  2.184896  0
H  H2  1  0.33616203  0.15153356  0.83949021  1  0  0.107035  0  0.975224  0  0  0.114138  0  1.040089  0  0  0.117786  0  1.037964  0  0  0.107215  0.111377  0  1.041941  0
H  H3  1  0.66384016  0.84846540  0.16051092  1  0  0.106991  0  0.975191  0  0  0.114117  0  1.040035  0  0  0.117766  0  1.037913  0  0  0.107232  0.111355  0  1.041885  0
H  H4  1  0.39310193  0.87133260  0.19152439  1  0  0.103495  0  0.954665  0  0  0.110295  0  1.020885  0  0  0.114081  0  1.018278  0  0  0.105605  0.107434  0  1.022948  0
H  H5  1  0.60689922  0.12866637  0.80847696  1  0  0.103506  0  0.954639  0  0  0.110318  0  1.020839  0  0  0.114097  0  1.018244  0  0  0.105601  0.107453  0  1.022903  0
H  H6  1  0.56565050  0.58967990  0.27435505  1  0  0.10587  0  0.931211  0  0  0.119227  0  0.98329  0  0  0.122961  0  0.980931  0  0  0.109668  0.116665  0  0.984796  0
H  H7  1  0.43434081  0.41032017  0.72565175  1  0  0.105912  0  0.931119  0  0  0.11921  0  0.983275  0  0  0.122946  0  0.980913  0  0  0.109646  0.11665  0  0.984781  0
H  H8  1  0.24305208  0.49629050  0.58182799  1  0  0.114706  0  0.955769  0  0  0.118912  0  1.024633  0  0  0.123253  0  1.021472  0  0  0.108754  0.11592  0  1.02681  0
H  H9  1  0.75694218  0.50370740  0.41817683  1  0  0.114689  0  0.955738  0  0  0.11892  0  1.024563  0  0  0.123259  0  1.021404  0  0  0.108751  0.115897  0  1.02678  0
H  H10  1  0.70638008  0.08271936  0.49390637  1  0  0.10665  0  0.931038  0  0  0.11925  0  0.984021  0  0  0.123062  0  0.981621  0  0  0.110266  0.116654  0  0.985604  0
H  H11  1  0.29362125  0.91728174  0.50609176  1  0  0.106676  0  0.931049  0  0  0.11927  0  0.984038  0  0  0.123093  0  0.981626  0  0  0.110268  0.116674  0  0.98562  0
H  H12  1  0.55110109  0.79779224  0.38531246  1  0  0.095605  0  0.976685  0  0  0.104483  0  1.04173  0  0  0.106827  0  1.04155  0  0  0.102062  0.102562  0  1.04239  0
H  H13  1  0.44889982  0.20220993  0.61468553  1  0  0.095616  0  0.976715  0  0  0.104508  0  1.041721  0  0  0.10685  0  1.041554  0  0  0.102101  0.102592  0  1.042371  0
H  H14  1  0.53644706  0.85934409  0.73249619  1  0  0.051611  0  0.964589  0  0  0.064635  0  1.033825  0  0  0.063558  0  1.037281  0  0  0.095258  0.064547  0  1.032808  0
H  H15  1  0.46355679  0.14065592  0.26750073  1  0  0.05163  0  0.964582  0  0  0.064671  0  1.033829  0  0  0.063585  0  1.037281  0  0  0.095268  0.064584  0  1.032811  0
H  H16  1  0.58220489  0.69050445  0.68377246  1  0  0.053983  0  0.942362  0  0  0.067838  0  1.00676  0  0  0.067458  0  1.008288  0  0  0.09456  0.067873  0  1.005775  0
H  H17  1  0.41779792  0.30949557  0.31622468  1  0  0.053989  0  0.942385  0  0  0.067872  0  1.006782  0  0  0.067484  0  1.008303  0  0  0.09456  0.067905  0  1.005792  0
H  H18  1  0.67554772  0.56890251  0.87471288  1  0  0.067149  0  0.962083  0  0  0.0753  0  1.032678  0  0  0.076202  0  1.032958  0  0  0.10375  0.074054  0  1.033569  0
H  H19  1  0.32445466  0.43109859  0.12528503  1  0  0.067195  0  0.962089  0  0  0.075355  0  1.032663  0  0  0.076255  0  1.032947  0  0  0.10377  0.074108  0  1.033552  0
H  H20  1  0.63636102  0.73816212  0.92026714  1  0  0.058354  0  0.947306  0  0  0.07129  0  1.01163  0  0  0.071086  0  1.013377  0  0  0.097188  0.071489  0  1.010042  0
H  H21  1  0.36364345  0.26183897  0.07972943  1  0  0.058334  0  0.947231  0  0  0.071288  0  1.011545  0  0  0.071083  0  1.013291  0  0  0.097184  0.071487  0  1.009961  0
H  H22  1  0.98283045  0.25313792  0.44996804  1  0  0.087097  0  0.942476  0  0  0.101657  0  1.001934  0  0  0.103069  0  1.001352  0  0  0.109974  0.100673  0  1.002226  0
H  H23  1  0.01717278  0.74686104  0.55003287  1  0  0.087077  0  0.942459  0  0  0.10164  0  1.001934  0  0  0.103053  0  1.001349  0  0  0.109952  0.10065  0  1.002224  0
H  H24  1  0.16030378  0.18467832  0.34899354  1  0  0.051534  0  0.924648  0  0  0.069029  0  0.98505  0  0  0.069026  0  0.985998  0  0  0.096368  0.06869  0  0.984798  0
H  H25  1  0.83969755  0.81532278  0.65100459  1  0  0.05152  0  0.924655  0  0  0.06902  0  0.985062  0  0  0.069017  0  0.986007  0  0  0.096369  0.068679  0  0.984813  0
H  H26  1  0.00707162  0.14823521  0.22678980  1  0  0.096633  0  0.952334  0  0  0.111469  0  1.008974  0  0  0.11322  0  1.008004  0  0  0.113688  0.110249  0  1.009525  0
H  H27  1  0.99292805  0.85176483  0.77321072  1  0  0.096637  0  0.952326  0  0  0.111472  0  1.00896  0  0  0.113224  0  1.007993  0  0  0.113693  0.110251  0  1.009511  0
H  H28  1  0.84174838  0.29245193  0.28315631  1  0  0.052723  0  0.942462  0  0  0.064425  0  1.013047  0  0  0.064838  0  1.013196  0  0  0.096312  0.064162  0  1.012911  0
H  H29  1  0.15825215  0.70754596  0.71684539  1  0  0.052726  0  0.942478  0  0  0.06443  0  1.01305  0  0  0.064845  0  1.0132  0  0  0.096301  0.064167  0  1.01291  0
H  H30  1  0.44814539  0.63305884  0.06658836  1  0  0.326442  0  0.91316  0  0  0.310004  0  0.971164  0  0  0.318261  0  0.963982  0  0  0.318266  0.304301  0  0.975975  0
H  H31  1  0.55185784  0.36694011  0.93341073  1  0  0.326416  0  0.913168  0  0  0.310002  0  0.971152  0  0  0.318259  0  0.963969  0  0  0.318233  0.304298  0  0.975968  0
H  H32  1  0.28343981  0.85444148  0.74910137  1  0  0.306565  0  0.908198  0  0  0.289838  0  0.972542  0  0  0.296967  0  0.967108  0  0  0.311415  0.284982  0  0.97603  0
H  H33  1  0.71656214  0.14556069  0.25089550  1  0  0.306494  0  0.908252  0  0  0.289763  0  0.972611  0  0  0.29689  0  0.967177  0  0  0.311348  0.284905  0  0.976095  0
H  H34  1  0.07751369  0.46325431  0.36432604  1  0  0.319541  0  0.902092  0  0  0.304699  0  0.957244  0  0  0.312136  0  0.951822  0  0  0.319471  0.299305  0  0.961541  0
H  H35  1  0.92248702  0.53674572  0.63567335  1  0  0.319563  0  0.902097  0  0  0.304708  0  0.957253  0  0  0.312151  0  0.951829  0  0  0.319465  0.299304  0  0.961555  0
H  H36  1  0.96696292  0.38128784  0.06187256  1  0  0.324791  0  0.897262  0  0  0.305241  0  0.960928  0  0  0.313724  0  0.953793  0  0  0.314548  0.299148  0  0.966222  0
H  H37  1  0.03303657  0.61871003  0.93812754  1  0  0.324769  0  0.897353  0  0  0.305243  0  0.96099  0  0  0.313722  0  0.953861  0  0  0.314537  0.29914  0  0.966282  0
C  C38  1  0.35045732  0.01278644  0.01761263  1  0  -0.068923  0  3.739031  0  0  -0.047629  0  3.968579  0  0  -0.053319  0  3.9875  0  0  -0.013182  -0.043573  0  3.953601  0
C  C39  1  0.64954468  0.98721037  0.98238898  1  0  -0.068963  0  3.738913  0  0  -0.047746  0  3.968668  0  0  -0.053438  0  3.987589  0  0  -0.01318  -0.043683  0  3.953673  0
C  C40  1  0.40933939  0.08523062  0.90874425  1  0  -0.077766  0  3.720974  0  0  -0.098797  0  3.968088  0  0  -0.099158  0  3.986134  0  0  -0.082853  -0.09794  0  3.955283  0
C  C41  1  0.59066071  0.91476834  0.09125731  1  0  -0.077651  0  3.720853  0  0  -0.098668  0  3.968012  0  0  -0.09903  0  3.986064  0  0  -0.082867  -0.097814  0  3.955203  0
C  C42  1  0.44135842  0.92793500  0.10885885  1  0  -0.071831  0  3.734149  0  0  -0.096572  0  3.988123  0  0  -0.096778  0  4.00624  0  0  -0.08216  -0.096083  0  3.975537  0
C  C43  1  0.55864168  0.07206395  0.89114180  1  0  -0.071804  0  3.734069  0  0  -0.096508  0  3.988047  0  0  -0.096712  0  4.006165  0  0  -0.082159  -0.096025  0  3.975463  0
C  C44  1  0.19195376  0.02219681  0.03367728  1  0  0.736643  0  3.854072  0  0  0.6898  0  4.142162  0  0  0.726615  0  4.133361  0  0  0.243682  0.665797  0  4.14915  0
C  C45  1  0.80804629  0.97780753  0.96632045  1  0  0.736706  0  3.853894  0  0  0.68975  0  4.142179  0  0  0.726568  0  4.13338  0  0  0.243669  0.665753  0  4.149143  0
C  C46  1  0.39239987  0.54978255  0.41956902  1  0  -0.054694  0  3.745697  0  0  -0.032419  0  3.976665  0  0  -0.038074  0  3.997657  0  0  -0.01341  -0.028451  0  3.96151  0
C  C47  1  0.60759482  0.45021427  0.58043594  1  0  -0.054577  0  3.745537  0  0  -0.032308  0  3.976481  0  0  -0.037963  0  3.997471  0  0  -0.013394  -0.028356  0  3.961351  0
C  C48  1  0.53798511  0.54965549  0.37331802  1  0  -0.063464  0  3.711081  0  0  -0.087126  0  3.963181  0  0  -0.087327  0  3.980949  0  0  -0.07758  -0.086356  0  3.950225  0
C  C49  1  0.46200873  0.45034348  0.62668667  1  0  -0.063562  0  3.71108  0  0  -0.087177  0  3.963171  0  0  -0.087377  0  3.980934  0  0  -0.077575  -0.086407  0  3.950233  0
C  C50  1  0.35493932  0.49928951  0.54688879  1  0  -0.066812  0  3.703576  0  0  -0.090196  0  3.957015  0  0  -0.090632  0  3.974977  0  0  -0.077012  -0.089742  0  3.944637  0
C  C51  1  0.64505390  0.50070839  0.45311625  1  0  -0.066864  0  3.703421  0  0  -0.090259  0  3.956878  0  0  -0.090696  0  3.974842  0  0  -0.077032  -0.089776  0  3.944537  0
C  C52  1  0.64404431  0.93303530  0.43216096  1  0  -0.055416  0  3.738254  0  0  -0.03297  0  3.968802  0  0  -0.037604  0  3.987894  0  0  -0.013669  -0.029297  0  3.95478  0
C  C53  1  0.35595746  0.06696471  0.56783549  1  0  -0.055371  0  3.738352  0  0  -0.03286  0  3.968792  0  0  -0.037492  0  3.987888  0  0  -0.013632  -0.029186  0  3.954771  0
C  C54  1  0.61545298  0.04685442  0.49739045  1  0  -0.077534  0  3.731117  0  0  -0.100184  0  3.982864  0  0  -0.100222  0  3.999902  0  0  -0.079963  -0.099912  0  3.97055  0
C  C55  1  0.38454836  0.95314667  0.50260677  1  0  -0.077619  0  3.731263  0  0  -0.100287  0  3.983005  0  0  -0.100338  0  4.000042  0  0  -0.080009  -0.100021  0  3.970696  0
C  C56  1  0.52761387  0.88658877  0.43568261  1  0  -0.071821  0  3.728241  0  0  -0.095158  0  3.978475  0  0  -0.09585  0  3.998173  0  0  -0.079384  -0.094565  0  3.965368  0
C  C57  1  0.47238704  0.11341340  0.56431448  1  0  -0.071899  0  3.728266  0  0  -0.095263  0  3.978495  0  0  -0.095958  0  3.998186  0  0  -0.079476  -0.09467  0  3.965382  0
C  C58  1  0.79459197  0.86731989  0.35273707  1  0  0.624415  0  3.95548  0  0  0.580801  0  4.248287  0  0  0.613066  0  4.249007  0  0  0.188294  0.558238  0  4.252709  0
C  C59  1  0.20540850  0.13268335  0.64725897  1  0  0.6243  0  3.955515  0  0  0.580678  0  4.248295  0  0  0.612943  0  4.249019  0  0  0.188299  0.558114  0  4.252726  0
C  C60  1  0.32936585  0.72713850  0.91865097  1  0  0.743945  0  3.890738  0  0  0.677051  0  4.191202  0  0  0.712444  0  4.186388  0  0  0.338139  0.653503  0  4.195028  0
C  C61  1  0.67064218  0.27286152  0.08134599  1  0  0.744168  0  3.890468  0  0  0.677226  0  4.190973  0  0  0.712614  0  4.186166  0  0  0.338178  0.653672  0  4.194814  0
C  C62  1  0.52466880  0.75493727  0.76153161  1  0  0.044537  0  3.608874  0  0  -0.014047  0  3.872023  0  0  -0.010191  0  3.884966  0  0  -0.058793  -0.016341  0  3.863662  0
C  C63  1  0.47533210  0.24506490  0.23846548  1  0  0.044494  0  3.609066  0  0  -0.014178  0  3.872333  0  0  -0.010284  0  3.885226  0  0  -0.058856  -0.016479  0  3.863975  0
C  C64  1  0.58831336  0.67641262  0.88581918  1  0  0.044022  0  3.592155  0  0  -0.007859  0  3.84609  0  0  -0.003742  0  3.856553  0  0  -0.055919  -0.010372  0  3.838513  0
C  C65  1  0.41168859  0.32358956  0.11417950  1  0  0.044004  0  3.592119  0  0  -0.007883  0  3.846102  0  0  -0.003778  0  3.856559  0  0  -0.055931  -0.010406  0  3.838539  0
C  C66  1  0.04349292  0.26551458  0.35402601  1  0  0.044042  0  3.603373  0  0  -0.014486  0  3.866925  0  0  -0.010525  0  3.87731  0  0  -0.05261  -0.016622  0  3.859085  0
C  C67  1  0.95650780  0.73448545  0.64597338  1  0  0.044114  0  3.603295  0  0  -0.01447  0  3.866893  0  0  -0.01049  0  3.877272  0  0  -0.052633  -0.016624  0  3.859043  0
C  C68  1  0.96480276  0.25641186  0.25251960  1  0  0.037591  0  3.593646  0  0  -0.02094  0  3.857401  0  0  -0.01646  0  3.866326  0  0  -0.056235  -0.023568  0  3.850479  0
C  C69  1  0.03519796  0.74358818  0.74748161  1  0  0.037585  0  3.593588  0  0  -0.020917  0  3.857323  0  0  -0.016447  0  3.866258  0  0  -0.056203  -0.023548  0  3.850396  0
C  C70  1  0.03036377  0.45551612  0.19256806  1  0  0.739729  0  3.893382  0  0  0.672462  0  4.19477  0  0  0.707303  0  4.191954  0  0  0.341801  0.649015  0  4.197657  0
C  C71  1  0.96963449  0.54447960  0.80743366  1  0  0.73985  0  3.893183  0  0  0.672518  0  4.194675  0  0  0.707367  0  4.191857  0  0  0.341844  0.649055  0  4.197558  0
C  C72  1  0.27711953  0.60725078  0.33379436  1  0  0.629099  0  3.951102  0  0  0.584444  0  4.243501  0  0  0.616675  0  4.244116  0  0  0.199188  0.561969  0  4.248527  0
C  C73  1  0.72287241  0.39275033  0.66620665  1  0  0.62904  0  3.951241  0  0  0.584411  0  4.243602  0  0  0.616645  0  4.244215  0  0  0.199176  0.561938  0  4.248647  0
N  N74  1  0.45560778  0.66613701  0.97181906  1  0  -0.48822  0  3.270958  0  0  -0.427942  0  3.519225  0  0  -0.448838  0  3.524263  0  0  -0.433336  -0.41388  0  3.514605  0
N  N75  1  0.54439122  0.33386733  0.02817978  1  0  -0.488248  0  3.270685  0  0  -0.427968  0  3.518925  0  0  -0.448867  0  3.523966  0  0  -0.433323  -0.413899  0  3.514312  0
N  N76  1  0.36556302  0.77300692  0.79359234  1  0  -0.496041  0  3.190215  0  0  -0.438203  0  3.443165  0  0  -0.45869  0  3.447976  0  0  -0.435874  -0.424591  0  3.439022  0
N  N77  1  0.63443788  0.22699528  0.20640929  1  0  -0.49607  0  3.19021  0  0  -0.438199  0  3.443193  0  0  -0.458691  0  3.447994  0  0  -0.435804  -0.424581  0  3.439046  0
N  N78  1  0.04322135  0.41109094  0.31624267  1  0  -0.485031  0  3.224761  0  0  -0.424048  0  3.475158  0  0  -0.444603  0  3.480189  0  0  -0.427293  -0.410183  0  3.471822  0
N  N79  1  0.95677852  0.58891123  0.68375555  1  0  -0.485194  0  3.224724  0  0  -0.42412  0  3.475106  0  0  -0.444704  0  3.480157  0  0  -0.427309  -0.410204  0  3.471746  0
N  N80  1  0.00036377  0.35931631  0.14788156  1  0  -0.477204  0  3.184048  0  0  -0.416076  0  3.432425  0  0  -0.436399  0  3.435151  0  0  -0.425012  -0.401911  0  3.429297  0
N  N81  1  0.99963713  0.64068589  0.85212097  1  0  -0.477223  0  3.183899  0  0  -0.416101  0  3.432271  0  0  -0.436418  0  3.435003  0  0  -0.425046  -0.401934  0  3.429142  0
O  O82  1  0.14318508  0.95191048  0.13172158  1  0  -0.745069  0  2.067101  0  0  -0.694478  0  2.32436  0  0  -0.731977  0  2.30802  0  0  -0.408933  -0.676367  0  2.33243  0
O  O83  1  0.85681483  0.04808633  0.86828138  1  0  -0.744977  0  2.067135  0  0  -0.694342  0  2.324484  0  0  -0.731834  0  2.308114  0  0  -0.408891  -0.676249  0  2.332566  0
O  O84  1  0.11591582  0.09890934  0.94739036  1  0  -0.741145  0  2.101911  0  0  -0.694191  0  2.376207  0  0  -0.73247  0  2.358587  0  0  -0.422482  -0.676294  0  2.384648  0
O  O85  1  0.88408741  0.90108965  0.05261418  1  0  -0.741252  0  2.101731  0  0  -0.694257  0  2.376084  0  0  -0.732533  0  2.358468  0  0  -0.422525  -0.676365  0  2.38452  0
O  O86  1  0.13954382  0.62292370  0.37653131  1  0  -0.694954  0  1.988564  0  0  -0.647653  0  2.224046  0  0  -0.679229  0  2.215435  0  0  -0.357526  -0.631318  0  2.229928  0
O  O87  1  0.86044769  0.37707847  0.62346774  1  0  -0.694905  0  1.988531  0  0  -0.647633  0  2.224044  0  0  -0.679212  0  2.215428  0  0  -0.357553  -0.631297  0  2.229929  0
O  O88  1  0.82994009  0.74806556  0.31380284  1  0  -0.677118  0  1.972944  0  0  -0.63424  0  2.211585  0  0  -0.666493  0  2.203172  0  0  -0.368151  -0.617339  0  2.216767  0
O  O89  1  0.17005892  0.25193875  0.68619147  1  0  -0.677004  0  1.972912  0  0  -0.634136  0  2.211564  0  0  -0.666389  0  2.203147  0  0  -0.368142  -0.617234  0  2.216754  0
O  O90  1  0.88297383  0.93689640  0.32053827  1  0  -0.705592  0  1.938748  0  0  -0.660261  0  2.173117  0  0  -0.693037  0  2.162783  0  0  -0.381867  -0.643663  0  2.179129  0
O  O91  1  0.11702750  0.06310471  0.67946077  1  0  -0.705609  0  1.938679  0  0  -0.660273  0  2.173047  0  0  -0.693055  0  2.162712  0  0  -0.381909  -0.643672  0  2.179065  0
O  O92  1  0.19811310  0.73850375  0.97344279  1  0  -0.722455  0  2.025281  0  0  -0.674219  0  2.28717  0  0  -0.707003  0  2.272444  0  0  -0.391189  -0.659014  0  2.295159  0
O  O93  1  0.80188429  0.26149415  0.02656229  1  0  -0.722542  0  2.025383  0  0  -0.674245  0  2.28725  0  0  -0.707026  0  2.272526  0  0  -0.391182  -0.659037  0  2.295247  0
O  O94  1  0.04742614  0.56785067  0.12763853  1  0  -0.751087  0  2.056385  0  0  -0.70131  0  2.320694  0  0  -0.735474  0  2.304146  0  0  -0.400179  -0.685018  0  2.329381  0
O  O95  1  0.95257808  0.43215367  0.87236103  1  0  -0.751056  0  2.056529  0  0  -0.701277  0  2.320872  0  0  -0.735463  0  2.304358  0  0  -0.40015  -0.68501  0  2.329606  0
O  O96  1  0.31565027  0.64547501  0.21659879  1  0  -0.711748  0  2.071931  0  0  -0.664351  0  2.321181  0  0  -0.697667  0  2.313222  0  0  -0.365524  -0.647298  0  2.326967  0
O  O97  1  0.68434277  0.35452070  0.78340130  1  0  -0.711792  0  2.072085  0  0  -0.664404  0  2.321344  0  0  -0.697725  0  2.31339  0  0  -0.365478  -0.647328  0  2.327103  0
