# generated using pymatgen
data_FeH30C30(NO2)4
_symmetry_space_group_name_H-M   'P 1'
_cell_length_a   11.09269041
_cell_length_b   16.03480786
_cell_length_c   19.27404434
_cell_angle_alpha   90.00041510
_cell_angle_beta   94.99633254
_cell_angle_gamma   89.99976502
_symmetry_Int_Tables_number   1
_chemical_formula_structural   FeH30C30(NO2)4
_chemical_formula_sum   'Fe4 H120 C120 N16 O32'
_cell_volume   3415.23162526
_cell_formula_units_Z   4
loop_
 _symmetry_equiv_pos_site_id
 _symmetry_equiv_pos_as_xyz
  1  'x, y, z'
loop_
 _atom_site_type_symbol
 _atom_site_label
 _atom_site_symmetry_multiplicity
 _atom_site_fract_x
 _atom_site_fract_y
 _atom_site_fract_z
 _atom_site_occupancy
 _atom_site_pbe_bader_charge
 _atom_site_pbe_bader_spin_density
 _atom_site_pbe_cm5_charge
 _atom_site_pbe_ddec_charge
 _atom_site_pbe_ddec_spin_density
 _atom_site_pbe_ddec_sum_bond_order
 _atom_site_pbe_magmom
Fe  Fe0  1  0.39720637  0.73962947  0.07640365  1  1.201235  0  0.789652  0.490652  0  3.690125  0
Fe  Fe1  1  0.10279475  0.23962727  0.42359729  1  1.20123  0  0.789759  0.490803  0  3.690032  0
Fe  Fe2  1  0.60279836  0.26037423  0.92359390  1  1.201183  0  0.789731  0.490675  0  3.690198  0
Fe  Fe3  1  0.89720270  0.76037145  0.57640297  1  1.201223  0  0.789709  0.490742  0  3.689981  0
H  H4  1  0.35789148  0.05116949  0.30107415  1  0.624356  0  0.345234  0.378743  0  0.856842  0
H  H5  1  0.14210965  0.55116411  0.19892928  1  0.624375  0  0.345231  0.378735  0  0.856905  0
H  H6  1  0.64210238  0.94883546  0.69892331  1  0.624232  0  0.34517  0.378589  0  0.85698  0
H  H7  1  0.85789316  0.44883897  0.80107543  1  0.624263  0  0.345157  0.378554  0  0.857003  0
H  H8  1  0.34661718  0.16157750  0.16999965  1  0.633586  0  0.337999  0.376643  0  0.869369  0
H  H9  1  0.15338248  0.66157260  0.33000385  1  0.633697  0  0.338014  0.376716  0  0.869258  0
H  H10  1  0.65336400  0.83842434  0.82999815  1  0.633518  0  0.337991  0.376667  0  0.869453  0
H  H11  1  0.84663390  0.33842487  0.67000161  1  0.633525  0  0.338038  0.376713  0  0.869385  0
H  H12  1  0.43000718  0.79089376  0.27318705  1  0.090227  0  0.111242  0.082319  0  1.025959  0
H  H13  1  0.06999004  0.29089056  0.22681502  1  0.089961  0  0.111234  0.082318  0  1.025867  0
H  H14  1  0.56999119  0.20910870  0.72681222  1  0.089882  0  0.111257  0.082299  0  1.025992  0
H  H15  1  0.93001193  0.70911065  0.77318496  1  0.089956  0  0.111233  0.08231  0  1.025899  0
H  H16  1  0.38716853  0.91031275  0.26948749  1  0.070609  0  0.108802  0.130826  0  1.004405  0
H  H17  1  0.11283441  0.41030698  0.23051563  1  0.070594  0  0.108826  0.130863  0  1.004432  0
H  H18  1  0.61282624  0.08969095  0.73051055  1  0.070476  0  0.108805  0.130882  0  1.004309  0
H  H19  1  0.88717024  0.58969423  0.76948710  1  0.070507  0  0.10885  0.130897  0  1.004372  0
H  H20  1  0.35662991  0.02356211  0.02737775  1  0.09955  0  0.111285  0.137627  0  0.996205  0
H  H21  1  0.14336410  0.52355973  0.47262667  1  0.099363  0  0.11136  0.137694  0  0.996139  0
H  H22  1  0.64336665  0.97644097  0.97262091  1  0.099602  0  0.1113  0.137645  0  0.996215  0
H  H23  1  0.85663509  0.47643649  0.52737783  1  0.09954  0  0.111312  0.13766  0  0.996227  0
H  H24  1  0.35949220  0.93309684  0.95672608  1  0.092168  0  0.113783  0.076193  0  1.036078  0
H  H25  1  0.14050108  0.43309497  0.54327853  1  0.092145  0  0.113751  0.076168  0  1.036026  0
H  H26  1  0.64051614  0.06690562  0.04327271  1  0.09221  0  0.113736  0.076159  0  1.036051  0
H  H27  1  0.85948815  0.56690125  0.45672542  1  0.092153  0  0.113791  0.076238  0  1.03619  0
H  H28  1  0.45739631  0.66240196  0.83909339  1  0.056459  0  0.099733  0.152961  0  0.98281  0
H  H29  1  0.04260293  0.16240014  0.66090731  1  0.056147  0  0.099731  0.152977  0  0.982821  0
H  H30  1  0.54260478  0.33759800  0.16090551  1  0.056366  0  0.099709  0.152903  0  0.982784  0
H  H31  1  0.95739454  0.83759109  0.33909139  1  0.056519  0  0.099701  0.152927  0  0.982799  0
H  H32  1  0.30093464  0.67879583  0.82575212  1  0.076837  0  0.094883  0.141515  0  1.016549  0
H  H33  1  0.19906451  0.17879307  0.67424920  1  0.076641  0  0.094883  0.141523  0  1.016516  0
H  H34  1  0.69906642  0.32120663  0.17424834  1  0.076609  0  0.094875  0.141512  0  1.016519  0
H  H35  1  0.80093116  0.82119879  0.32574888  1  0.076724  0  0.094858  0.141424  0  1.016589  0
H  H36  1  0.35874892  0.59869839  0.88556149  1  0.043646  0  0.098456  0.148756  0  0.98589  0
H  H37  1  0.14124974  0.09869589  0.61443828  1  0.043729  0  0.098439  0.148733  0  0.985923  0
H  H38  1  0.64125124  0.40130345  0.11443840  1  0.043733  0  0.09845  0.148743  0  0.985898  0
H  H39  1  0.85874684  0.90129784  0.38555882  1  0.043673  0  0.098446  0.148767  0  0.985846  0
H  H40  1  0.41613822  0.48465129  0.13909581  1  0.100182  0  0.098287  0.150097  0  0.987946  0
H  H41  1  0.08386802  0.98464873  0.36090327  1  0.100299  0  0.098268  0.150054  0  0.987924  0
H  H42  1  0.58386192  0.51535054  0.86090564  1  0.100125  0  0.09833  0.150119  0  0.987924  0
H  H43  1  0.91613489  0.01535123  0.63909470  1  0.10013  0  0.098301  0.150061  0  0.987937  0
H  H44  1  0.36384743  0.49065743  0.22513101  1  0.073856  0  0.090001  0.133155  0  1.033449  0
H  H45  1  0.13615699  0.99065335  0.27486696  1  0.073732  0  0.089969  0.13306  0  1.033494  0
H  H46  1  0.63615633  0.50934815  0.77487063  1  0.073774  0  0.089954  0.133129  0  1.033421  0
H  H47  1  0.86384141  0.00934849  0.72513023  1  0.073819  0  0.089942  0.133096  0  1.033466  0
H  H48  1  0.51916589  0.49551472  0.21537611  1  0.058687  0  0.098529  0.145957  0  1.006999  0
H  H49  1  0.98083891  0.99551102  0.28462413  1  0.058714  0  0.098487  0.145899  0  1.006918  0
H  H50  1  0.48083789  0.50448773  0.78462398  1  0.058698  0  0.09849  0.145931  0  1.006996  0
H  H51  1  0.01916033  0.00448770  0.71537726  1  0.058633  0  0.098501  0.145918  0  1.006938  0
H  H52  1  0.23224539  0.94150155  0.74220047  1  0.035031  0  0.099649  0.063133  0  0.977316  0
H  H53  1  0.26775600  0.44150244  0.75780360  1  0.035009  0  0.099638  0.063079  0  0.977271  0
H  H54  1  0.76775480  0.05850028  0.25779786  1  0.035041  0  0.099643  0.063111  0  0.977297  0
H  H55  1  0.73224140  0.55848879  0.24219925  1  0.035027  0  0.099668  0.063121  0  0.977288  0
H  H56  1  0.39182102  0.95518287  0.75398849  1  0.064097  0  0.095702  0.055761  0  1.017327  0
H  H57  1  0.10818029  0.45518160  0.74601670  1  0.063783  0  0.09568  0.05571  0  1.017297  0
H  H58  1  0.60817824  0.04482022  0.24601135  1  0.064075  0  0.095684  0.055723  0  1.017348  0
H  H59  1  0.89181889  0.54480215  0.25398832  1  0.06442  0  0.09571  0.055732  0  1.017357  0
H  H60  1  0.20152282  0.06944094  0.81385913  1  0.017371  0  0.088156  0.121765  0  1.018999  0
H  H61  1  0.29847146  0.56943876  0.68614178  1  0.017489  0  0.088172  0.121805  0  1.019061  0
H  H62  1  0.79847194  0.93055965  0.18613942  1  0.01739  0  0.088162  0.121777  0  1.019032  0
H  H63  1  0.70151324  0.43055497  0.31386296  1  0.01707  0  0.088082  0.121684  0  1.019019  0
H  H64  1  0.29188639  0.09484837  0.74510888  1  0.039242  0  0.09155  0.126219  0  1.018713  0
H  H65  1  0.20811225  0.59484828  0.75489397  1  0.039285  0  0.091537  0.126215  0  1.018757  0
H  H66  1  0.70811376  0.90515409  0.25489204  1  0.039244  0  0.091558  0.126231  0  1.018691  0
H  H67  1  0.79187511  0.40513921  0.24511351  1  0.039272  0  0.091524  0.126207  0  1.018824  0
H  H68  1  0.36139367  0.08092581  0.83088523  1  0.050127  0  0.088113  0.126614  0  1.021024  0
H  H69  1  0.13860050  0.58092205  0.66911834  1  0.050174  0  0.08813  0.126645  0  1.021021  0
H  H70  1  0.63860194  0.91907478  0.16911649  1  0.050123  0  0.088098  0.126599  0  1.021003  0
H  H71  1  0.86138323  0.41906606  0.33088998  1  0.050124  0  0.088123  0.126662  0  1.020958  0
H  H72  1  0.40883029  0.57173934  0.42591983  1  0.052347  0  0.099522  0.06214  0  1.002196  0
H  H73  1  0.09116894  0.07173414  0.07408206  1  0.052444  0  0.099476  0.062037  0  1.002318  0
H  H74  1  0.59117437  0.42826873  0.57408187  1  0.052669  0  0.099491  0.062041  0  1.002293  0
H  H75  1  0.90882578  0.92826894  0.92591856  1  0.052676  0  0.099504  0.062067  0  1.002286  0
H  H76  1  0.56786717  0.56432522  0.41994560  1  0.064928  0  0.100382  0.066008  0  0.977568  0
H  H77  1  0.93213256  0.06432099  0.08005537  1  0.064969  0  0.100391  0.065986  0  0.977591  0
H  H78  1  0.43213839  0.43567910  0.58005666  1  0.064952  0  0.100376  0.065938  0  0.977678  0
H  H79  1  0.06786220  0.93567835  0.91994267  1  0.06449  0  0.10038  0.06596  0  0.977681  0
H  H80  1  0.38168869  0.42483377  0.38034354  1  0.083282  0  0.087417  0.125429  0  1.019699  0
H  H81  1  0.11831148  0.92483027  0.11965795  1  0.083205  0  0.087424  0.125424  0  1.019682  0
H  H82  1  0.61831050  0.57517305  0.61966096  1  0.083126  0  0.087402  0.125413  0  1.019711  0
H  H83  1  0.88168870  0.07517281  0.88034090  1  0.083115  0  0.087419  0.125432  0  1.019689  0
H  H84  1  0.48236806  0.42657019  0.45712736  1  0.014571  0  0.089159  0.121462  0  1.032582  0
H  H85  1  0.01763212  0.92656692  0.04287311  1  0.014574  0  0.089171  0.121484  0  1.032583  0
H  H86  1  0.51762840  0.57343601  0.54287752  1  0.014439  0  0.089149  0.121477  0  1.032472  0
H  H87  1  0.98236716  0.07343553  0.95712569  1  0.01459  0  0.089157  0.121506  0  1.032568  0
H  H88  1  0.54085470  0.41649542  0.37479155  1  0.044716  0  0.086608  0.118608  0  1.023077  0
H  H89  1  0.95914506  0.91649164  0.12520897  1  0.043416  0  0.086573  0.118603  0  1.023079  0
H  H90  1  0.45914536  0.58350642  0.62521456  1  0.044655  0  0.08658  0.118597  0  1.023078  0
H  H91  1  0.04085421  0.08350770  0.87478983  1  0.043559  0  0.086568  0.118583  0  1.023143  0
H  H92  1  0.97087278  0.76085822  0.96408862  1  0.154022  0  0.106942  0.128141  0  1.057893  0
H  H93  1  0.52912732  0.26085785  0.53591131  1  0.153882  0  0.106944  0.128173  0  1.057887  0
H  H94  1  0.02913471  0.23913925  0.03590648  1  0.154017  0  0.106974  0.128177  0  1.057869  0
H  H95  1  0.47086648  0.73914336  0.46408979  1  0.153956  0  0.106934  0.128136  0  1.057898  0
H  H96  1  0.18964970  0.76047829  0.96909062  1  0.111856  0  0.11467  0.079238  0  1.052499  0
H  H97  1  0.31034905  0.26047397  0.53090909  1  0.11185  0  0.114677  0.079269  0  1.05244  0
H  H98  1  0.81035595  0.23952292  0.03090594  1  0.112037  0  0.114661  0.079238  0  1.052586  0
H  H99  1  0.68964387  0.73952662  0.46909039  1  0.111926  0  0.114684  0.079253  0  1.052445  0
H  H100  1  0.22251586  0.70469866  0.18036753  1  0.116922  0  0.111811  0.076171  0  1.067036  0
H  H101  1  0.27748552  0.20471066  0.31962802  1  0.117028  0  0.11178  0.076151  0  1.067034  0
H  H102  1  0.77748981  0.29529881  0.81962800  1  0.116794  0  0.111808  0.07615  0  1.067067  0
H  H103  1  0.72251195  0.79529430  0.68037016  1  0.116821  0  0.111759  0.076151  0  1.067037  0
H  H104  1  0.00313732  0.70663041  0.18593799  1  0.116887  0  0.106781  0.122875  0  1.034176  0
H  H105  1  0.49686586  0.20664799  0.31405767  1  0.11697  0  0.106758  0.122907  0  1.034169  0
H  H106  1  0.99686838  0.29336144  0.81405598  1  0.116866  0  0.106757  0.122876  0  1.034122  0
H  H107  1  0.50313340  0.79335821  0.68594217  1  0.116945  0  0.106772  0.1229  0  1.03417  0
H  H108  1  0.79205627  0.79305347  0.97212119  1  0.11925  0  0.106801  0.118305  0  1.033588  0
H  H109  1  0.70794365  0.29305440  0.52787997  1  0.119208  0  0.106819  0.118391  0  1.033592  0
H  H110  1  0.20794850  0.20694650  0.02787429  1  0.119396  0  0.106819  0.118359  0  1.033614  0
H  H111  1  0.29205466  0.70694245  0.47212293  1  0.119492  0  0.106808  0.118372  0  1.033568  0
H  H112  1  0.57394762  0.79493595  0.97740030  1  0.128702  0  0.11202  0.076865  0  1.07609  0
H  H113  1  0.92605228  0.29493124  0.52260190  1  0.128709  0  0.112026  0.076897  0  1.076041  0
H  H114  1  0.42605712  0.20506900  0.02259725  1  0.128751  0  0.112014  0.076904  0  1.076126  0
H  H115  1  0.07394603  0.70506312  0.47740100  1  0.128701  0  0.11203  0.076829  0  1.07612  0
H  H116  1  0.60302468  0.69485328  0.17722429  1  0.107651  0  0.111603  0.072402  0  1.072254  0
H  H117  1  0.89697530  0.19484689  0.32277697  1  0.107618  0  0.111561  0.072384  0  1.072201  0
H  H118  1  0.39698005  0.30515167  0.82277326  1  0.10749  0  0.111627  0.072418  0  1.072256  0
H  H119  1  0.10302033  0.80515307  0.67722371  1  0.107548  0  0.111638  0.07243  0  1.072244  0
H  H120  1  0.82238436  0.68907057  0.18109176  1  0.133309  0  0.104481  0.11692  0  1.063414  0
H  H121  1  0.67761477  0.18907162  0.31890734  1  0.133265  0  0.104483  0.116919  0  1.063443  0
H  H122  1  0.17762040  0.31092690  0.81890371  1  0.133166  0  0.104436  0.116881  0  1.06346  0
H  H123  1  0.32238086  0.81093084  0.68109334  1  0.133224  0  0.104445  0.116862  0  1.063468  0
C  C124  1  0.42237031  0.60694853  0.18056498  1  0.758885  0  0.122863  0.413508  0  3.968171  0
C  C125  1  0.07763331  0.10694674  0.31943477  1  0.759023  0  0.122848  0.413548  0  3.968295  0
C  C126  1  0.57763347  0.39305392  0.81943511  1  0.759012  0  0.122988  0.413898  0  3.968057  0
C  C127  1  0.92236326  0.89305384  0.68056388  1  0.758704  0  0.122845  0.413546  0  3.968089  0
C  C128  1  0.43139848  0.66633644  0.23665801  1  0.020363  0  -0.074696  -0.335926  0  4.052584  0
C  C129  1  0.06860483  0.16633482  0.26334209  1  0.02074  0  -0.074755  -0.33601  0  4.052667  0
C  C130  1  0.56860622  0.33366539  0.76334161  1  0.020818  0  -0.074713  -0.336078  0  4.052629  0
C  C131  1  0.93139535  0.83366577  0.73665728  1  0.020787  0  -0.074775  -0.336071  0  4.05264  0
C  C132  1  0.42204894  0.75403749  0.22526611  1  0.484731  0  0.045895  0.094168  0  3.973208  0
C  C133  1  0.07795119  0.25403344  0.27473538  1  0.485124  0  0.045794  0.094112  0  3.973215  0
C  C134  1  0.57795395  0.24596622  0.77473289  1  0.484972  0  0.04582  0.094249  0  3.973251  0
C  C135  1  0.92204897  0.74596715  0.72526503  1  0.485013  0  0.045819  0.094172  0  3.97315  0
C  C136  1  0.38950600  0.87904280  0.15965656  1  0.41642  0  0.079507  0.133199  0  4.050139  0
C  C137  1  0.11049438  0.37903923  0.34034623  1  0.416155  0  0.079402  0.132998  0  4.050075  0
C  C138  1  0.61049327  0.12096090  0.84034276  1  0.416442  0  0.079465  0.133129  0  4.050066  0
C  C139  1  0.88950485  0.62096073  0.65965569  1  0.416164  0  0.079416  0.133074  0  4.049982  0
C  C140  1  0.38154741  0.93362681  0.21612360  1  -0.002445  0  -0.115728  -0.30341  0  4.038832  0
C  C141  1  0.11845269  0.43362335  0.28387950  1  -0.002074  0  -0.115785  -0.303545  0  4.038982  0
C  C142  1  0.61844825  0.06637565  0.78387500  1  -0.002312  0  -0.115775  -0.303577  0  4.038828  0
C  C143  1  0.88154833  0.56637661  0.71612355  1  -0.002084  0  -0.115826  -0.303551  0  4.038915  0
C  C144  1  0.36577474  0.01835545  0.20414847  1  0.453706  0  0.057253  0.179646  0  4.144917  0
C  C145  1  0.13422655  0.51835156  0.29585528  1  0.454207  0  0.057402  0.179869  0  4.144764  0
C  C146  1  0.63422182  0.98164701  0.79585018  1  0.453886  0  0.057239  0.179681  0  4.144865  0
C  C147  1  0.86577809  0.48164778  0.70414849  1  0.454089  0  0.0572  0.179563  0  4.144899  0
C  C148  1  0.35776876  0.05040543  0.13571221  1  0.49342  0  0.066783  0.211731  0  4.091388  0
C  C149  1  0.14222964  0.55040087  0.36429210  1  0.493297  0  0.066724  0.211754  0  4.091485  0
C  C150  1  0.64222781  0.94959827  0.86428592  1  0.493131  0  0.066727  0.211682  0  4.091437  0
C  C151  1  0.85777225  0.44959722  0.63571307  1  0.493416  0  0.066811  0.211798  0  4.09133  0
C  C152  1  0.36433022  0.99678447  0.07951902  1  -0.048995  0  -0.10944  -0.278511  0  3.972045  0
C  C153  1  0.13566683  0.49678090  0.42048481  1  -0.049079  0  -0.10948  -0.278646  0  3.972034  0
C  C154  1  0.63566725  0.00321862  0.92047968  1  -0.048952  0  -0.109465  -0.278569  0  3.972041  0
C  C155  1  0.86433328  0.50321595  0.57951871  1  -0.04898  0  -0.10947  -0.278616  0  3.972121  0
C  C156  1  0.37906831  0.91065188  0.09081745  1  0.38782  0  0.079574  0.128329  0  4.044109  0
C  C157  1  0.12092557  0.41064825  0.40918569  1  0.387897  0  0.079589  0.128489  0  4.043989  0
C  C158  1  0.62093278  0.08935183  0.90918146  1  0.387941  0  0.079596  0.128363  0  4.0441  0
C  C159  1  0.87906822  0.58934922  0.59081645  1  0.387772  0  0.079585  0.128422  0  4.044023  0
C  C160  1  0.36985605  0.86772785  0.97193121  1  0.522076  0  0.04861  0.095271  0  3.985259  0
C  C161  1  0.13013938  0.36772526  0.52807209  1  0.522104  0  0.048665  0.095284  0  3.985279  0
C  C162  1  0.63015138  0.13227523  0.02806753  1  0.521551  0  0.048633  0.095327  0  3.985142  0
C  C163  1  0.86985441  0.63227096  0.47192952  1  0.521985  0  0.048562  0.095133  0  3.985517  0
C  C164  1  0.37073888  0.80991401  0.91589489  1  -0.061  0  -0.069792  -0.327212  0  4.053459  0
C  C165  1  0.12925869  0.30991065  0.58410714  1  -0.061339  0  -0.069731  -0.327061  0  4.053249  0
C  C166  1  0.62926765  0.19008908  0.08410379  1  -0.061045  0  -0.069799  -0.327193  0  4.053246  0
C  C167  1  0.87073604  0.69008183  0.41589297  1  -0.061102  0  -0.069709  -0.327024  0  4.053201  0
C  C168  1  0.38048536  0.72136230  0.92579163  1  0.800416  0  0.128034  0.421705  0  3.96385  0
C  C169  1  0.11951356  0.22135952  0.57421046  1  0.800548  0  0.127949  0.421605  0  3.963737  0
C  C170  1  0.61952114  0.27864078  0.07420861  1  0.800562  0  0.128072  0.421691  0  3.963687  0
C  C171  1  0.88048299  0.77863546  0.42578923  1  0.800567  0  0.127995  0.421632  0  3.963785  0
C  C172  1  0.37348502  0.66147421  0.86543119  1  -0.078254  0  -0.244029  -0.474598  0  3.938395  0
C  C173  1  0.12651423  0.16147068  0.63456951  1  -0.077803  0  -0.244028  -0.474639  0  3.938412  0
C  C174  1  0.62651696  0.33852887  0.13456880  1  -0.077949  0  -0.243994  -0.474522  0  3.93828  0
C  C175  1  0.87348235  0.83852118  0.36542862  1  -0.078246  0  -0.243971  -0.474506  0  3.938416  0
C  C176  1  0.43009374  0.51371265  0.19061693  1  -0.144959  0  -0.247435  -0.479047  0  3.948689  0
C  C177  1  0.06991126  0.01370955  0.30938285  1  -0.145068  0  -0.247316  -0.478805  0  3.948436  0
C  C178  1  0.56990914  0.48629043  0.80938310  1  -0.144932  0  -0.247359  -0.479052  0  3.948532  0
C  C179  1  0.93008799  0.98629042  0.69061751  1  -0.144887  0  -0.247328  -0.478875  0  3.948496  0
C  C180  1  0.36070391  0.84475729  0.84536690  1  1.425694  0  0.213511  0.515443  0  4.158408  0
C  C181  1  0.13929253  0.34475389  0.65463787  1  1.425984  0  0.213445  0.515411  0  4.158698  0
C  C182  1  0.63929985  0.15524642  0.15463474  1  1.425675  0  0.213611  0.515548  0  4.158342  0
C  C183  1  0.86070583  0.65523796  0.34536192  1  1.425463  0  0.213298  0.515051  0  4.159206  0
C  C184  1  0.30672945  0.96685831  0.77754532  1  0.388502  0  -0.069842  0.094968  0  3.898079  0
C  C185  1  0.19326999  0.46685723  0.72245932  1  0.388838  0  -0.069814  0.095122  0  3.897852  0
C  C186  1  0.69326890  0.03314290  0.22245447  1  0.388488  0  -0.069823  0.095017  0  3.898132  0
C  C187  1  0.80672466  0.53313151  0.27754545  1  0.388204  0  -0.069767  0.095181  0  3.897844  0
C  C188  1  0.28912840  0.05826567  0.79304558  1  -0.04169  0  -0.248519  -0.39632  0  3.959982  0
C  C189  1  0.21086861  0.55826391  0.70695748  1  -0.041808  0  -0.248555  -0.396412  0  3.960155  0
C  C190  1  0.71086904  0.94173555  0.20695468  1  -0.041664  0  -0.248541  -0.396355  0  3.960019  0
C  C191  1  0.78911877  0.44172608  0.29304896  1  -0.04163  0  -0.24851  -0.396402  0  3.960119  0
C  C192  1  0.44989642  0.64574965  0.31109966  1  1.398597  0  0.208463  0.511116  0  4.176795  0
C  C193  1  0.05010066  0.14574743  0.18890049  1  1.398148  0  0.208478  0.511065  0  4.176765  0
C  C194  1  0.55010646  0.35425281  0.68890038  1  1.398181  0  0.208488  0.511105  0  4.176655  0
C  C195  1  0.94990408  0.85425503  0.81109654  1  1.398124  0  0.208549  0.511181  0  4.176429  0
C  C196  1  0.47915107  0.54069791  0.39842965  1  0.400336  0  -0.070328  0.085882  0  3.897232  0
C  C197  1  0.02084834  0.04069438  0.10157154  1  0.400166  0  -0.070224  0.086123  0  3.897194  0
C  C198  1  0.52085360  0.45930767  0.60157204  1  0.399897  0  -0.070255  0.086232  0  3.897087  0
C  C199  1  0.97914641  0.95930745  0.89842753  1  0.400387  0  -0.070296  0.086081  0  3.897378  0
C  C200  1  0.47053895  0.44683214  0.40259227  1  -0.098392  0  -0.249972  -0.397195  0  3.962802  0
C  C201  1  0.02946021  0.94682869  0.09740878  1  -0.096982  0  -0.249982  -0.397273  0  3.962831  0
C  C202  1  0.52946024  0.55317281  0.59741223  1  -0.097928  0  -0.249961  -0.397312  0  3.96277  0
C  C203  1  0.97053815  0.05317314  0.90259049  1  -0.09697  0  -0.249976  -0.397319  0  3.96294  0
C  C204  1  0.02065592  0.74821729  0.01417920  1  -0.034043  0  -0.084681  -0.179044  0  3.938884  0
C  C205  1  0.47934246  0.24821957  0.48582008  1  -0.033863  0  -0.084718  -0.179148  0  3.939048  0
C  C206  1  0.97934975  0.25177955  0.98581632  1  -0.033822  0  -0.084694  -0.17909  0  3.938988  0
C  C207  1  0.52065317  0.75178164  0.51418007  1  -0.033868  0  -0.084619  -0.178946  0  3.938915  0
C  C208  1  0.14579848  0.74775875  0.01620843  1  0.419045  0  0.043469  0.088784  0  3.907903  0
C  C209  1  0.35420082  0.24775886  0.48378986  1  0.419051  0  0.043478  0.088711  0  3.908037  0
C  C210  1  0.85420900  0.25224121  0.98378719  1  0.418989  0  0.043473  0.088794  0  3.908094  0
C  C211  1  0.64579302  0.75224297  0.51620916  1  0.419043  0  0.043403  0.088674  0  3.907879  0
C  C212  1  0.16358489  0.71732856  0.13354273  1  0.393909  0  0.032498  0.065729  0  3.938885  0
C  C213  1  0.33641550  0.21733831  0.36645388  1  0.393849  0  0.032455  0.065613  0  3.938797  0
C  C214  1  0.83641988  0.28266704  0.86645223  1  0.394269  0  0.032439  0.06567  0  3.93882  0
C  C215  1  0.66358105  0.78266477  0.63354529  1  0.394086  0  0.032454  0.065638  0  3.938888  0
C  C216  1  0.03910357  0.71789813  0.13594738  1  -0.0251  0  -0.088791  -0.180299  0  3.94797  0
C  C217  1  0.46089863  0.21791063  0.36404933  1  -0.025253  0  -0.088697  -0.180262  0  3.947817  0
C  C218  1  0.96090212  0.28209684  0.86404710  1  -0.025333  0  -0.088641  -0.180136  0  3.947704  0
C  C219  1  0.53909972  0.78209370  0.63595098  1  -0.025302  0  -0.088719  -0.180236  0  3.947906  0
C  C220  1  0.96313794  0.73451418  0.07523133  1  -0.027596  0  0.002338  0.092211  0  4.001451  0
C  C221  1  0.53686186  0.23452152  0.42476808  1  -0.027422  0  0.002324  0.092259  0  4.001581  0
C  C222  1  0.03686775  0.26548080  0.92476315  1  -0.027651  0  0.002282  0.092166  0  4.001838  0
C  C223  1  0.46313556  0.76548093  0.57523321  1  -0.027737  0  0.002356  0.092197  0  4.001657  0
C  C224  1  0.83089634  0.73847201  0.07577650  1  0.013661  0  0.002265  0.092848  0  3.999977  0
C  C225  1  0.66910433  0.23847274  0.42422402  1  0.013487  0  0.002255  0.092832  0  4.00014  0
C  C226  1  0.16910844  0.26152858  0.92421845  1  0.013586  0  0.002408  0.092958  0  4.000114  0
C  C227  1  0.33089309  0.76152722  0.57577779  1  0.013645  0  0.00225  0.092891  0  4.000118  0
C  C228  1  0.75583168  0.76942141  0.01902602  1  -0.096495  0  -0.085953  -0.17411  0  3.937418  0
C  C229  1  0.74416792  0.26942243  0.48097463  1  -0.096486  0  -0.085972  -0.174243  0  3.937592  0
C  C230  1  0.24417217  0.23057856  0.98096992  1  -0.096504  0  -0.086106  -0.17435  0  3.937483  0
C  C231  1  0.25582857  0.73057629  0.51902869  1  -0.096649  0  -0.086005  -0.174348  0  3.937681  0
C  C232  1  0.63127147  0.77094141  0.02149324  1  0.448055  0  0.038048  0.077783  0  3.916975  0
C  C233  1  0.86872992  0.27093645  0.47850855  1  0.448051  0  0.038074  0.07782  0  3.91692  0
C  C234  1  0.36873417  0.22906229  0.97850383  1  0.447447  0  0.038066  0.077783  0  3.916927  0
C  C235  1  0.13126839  0.72905977  0.52149435  1  0.447419  0  0.038054  0.077963  0  3.916842  0
C  C236  1  0.64768521  0.71539459  0.13226374  1  0.43069  0  0.038902  0.081532  0  3.924699  0
C  C237  1  0.85231647  0.21538996  0.36773774  1  0.430652  0  0.038975  0.081513  0  3.924507  0
C  C238  1  0.35232044  0.28460974  0.86773334  1  0.432753  0  0.03881  0.0815  0  3.92462  0
C  C239  1  0.14768004  0.78461001  0.63226454  1  0.430589  0  0.038848  0.081454  0  3.924632  0
C  C240  1  0.77252801  0.71202612  0.13372275  1  -0.049632  0  -0.087704  -0.176468  0  3.943978  0
C  C241  1  0.72747190  0.21202619  0.36627705  1  -0.049591  0  -0.087735  -0.176468  0  3.943863  0
C  C242  1  0.22747766  0.28797322  0.86627226  1  -0.049471  0  -0.087702  -0.17649  0  3.943908  0
C  C243  1  0.27252551  0.78797502  0.63372528  1  -0.049564  0  -0.087674  -0.176413  0  3.943761  0
N  N244  1  0.40494804  0.79207201  0.16468001  1  -1.194985  0  -0.386408  -0.259182  0  3.751575  0
N  N245  1  0.09504736  0.29206968  0.33532197  1  -1.195083  0  -0.386323  -0.259078  0  3.751362  0
N  N246  1  0.59505303  0.20793170  0.83531993  1  -1.194978  0  -0.386314  -0.259054  0  3.751382  0
N  N247  1  0.90494827  0.70793091  0.66467819  1  -1.194987  0  -0.386287  -0.259074  0  3.751348  0
N  N248  1  0.38238917  0.84908870  0.03877063  1  -1.188287  0  -0.383347  -0.260933  0  3.731779  0
N  N249  1  0.11760773  0.34908491  0.46123281  1  -1.18825  0  -0.383486  -0.261118  0  3.732085  0
N  N250  1  0.61761553  0.15091438  0.96122899  1  -1.188009  0  -0.383439  -0.261088  0  3.731896  0
N  N251  1  0.88238698  0.65091131  0.53876885  1  -1.188185  0  -0.383338  -0.260931  0  3.731783  0
N  N252  1  0.21880914  0.73317501  0.07494144  1  -1.177072  0  -0.336824  -0.15542  0  3.58587  0
N  N253  1  0.28119114  0.23317793  0.42505733  1  -1.177166  0  -0.336797  -0.155277  0  3.586036  0
N  N254  1  0.78119651  0.26682496  0.92505564  1  -1.177224  0  -0.336834  -0.155445  0  3.58623  0
N  N255  1  0.71880450  0.76682328  0.57494231  1  -1.177023  0  -0.33679  -0.155374  0  3.585874  0
N  N256  1  0.57538195  0.74332681  0.07688332  1  -1.17166  0  -0.335359  -0.153722  0  3.580479  0
N  N257  1  0.92461958  0.24332183  0.42311832  1  -1.171567  0  -0.33538  -0.153684  0  3.580491  0
N  N258  1  0.42462459  0.25667752  0.92311433  1  -1.173233  0  -0.335295  -0.153613  0  3.580291  0
N  N259  1  0.07537602  0.75667564  0.57688391  1  -1.170945  0  -0.335338  -0.153727  0  3.580412  0
O  O260  1  0.40878739  0.62891050  0.11649280  1  -1.063885  0  -0.282357  -0.385133  0  2.430893  0
O  O261  1  0.09121612  0.12890798  0.38350656  1  -1.063954  0  -0.282314  -0.38516  0  2.431048  0
O  O262  1  0.59121913  0.37109258  0.88350640  1  -1.063783  0  -0.282461  -0.385361  0  2.430997  0
O  O263  1  0.90878046  0.87109199  0.61649105  1  -1.063641  0  -0.282335  -0.385155  0  2.430831  0
O  O264  1  0.38970896  0.68679276  0.98578192  1  -1.071789  0  -0.280624  -0.384264  0  2.429464  0
O  O265  1  0.11029558  0.18679072  0.51421923  1  -1.071905  0  -0.280632  -0.384274  0  2.429355  0
O  O266  1  0.61029936  0.31320908  0.01421790  1  -1.072001  0  -0.2807  -0.384319  0  2.42936  0
O  O267  1  0.88970279  0.81320425  0.48578004  1  -1.071826  0  -0.280627  -0.384252  0  2.429483  0
O  O268  1  0.46244055  0.56299847  0.32532337  1  -1.06823  0  -0.172562  -0.233638  0  2.524262  0
O  O269  1  0.03755967  0.06299554  0.17467697  1  -1.068338  0  -0.172609  -0.233663  0  2.524314  0
O  O270  1  0.53756594  0.43700461  0.67467791  1  -1.068344  0  -0.172568  -0.233704  0  2.524223  0
O  O271  1  0.96242966  0.93700692  0.82532129  1  -1.068452  0  -0.172565  -0.233635  0  2.524332  0
O  O272  1  0.45405125  0.69829180  0.35836028  1  -1.161938  0  -0.311229  -0.519988  0  2.186698  0
O  O273  1  0.04595099  0.19828918  0.14164047  1  -1.161846  0  -0.311196  -0.51994  0  2.186645  0
O  O274  1  0.54594621  0.30171066  0.64163894  1  -1.161905  0  -0.311237  -0.519959  0  2.186605  0
O  O275  1  0.95407545  0.80170954  0.85835931  1  -1.161763  0  -0.311261  -0.520007  0  2.186434  0
O  O276  1  0.30960066  0.92262233  0.84316325  1  -1.050231  0  -0.183148  -0.25745  0  2.50542  0
O  O277  1  0.19039900  0.42261881  0.65684165  1  -1.050266  0  -0.183126  -0.257566  0  2.505257  0
O  O278  1  0.69039771  0.07737763  0.15683550  1  -1.050202  0  -0.183172  -0.257497  0  2.505246  0
O  O279  1  0.80959747  0.57737117  0.34316270  1  -1.049746  0  -0.183203  -0.257487  0  2.505346  0
O  O280  1  0.39363843  0.81124616  0.79239097  1  -1.16932  0  -0.298519  -0.505847  0  2.201088  0
O  O281  1  0.10636004  0.31124457  0.70761059  1  -1.169556  0  -0.298411  -0.505738  0  2.201534  0
O  O282  1  0.60636993  0.18875629  0.20760626  1  -1.169388  0  -0.298494  -0.505803  0  2.201405  0
O  O283  1  0.89363466  0.68874354  0.29239107  1  -1.169429  0  -0.298298  -0.505516  0  2.201758  0
O  O284  1  0.35698855  0.07722074  0.25542269  1  -1.16017  0  -0.350096  -0.464973  0  2.386857  0
O  O285  1  0.14301244  0.57721514  0.24458140  1  -1.160381  0  -0.350125  -0.465015  0  2.38678  0
O  O286  1  0.64300622  0.92278234  0.74457482  1  -1.159986  0  -0.350014  -0.464772  0  2.38689  0
O  O287  1  0.85699217  0.42278545  0.75542392  1  -1.160367  0  -0.349963  -0.464683  0  2.386862  0
O  O288  1  0.34117112  0.13402786  0.12459518  1  -1.145784  0  -0.339864  -0.424647  0  2.312322  0
O  O289  1  0.15883229  0.63402335  0.37540887  1  -1.145778  0  -0.339834  -0.424718  0  2.312385  0
O  O290  1  0.65882545  0.86597459  0.87540295  1  -1.14564  0  -0.339803  -0.424635  0  2.3124  0
O  O291  1  0.84117684  0.36597350  0.62459670  1  -1.145726  0  -0.339871  -0.424699  0  2.312336  0
