# generated using pymatgen
data_Zn3P2H12C14(NO5)2
_symmetry_space_group_name_H-M   'P 1'
_cell_length_a   5.64281298
_cell_length_b   11.32033298
_cell_length_c   16.26839983
_cell_angle_alpha   72.19922157
_cell_angle_beta   80.01134825
_cell_angle_gamma   75.56069156
_symmetry_Int_Tables_number   1
_chemical_formula_structural   Zn3P2H12C14(NO5)2
_chemical_formula_sum   'Zn6 P4 H24 C28 N4 O20'
_cell_volume   952.85381386
_cell_formula_units_Z   2
loop_
 _symmetry_equiv_pos_site_id
 _symmetry_equiv_pos_as_xyz
  1  'x, y, z'
loop_
 _atom_site_type_symbol
 _atom_site_label
 _atom_site_symmetry_multiplicity
 _atom_site_fract_x
 _atom_site_fract_y
 _atom_site_fract_z
 _atom_site_occupancy
 _atom_site_hle17_bader_spin_density
 _atom_site_hle17_ddec_charge
 _atom_site_hle17_ddec_spin_density
 _atom_site_hle17_ddec_sum_bond_order
 _atom_site_hle17_magmom
 _atom_site_hse06_10hf_bader_spin_density
 _atom_site_hse06_10hf_ddec_charge
 _atom_site_hse06_10hf_ddec_spin_density
 _atom_site_hse06_10hf_ddec_sum_bond_order
 _atom_site_hse06_10hf_magmom
 _atom_site_hse06_bader_spin_density
 _atom_site_hse06_ddec_charge
 _atom_site_hse06_ddec_spin_density
 _atom_site_hse06_ddec_sum_bond_order
 _atom_site_hse06_magmom
 _atom_site_pbe_bader_spin_density
 _atom_site_pbe_cm5_charge
 _atom_site_pbe_ddec_charge
 _atom_site_pbe_ddec_spin_density
 _atom_site_pbe_ddec_sum_bond_order
 _atom_site_pbe_magmom
Zn  Zn0  1  0.13219159  0.51250052  0.52293168  1  0  1.00543  0  1.825015  0  0  0.800697  0  2.304118  0  0  0.848751  0  2.249722  0  0  0.711888  0.767235  0  2.341444  0
Zn  Zn1  1  0.83233228  0.01266438  0.02290037  1  0  1.004896  0  1.825731  0  0  0.800678  0  2.304371  0  0  0.848719  0  2.249941  0  0  0.711646  0.767149  0  2.341953  0
Zn  Zn2  1  0.81504710  0.89638017  0.64805905  1  0  1.204189  0  1.775733  0  0  1.042983  0  2.253118  0  0  1.086965  0  2.189573  0  0  0.707651  1.011743  0  2.297267  0
Zn  Zn3  1  0.64013477  0.39627530  0.14809355  1  0  1.205268  0  1.773285  0  0  1.044629  0  2.250321  0  0  1.088617  0  2.186766  0  0  0.70825  1.013428  0  2.294485  0
Zn  Zn4  1  0.29818035  0.12773167  0.38879301  1  0  1.196964  0  1.806565  0  0  1.036271  0  2.285808  0  0  1.079546  0  2.222888  0  0  0.710052  1.005619  0  2.329641  0
Zn  Zn5  1  0.18518146  0.62761759  0.88882767  1  0  1.196657  0  1.805873  0  0  1.03586  0  2.285074  0  0  1.079228  0  2.222164  0  0  0.709821  1.005171  0  2.328701  0
P  P6  1  0.31184334  0.94324138  0.57339861  1  0  1.515103  0  4.907478  0  0  1.367064  0  5.395085  0  0  1.416375  0  5.358923  0  0  0.321654  1.332545  0  5.419375  0
P  P7  1  0.17111991  0.44310133  0.07342244  1  0  1.516339  0  4.903491  0  0  1.368358  0  5.390745  0  0  1.417742  0  5.354546  0  0  0.322451  1.333766  0  5.415203  0
P  P8  1  0.76815437  0.21273354  0.32893647  1  0  1.510036  0  4.9043  0  0  1.360389  0  5.391075  0  0  1.409554  0  5.355145  0  0  0.326599  1.326002  0  5.415203  0
P  P9  1  0.69016841  0.71283158  0.82894897  1  0  1.511188  0  4.899235  0  0  1.361294  0  5.386181  0  0  1.41051  0  5.350303  0  0  0.32768  1.32698  0  5.410236  0
H  H10  1  0.84070143  0.55028623  0.69121162  1  0  0.09579  0  0.952373  0  0  0.102374  0  1.018309  0  0  0.104691  0  1.016351  0  0  0.120892  0.100595  0  1.019832  0
H  H11  1  0.91780073  0.05016630  0.19121532  1  0  0.095731  0  0.952345  0  0  0.102011  0  1.018741  0  0  0.104323  0  1.016787  0  0  0.120615  0.100369  0  1.01995  0
H  H12  1  0.53861297  0.44986525  0.79918112  1  0  0.123836  0  0.956861  0  0  0.134037  0  1.015629  0  0  0.137322  0  1.014327  0  0  0.114594  0.131591  0  1.016903  0
H  H13  1  0.21260312  0.94981622  0.29910853  1  0  0.124082  0  0.956552  0  0  0.133742  0  1.015946  0  0  0.13701  0  1.014639  0  0  0.114475  0.131374  0  1.01707  0
H  H14  1  0.68247279  0.15663962  0.66534292  1  0  0.121764  0  0.948218  0  0  0.133062  0  1.006699  0  0  0.135936  0  1.00565  0  0  0.115964  0.130875  0  1.007846  0
H  H15  1  0.49644998  0.65683302  0.16504547  1  0  0.121247  0  0.948249  0  0  0.132551  0  1.006716  0  0  0.135406  0  1.005721  0  0  0.116023  0.130537  0  1.007499  0
H  H16  1  0.99415831  0.26408175  0.56744120  1  0  0.088378  0  0.967708  0  0  0.095777  0  1.033248  0  0  0.098059  0  1.03106  0  0  0.118702  0.094024  0  1.034961  0
H  H17  1  0.17498728  0.76421109  0.06722355  1  0  0.088844  0  0.968612  0  0  0.096343  0  1.034019  0  0  0.09862  0  1.031862  0  0  0.119042  0.094627  0  1.035596  0
H  H18  1  0.18569278  0.39819856  0.84657990  1  0  0.122312  0  0.966111  0  0  0.131138  0  1.028963  0  0  0.134371  0  1.027347  0  0  0.112147  0.128678  0  1.030482  0
H  H19  1  0.56959243  0.89820495  0.34657429  1  0  0.123225  0  0.964289  0  0  0.131876  0  1.027181  0  0  0.135031  0  1.025702  0  0  0.11267  0.129216  0  1.029041  0
H  H20  1  0.89805322  0.28352285  0.95365516  1  0  0.091175  0  0.93542  0  0  0.102961  0  0.991686  0  0  0.10517  0  0.989909  0  0  0.124152  0.101265  0  0.993118  0
H  H21  1  0.86396821  0.78332626  0.45392769  1  0  0.091377  0  0.93574  0  0  0.102789  0  0.992427  0  0  0.104871  0  0.990815  0  0  0.123883  0.101178  0  0.993778  0
H  H22  1  0.19470165  0.95162386  0.88042518  1  0  0.087679  0  0.955615  0  0  0.097069  0  1.017265  0  0  0.099369  0  1.015051  0  0  0.120108  0.095311  0  1.018957  0
H  H23  1  0.97372167  0.45161625  0.38029814  1  0  0.087419  0  0.956798  0  0  0.096881  0  1.01844  0  0  0.099061  0  1.01637  0  0  0.119876  0.095185  0  1.020112  0
H  H24  1  0.51084845  0.04617851  0.77664378  1  0  0.127241  0  0.967893  0  0  0.136498  0  1.027209  0  0  0.139798  0  1.025723  0  0  0.113443  0.13405  0  1.02852  0
H  H25  1  0.66702986  0.54629299  0.27643943  1  0  0.12769  0  0.967214  0  0  0.136755  0  1.026397  0  0  0.140075  0  1.024924  0  0  0.113354  0.134009  0  1.028179  0
H  H26  1  0.56960084  0.73363986  0.59105996  1  0  0.163085  0  0.961732  0  0  0.169853  0  1.027842  0  0  0.173885  0  1.025972  0  0  0.108229  0.166994  0  1.029262  0
H  H27  1  0.10508842  0.23348267  0.09118311  1  0  0.163936  0  0.961676  0  0  0.170894  0  1.027172  0  0  0.174904  0  1.025396  0  0  0.108636  0.168088  0  1.028322  0
H  H28  1  0.36736159  0.74627158  0.68593527  1  0  0.187598  0  0.952583  0  0  0.197096  0  1.008722  0  0  0.201341  0  1.006707  0  0  0.118607  0.194047  0  1.010293  0
H  H29  1  0.20020741  0.24610397  0.18596405  1  0  0.187593  0  0.953043  0  0  0.197165  0  1.008878  0  0  0.201399  0  1.006917  0  0  0.118375  0.194113  0  1.010321  0
H  H30  1  0.71703370  0.13170217  0.48428003  1  0  0.187759  0  0.942866  0  0  0.197531  0  0.999915  0  0  0.20177  0  0.99771  0  0  0.119718  0.194474  0  1.001616  0
H  H31  1  0.66722760  0.63187389  0.98431406  1  0  0.187818  0  0.943103  0  0  0.19776  0  0.999783  0  0  0.201988  0  0.997579  0  0  0.119733  0.194709  0  1.001528  0
H  H32  1  0.83907262  0.27230585  0.45169042  1  0  0.157708  0  0.975925  0  0  0.164791  0  1.042328  0  0  0.168791  0  1.040217  0  0  0.108055  0.161991  0  1.043863  0
H  H33  1  0.43705789  0.77246044  0.95160589  1  0  0.159987  0  0.973933  0  0  0.166851  0  1.040372  0  0  0.170835  0  1.03831  0  0  0.108974  0.163998  0  1.042024  0
C  C34  1  0.79937994  0.46319782  0.68754421  1  0  0.148576  0  3.666534  0  0  0.114737  0  3.92042  0  0  0.122269  0  3.938686  0  0  0.053174  0.109874  0  3.90805  0
C  C35  1  0.04996958  0.96310250  0.18750555  1  0  0.146862  0  3.666222  0  0  0.113425  0  3.91988  0  0  0.12097  0  3.938138  0  0  0.052407  0.108708  0  3.907059  0
C  C36  1  0.62697806  0.40569219  0.74783183  1  0  -0.138891  0  3.657942  0  0  -0.157641  0  3.902914  0  0  -0.165794  0  3.924503  0  0  -0.072199  -0.152371  0  3.888494  0
C  C37  1  0.21971866  0.90566121  0.24774833  1  0  -0.138625  0  3.65821  0  0  -0.156766  0  3.903722  0  0  -0.164884  0  3.925296  0  0  -0.072052  -0.151693  0  3.889164  0
C  C38  1  0.57327093  0.29440361  0.74130672  1  0  0.092702  0  3.739918  0  0  0.10344  0  3.970651  0  0  0.107828  0  3.991851  0  0  0.018153  0.100706  0  3.956064  0
C  C39  1  0.39144240  0.79442572  0.24119355  1  0  0.094991  0  3.739683  0  0  0.104768  0  3.971587  0  0  0.109121  0  3.992808  0  0  0.019355  0.102159  0  3.957084  0
C  C40  1  0.71018764  0.24289447  0.67504766  1  0  -0.124957  0  3.65205  0  0  -0.143289  0  3.894304  0  0  -0.150714  0  3.915063  0  0  -0.068247  -0.138556  0  3.880506  0
C  C41  1  0.37259095  0.74299649  0.17485981  1  0  -0.126171  0  3.651277  0  0  -0.144365  0  3.894626  0  0  -0.15174  0  3.915312  0  0  -0.069024  -0.139661  0  3.880436  0
C  C42  1  0.88363178  0.30384740  0.61828845  1  0  0.148745  0  3.67012  0  0  0.115407  0  3.920091  0  0  0.123112  0  3.937802  0  0  0.052415  0.110418  0  3.908125  0
C  C43  1  0.19477769  0.80391410  0.11811233  1  0  0.147634  0  3.669262  0  0  0.114186  0  3.919324  0  0  0.121892  0  3.937021  0  0  0.051331  0.109264  0  3.907069  0
C  C44  1  0.38367897  0.23279135  0.80212301  1  0  0.096247  0  3.733233  0  0  0.106992  0  3.9643  0  0  0.110914  0  3.985541  0  0  0.020349  0.104562  0  3.94969  0
C  C45  1  0.58178667  0.73279990  0.30206111  1  0  0.09639  0  3.732872  0  0  0.107856  0  3.963471  0  0  0.111812  0  3.984682  0  0  0.020613  0.105255  0  3.949091  0
C  C46  1  0.20215489  0.29828750  0.85256316  1  0  -0.132586  0  3.66514  0  0  -0.152527  0  3.911931  0  0  -0.159894  0  3.933332  0  0  -0.070589  -0.147763  0  3.897711  0
C  C47  1  0.64702463  0.79828673  0.35259428  1  0  -0.133488  0  3.662998  0  0  -0.153505  0  3.909983  0  0  -0.160847  0  3.931309  0  0  -0.07146  -0.148644  0  3.896052  0
C  C48  1  0.03605408  0.23529005  0.91231627  1  0  0.143664  0  3.678857  0  0  0.110944  0  3.930166  0  0  0.117883  0  3.94867  0  0  0.053158  0.106415  0  3.917671  0
C  C49  1  0.81594848  0.73514008  0.41248984  1  0  0.143261  0  3.676976  0  0  0.110677  0  3.928586  0  0  0.117725  0  3.947053  0  0  0.053971  0.106082  0  3.916039  0
C  C50  1  0.20355903  0.04973060  0.87192978  1  0  0.148934  0  3.666472  0  0  0.116244  0  3.915191  0  0  0.123609  0  3.93297  0  0  0.053506  0.111484  0  3.903061  0
C  C51  1  0.87503163  0.54969609  0.37188835  1  0  0.14742  0  3.666257  0  0  0.114475  0  3.915173  0  0  0.121921  0  3.933009  0  0  0.053023  0.109587  0  3.903069  0
C  C52  1  0.37830437  0.10576550  0.81213870  1  0  -0.130786  0  3.647527  0  0  -0.148954  0  3.889321  0  0  -0.156113  0  3.909758  0  0  -0.069998  -0.144271  0  3.875563  0
C  C53  1  0.70430765  0.60580887  0.31202944  1  0  -0.131612  0  3.6469  0  0  -0.149292  0  3.888408  0  0  -0.156517  0  3.908794  0  0  -0.069874  -0.144522  0  3.875106  0
C  C54  1  0.38002494  0.77063500  0.61447379  1  0  -0.651334  0  3.666707  0  0  -0.661592  0  3.897569  0  0  -0.677735  0  3.898548  0  0  -0.187327  -0.650346  0  3.896846  0
C  C55  1  0.23433735  0.27049888  0.11450066  1  0  -0.652601  0  3.669506  0  0  -0.663505  0  3.900191  0  0  -0.679774  0  3.901358  0  0  -0.187045  -0.6521  0  3.89894  0
C  C56  1  0.20977125  0.70751508  0.58957498  1  0  0.793991  0  3.790196  0  0  0.740135  0  4.083546  0  0  0.776538  0  4.074297  0  0  0.228576  0.715271  0  4.089218  0
C  C57  1  0.49261742  0.20748906  0.08950673  1  0  0.792917  0  3.790893  0  0  0.7406  0  4.081485  0  0  0.77704  0  4.072202  0  0  0.228969  0.715743  0  4.086961  0
C  C58  1  0.70188200  0.22804939  0.43961572  1  0  -0.64627  0  3.658271  0  0  -0.660033  0  3.893305  0  0  -0.675914  0  3.894278  0  0  -0.184293  -0.648991  0  3.892451  0
C  C59  1  0.63061538  0.72820134  0.93961161  1  0  -0.647684  0  3.655879  0  0  -0.662033  0  3.892065  0  0  -0.677632  0  3.892555  0  0  -0.185007  -0.651248  0  3.891742  0
C  C60  1  0.44792902  0.30336354  0.45738731  1  0  0.794501  0  3.788069  0  0  0.739471  0  4.082456  0  0  0.775841  0  4.073257  0  0  0.230135  0.714669  0  4.087968  0
C  C61  1  0.79137109  0.80362919  0.95725479  1  0  0.793899  0  3.788094  0  0  0.739672  0  4.081029  0  0  0.775929  0  4.071987  0  0  0.230006  0.714876  0  4.086532  0
N  N62  1  0.92449648  0.41431041  0.62259416  1  0  -0.352312  0  3.307234  0  0  -0.264113  0  3.591643  0  0  -0.284441  0  3.604963  0  0  -0.331629  -0.250337  0  3.582392  0
N  N63  1  0.03883066  0.91428763  0.12248921  1  0  -0.351106  0  3.304621  0  0  -0.262919  0  3.588954  0  0  -0.283258  0  3.602273  0  0  -0.330434  -0.249091  0  3.579645  0
N  N64  1  0.03747100  0.11200659  0.92301086  1  0  -0.350192  0  3.315991  0  0  -0.262943  0  3.602264  0  0  -0.282817  0  3.615662  0  0  -0.33064  -0.249497  0  3.593072  0
N  N65  1  0.92737101  0.61186098  0.42311529  1  0  -0.34799  0  3.311673  0  0  -0.260306  0  3.597635  0  0  -0.280178  0  3.610971  0  0  -0.330378  -0.246837  0  3.588351  0
O  O66  1  0.07067316  0.99437996  0.62435630  1  0  -0.86522  0  1.951459  0  0  -0.77573  0  2.234822  0  0  -0.803703  0  2.210712  0  0  -0.387435  -0.755802  0  2.250985  0
O  O67  1  0.31015425  0.49423710  0.12439058  1  0  -0.864861  0  1.948624  0  0  -0.77569  0  2.232097  0  0  -0.803682  0  2.208013  0  0  -0.387831  -0.75587  0  2.247993  0
O  O68  1  0.52868271  0.99238104  0.58726568  1  0  -0.869625  0  1.997554  0  0  -0.775886  0  2.287343  0  0  -0.803918  0  2.261122  0  0  -0.384429  -0.75597  0  2.305008  0
O  O69  1  0.89125033  0.49227698  0.08724983  1  0  -0.870941  0  1.996163  0  0  -0.777428  0  2.28606  0  0  -0.805544  0  2.259892  0  0  -0.385323  -0.757518  0  2.303763  0
O  O70  1  0.28459323  0.96954191  0.47638982  1  0  -0.881936  0  1.996883  0  0  -0.792129  0  2.290967  0  0  -0.820312  0  2.265742  0  0  -0.395027  -0.772055  0  2.307912  0
O  O71  1  0.26909118  0.46934452  0.97641668  1  0  -0.881783  0  1.996454  0  0  -0.791561  0  2.290062  0  0  -0.819856  0  2.264994  0  0  -0.395123  -0.771435  0  2.306817  0
O  O72  1  0.97595122  0.74395383  0.60184615  1  0  -0.688117  0  2.043014  0  0  -0.617064  0  2.318359  0  0  -0.645067  0  2.300149  0  0  -0.311797  -0.597501  0  2.330426  0
O  O73  1  0.67774467  0.24395002  0.10174952  1  0  -0.688839  0  2.042278  0  0  -0.61824  0  2.316932  0  0  -0.646249  0  2.298643  0  0  -0.312713  -0.598804  0  2.329066  0
O  O74  1  0.31046596  0.61584157  0.55653236  1  0  -0.618445  0  2.013975  0  0  -0.537339  0  2.279636  0  0  -0.565456  0  2.264514  0  0  -0.317709  -0.517827  0  2.289494  0
O  O75  1  0.51681040  0.11586608  0.05640377  1  0  -0.616473  0  2.013219  0  0  -0.536633  0  2.278759  0  0  -0.564706  0  2.263543  0  0  -0.317413  -0.51713  0  2.288548  0
O  O76  1  0.43135581  0.39716372  0.48709480  1  0  -0.620473  0  2.032662  0  0  -0.540725  0  2.303564  0  0  -0.569291  0  2.289127  0  0  -0.311878  -0.520898  0  2.312935  0
O  O77  1  0.68440239  0.89768189  0.98670986  1  0  -0.620124  0  2.031284  0  0  -0.540327  0  2.301385  0  0  -0.568845  0  2.287082  0  0  -0.312064  -0.520533  0  2.310811  0
O  O78  1  0.25955369  0.27164398  0.44291349  1  0  -0.685736  0  2.0513  0  0  -0.610919  0  2.320838  0  0  -0.638697  0  2.302273  0  0  -0.311255  -0.591514  0  2.333104  0
O  O79  1  0.02594718  0.77175530  0.94288896  1  0  -0.686092  0  2.052713  0  0  -0.611808  0  2.322343  0  0  -0.639662  0  2.303899  0  0  -0.310832  -0.592352  0  2.334528  0
O  O80  1  0.68870292  0.34772923  0.27000373  1  0  -0.873908  0  2.009713  0  0  -0.780817  0  2.300086  0  0  -0.808447  0  2.273736  0  0  -0.384882  -0.760957  0  2.31798  0
O  O81  1  0.69383324  0.84779137  0.77000262  1  0  -0.87264  0  2.010396  0  0  -0.77893  0  2.300636  0  0  -0.806655  0  2.274337  0  0  -0.384091  -0.759252  0  2.318185  0
O  O82  1  0.62121913  0.11941379  0.32093700  1  0  -0.861775  0  1.958827  0  0  -0.774323  0  2.243873  0  0  -0.801565  0  2.219729  0  0  -0.385367  -0.754908  0  2.260344  0
O  O83  1  0.93827703  0.61935330  0.82094346  1  0  -0.862717  0  1.956925  0  0  -0.775359  0  2.242374  0  0  -0.80263  0  2.218235  0  0  -0.386639  -0.755977  0  2.258485  0
O  O84  1  0.04607277  0.16022377  0.31352469  1  0  -0.86137  0  2.038043  0  0  -0.761725  0  2.324407  0  0  -0.790426  0  2.299487  0  0  -0.377175  -0.741514  0  2.341146  0
O  O85  1  0.47983920  0.66053787  0.81356617  1  0  -0.862399  0  2.034452  0  0  -0.76264  0  2.320579  0  0  -0.791471  0  2.29576  0  0  -0.377924  -0.742269  0  2.337392  0
