# generated using pymatgen
data_KBH14C10SNO2F3
_symmetry_space_group_name_H-M   'P 1'
_cell_length_a   8.20454734
_cell_length_b   9.34873514
_cell_length_c   17.75860000
_cell_angle_alpha   90.00000000
_cell_angle_beta   90.00000000
_cell_angle_gamma   92.78608965
_symmetry_Int_Tables_number   1
_chemical_formula_structural   KBH14C10SNO2F3
_chemical_formula_sum   'K4 B4 H56 C40 S4 N4 O8 F12'
_cell_volume   1360.51255053
_cell_formula_units_Z   4
loop_
 _symmetry_equiv_pos_site_id
 _symmetry_equiv_pos_as_xyz
  1  'x, y, z'
loop_
 _atom_site_type_symbol
 _atom_site_label
 _atom_site_symmetry_multiplicity
 _atom_site_fract_x
 _atom_site_fract_y
 _atom_site_fract_z
 _atom_site_occupancy
 _atom_site_pbe_bader_charge
 _atom_site_pbe_bader_spin_density
 _atom_site_pbe_cm5_charge
 _atom_site_pbe_ddec_charge
 _atom_site_pbe_ddec_spin_density
 _atom_site_pbe_ddec_sum_bond_order
 _atom_site_pbe_magmom
K  K0  1  0.25001211  0.49999547  0.43680245  1  0.911911  0  0.858546  0.889622  0  0.649491  0
K  K1  1  0.75001666  0.49999761  0.56319811  1  0.911903  0  0.858535  0.889616  0  0.649495  0
K  K2  1  0.24999976  0.99999629  0.43846137  1  0.909412  0  0.826085  0.872286  0  0.630016  0
K  K3  1  0.75000006  0.00000214  0.56153751  1  0.909407  0  0.826085  0.872279  0  0.63  0
B  B4  1  0.87694901  0.76821506  0.41777392  1  2.274574  0  -0.062539  0.808421  0  3.365174  0
B  B5  1  0.62305158  0.23178337  0.41777223  1  2.274419  0  -0.062554  0.808404  0  3.365115  0
B  B6  1  0.12305081  0.23178337  0.58222551  1  2.274582  0  -0.062542  0.808457  0  3.365136  0
B  B7  1  0.37695061  0.76821399  0.58222664  1  2.274567  0  -0.062512  0.808414  0  3.365227  0
H  H8  1  0.60052465  0.99140958  0.06028572  1  0.056795  0  0.096563  0.100718  0  1.037622  0
H  H9  1  0.89947368  0.00859207  0.06028572  1  0.056408  0  0.09658  0.100752  0  1.037628  0
H  H10  1  0.39947534  0.00859207  0.93971315  1  0.05626  0  0.096577  0.100735  0  1.037615  0
H  H11  1  0.10052382  0.99140851  0.93971653  1  0.056778  0  0.096573  0.100772  0  1.03756  0
H  H12  1  0.60242362  0.53264596  0.05621614  1  0.055096  0  0.095819  0.100255  0  1.031895  0
H  H13  1  0.89757720  0.46735676  0.05621671  1  0.05508  0  0.095859  0.100326  0  1.031861  0
H  H14  1  0.39757387  0.46735461  0.94378273  1  0.054825  0  0.095827  0.100264  0  1.031837  0
H  H15  1  0.10242036  0.53264489  0.94378442  1  0.055084  0  0.095811  0.10024  0  1.031919  0
H  H16  1  0.57429470  0.11561646  0.16703006  1  0.023526  0  0.08709  0.120463  0  1.031846  0
H  H17  1  0.92570241  0.88438519  0.16703118  1  0.023317  0  0.087085  0.120457  0  1.03185  0
H  H18  1  0.42570402  0.88438412  0.83296882  1  0.023536  0  0.087082  0.120454  0  1.031846  0
H  H19  1  0.07429752  0.11561538  0.83296994  1  0.023399  0  0.087096  0.120506  0  1.03184  0
H  H20  1  0.59102372  0.03444430  0.25645377  1  0.051131  0  0.094063  0.130483  0  1.026539  0
H  H21  1  0.90897577  0.96555628  0.25645490  1  0.051046  0  0.094094  0.130484  0  1.02647  0
H  H22  1  0.40897372  0.96555520  0.74354510  1  0.051222  0  0.094091  0.130498  0  1.026419  0
H  H23  1  0.09102636  0.03444002  0.74354735  1  0.050983  0  0.094066  0.130481  0  1.026487  0
H  H24  1  0.39684633  0.05157060  0.21753348  1  0.09984  0  0.102575  0.160506  0  0.996022  0
H  H25  1  0.10315167  0.94843105  0.21753348  1  0.099975  0  0.102588  0.160511  0  0.996014  0
H  H26  1  0.60315360  0.94842997  0.78246540  1  0.099842  0  0.102557  0.16048  0  0.996035  0
H  H27  1  0.89684821  0.05156846  0.78246709  1  0.099992  0  0.102591  0.160474  0  0.996087  0
H  H28  1  0.54061159  0.76562663  0.93042357  1  0.03727  0  0.091513  0.126532  0  1.021171  0
H  H29  1  0.95939045  0.23437609  0.93042470  1  0.037279  0  0.09153  0.126546  0  1.021118  0
H  H30  1  0.45938590  0.23437395  0.06957474  1  0.037317  0  0.091536  0.126578  0  1.021156  0
H  H31  1  0.04061186  0.76562342  0.06957812  1  0.037248  0  0.091506  0.12652  0  1.021153  0
H  H32  1  0.71903309  0.67326112  0.94976856  1  0.065366  0  0.091342  0.131409  0  1.001929  0
H  H33  1  0.78097018  0.32674160  0.94976913  1  0.065389  0  0.091351  0.13136  0  1.001957  0
H  H34  1  0.28096563  0.32673946  0.05023031  1  0.065391  0  0.091314  0.131383  0  1.001987  0
H  H35  1  0.21903342  0.67325898  0.05023256  1  0.065329  0  0.091356  0.131383  0  1.001946  0
H  H36  1  0.72460653  0.86334571  0.95162738  1  0.053635  0  0.090259  0.128263  0  1.01363  0
H  H37  1  0.77539430  0.13665700  0.95162794  1  0.0538  0  0.090265  0.128266  0  1.013628  0
H  H38  1  0.27539103  0.13665593  0.04837149  1  0.053625  0  0.090249  0.128248  0  1.013639  0
H  H39  1  0.22460802  0.86334250  0.04837375  1  0.053786  0  0.090278  0.128276  0  1.01358  0
H  H40  1  0.39183360  0.44436605  0.21051209  1  0.091905  0  0.100781  0.151439  0  0.988024  0
H  H41  1  0.10816667  0.55563239  0.21051322  1  0.091793  0  0.100779  0.15144  0  0.987974  0
H  H42  1  0.60816384  0.55563346  0.78948678  1  0.091921  0  0.100782  0.15144  0  0.987999  0
H  H43  1  0.89183199  0.44436712  0.78948735  1  0.091763  0  0.100786  0.151465  0  0.98799  0
H  H44  1  0.58897915  0.46577821  0.24736015  1  0.076949  0  0.096319  0.139294  0  1.025975  0
H  H45  1  0.91102040  0.53422344  0.24736297  1  0.076732  0  0.096332  0.139286  0  1.025991  0
H  H46  1  0.41101829  0.53422130  0.75263872  1  0.076733  0  0.096319  0.139274  0  1.02598  0
H  H47  1  0.08897844  0.46577928  0.75263985  1  0.076966  0  0.096315  0.139292  0  1.025972  0
H  H48  1  0.56218394  0.39748719  0.15463719  1  0.006502  0  0.082708  0.110445  0  1.043832  0
H  H49  1  0.93781683  0.60251446  0.15463888  1  0.006512  0  0.08271  0.110458  0  1.043836  0
H  H50  1  0.43781466  0.60251125  0.84536225  1  0.006744  0  0.08271  0.110437  0  1.043854  0
H  H51  1  0.06218317  0.39748719  0.84536281  1  0.006511  0  0.082706  0.110454  0  1.043843  0
H  H52  1  0.82258833  0.73471104  0.29498102  1  0.045211  0  0.096803  0.105355  0  1.024008  0
H  H53  1  0.67741354  0.26528846  0.29497933  1  0.045188  0  0.096806  0.105346  0  1.024025  0
H  H54  1  0.17740911  0.26528846  0.70501898  1  0.045188  0  0.096789  0.105331  0  1.024019  0
H  H55  1  0.32258993  0.73470997  0.70501954  1  0.04519  0  0.096813  0.105383  0  1.023997  0
H  H56  1  0.71899989  0.60976786  0.35538274  1  0.068761  0  0.111536  0.114559  0  1.022536  0
H  H57  1  0.78099960  0.39023271  0.35538218  1  0.068414  0  0.111535  0.114551  0  1.022541  0
H  H58  1  0.28099511  0.39023164  0.64461669  1  0.068422  0  0.111538  0.114571  0  1.022544  0
H  H59  1  0.21900155  0.60976786  0.64461726  1  0.068766  0  0.111533  0.114558  0  1.022541  0
H  H60  1  0.61453728  0.91105883  0.36220535  1  0.51792  0  0.303546  0.277012  0  1.008091  0
H  H61  1  0.88546343  0.08894175  0.36220479  1  0.517927  0  0.303563  0.277041  0  1.008054  0
H  H62  1  0.38546144  0.08894175  0.63779408  1  0.517922  0  0.303556  0.277029  0  1.008099  0
H  H63  1  0.11453523  0.91105775  0.63779521  1  0.517919  0  0.303536  0.276956  0  1.008176  0
C  C64  1  0.51166405  0.75303571  0.20084522  1  -0.187197  0  -0.026815  -0.237779  0  3.847352  0
C  C65  1  0.98833416  0.24696379  0.20084635  1  -0.187142  0  -0.026855  -0.237847  0  3.847398  0
C  C66  1  0.48833583  0.24696379  0.79915309  1  -0.187151  0  -0.026854  -0.237905  0  3.847469  0
C  C67  1  0.01166461  0.75303785  0.79915534  1  -0.18739  0  -0.026874  -0.237933  0  3.847416  0
C  C68  1  0.53727501  0.88735381  0.16444258  1  -0.017904  0  0.000408  0.187191  0  3.961918  0
C  C69  1  0.96272210  0.11264784  0.16444371  1  -0.017934  0  0.000436  0.187263  0  3.961807  0
C  C70  1  0.46272365  0.11264570  0.83555629  1  -0.017967  0  0.000465  0.187293  0  3.962001  0
C  C71  1  0.03727784  0.88735274  0.83555911  1  -0.017787  0  0.00047  0.187356  0  3.96188  0
C  C72  1  0.58138272  0.88813237  0.08832847  1  -0.011557  0  -0.102183  -0.232371  0  3.952939  0
C  C73  1  0.91861433  0.11186820  0.08832847  1  -0.011534  0  -0.102189  -0.232428  0  3.952805  0
C  C74  1  0.41861594  0.11186713  0.91166984  1  -0.011413  0  -0.102222  -0.232427  0  3.952968  0
C  C75  1  0.08138323  0.88813344  0.91167209  1  -0.011839  0  -0.102166  -0.232449  0  3.952764  0
C  C76  1  0.60465391  0.76232174  0.04795986  1  -0.075318  0  -0.010542  0.184486  0  4.028212  0
C  C77  1  0.89534576  0.23768205  0.04796099  1  -0.075315  0  -0.010533  0.184542  0  4.028168  0
C  C78  1  0.39534603  0.23767883  0.95203845  1  -0.075253  0  -0.01053  0.184509  0  4.028104  0
C  C79  1  0.10465406  0.76231639  0.95204239  1  -0.075015  0  -0.010551  0.18448  0  4.028159  0
C  C80  1  0.58235502  0.63236983  0.08615826  1  -0.068064  0  -0.104292  -0.238063  0  3.954878  0
C  C81  1  0.91764453  0.36763182  0.08615938  1  -0.068407  0  -0.104343  -0.238178  0  3.955059  0
C  C82  1  0.41764248  0.36763075  0.91384005  1  -0.068112  0  -0.104293  -0.238049  0  3.954861  0
C  C83  1  0.08235303  0.63236983  0.91384231  1  -0.068139  0  -0.104305  -0.238087  0  3.955202  0
C  C84  1  0.53588984  0.62304846  0.16209667  1  0.037915  0  0.001892  0.189657  0  3.955741  0
C  C85  1  0.96410733  0.37695426  0.16209724  1  0.037891  0  0.001899  0.189711  0  3.955782  0
C  C86  1  0.46410766  0.37695212  0.83790164  1  0.037908  0  0.001897  0.189673  0  3.955749  0
C  C87  1  0.03589017  0.62304631  0.83790614  1  0.038072  0  0.001901  0.189745  0  3.955856  0
C  C88  1  0.52332731  0.02954051  0.20315565  1  -0.075389  0  -0.242204  -0.424402  0  3.929828  0
C  C89  1  0.97667096  0.97046006  0.20315565  1  -0.075278  0  -0.242233  -0.424402  0  3.929748  0
C  C90  1  0.47667263  0.97046006  0.79684435  1  -0.07551  0  -0.242215  -0.424401  0  3.929714  0
C  C91  1  0.02333008  0.02953837  0.79684604  1  -0.075319  0  -0.242244  -0.424444  0  3.92987  0
C  C92  1  0.65041358  0.76634308  0.96605532  1  -0.089886  0  -0.237106  -0.407995  0  3.938733  0
C  C93  1  0.84958847  0.23365964  0.96605645  1  -0.089908  0  -0.237134  -0.407976  0  3.938651  0
C  C94  1  0.34958514  0.23365749  0.03394355  1  -0.089925  0  -0.237103  -0.408026  0  3.93878  0
C  C95  1  0.15041269  0.76634094  0.03394524  1  -0.089891  0  -0.237156  -0.407996  0  3.938797  0
C  C96  1  0.51854566  0.47487789  0.19541518  1  -0.074497  0  -0.242623  -0.416969  0  3.944501  0
C  C97  1  0.98145134  0.52512161  0.19541574  1  -0.074503  0  -0.242644  -0.417022  0  3.944519  0
C  C98  1  0.48145057  0.52512161  0.80458369  1  -0.074731  0  -0.242628  -0.416949  0  3.944526  0
C  C99  1  0.01854488  0.47487789  0.80458482  1  -0.074502  0  -0.242632  -0.417041  0  3.944493  0
C  C100  1  0.75643092  0.72372652  0.34894079  1  -0.290824  0  -0.078243  -0.38027  0  3.984196  0
C  C101  1  0.74356973  0.27627298  0.34893967  1  -0.290841  0  -0.078227  -0.380211  0  3.98416  0
C  C102  1  0.24356652  0.27627298  0.65105921  1  -0.290815  0  -0.07821  -0.380229  0  3.984216  0
C  C103  1  0.25643259  0.72372652  0.65105977  1  -0.29084  0  -0.078227  -0.38027  0  3.984165  0
S  S104  1  0.45143280  0.75336556  0.29778023  1  2.96301  0  0.557401  1.104083  0  5.96403  0
S  S105  1  0.04856874  0.24663395  0.29777967  1  2.963007  0  0.557393  1.10401  0  5.964112  0
S  S106  1  0.54856604  0.24663716  0.70221921  1  2.962993  0  0.5574  1.104119  0  5.964048  0
S  S107  1  0.95143363  0.75336663  0.70222146  1  2.962955  0  0.557409  1.104034  0  5.963957  0
N  N108  1  0.60842198  0.80484941  0.34815864  1  -1.382051  0  -0.455296  -0.443253  0  3.564173  0
N  N109  1  0.89157873  0.19515116  0.34815864  1  -1.382029  0  -0.455319  -0.443316  0  3.564208  0
N  N110  1  0.39157668  0.19515009  0.65184136  1  -1.382046  0  -0.455298  -0.443327  0  3.564253  0
N  N111  1  0.10842242  0.80484941  0.65184305  1  -1.381987  0  -0.455268  -0.443178  0  3.564225  0
O  O112  1  0.40842789  0.60657114  0.31813375  1  -1.328531  0  -0.381558  -0.570909  0  2.301584  0
O  O113  1  0.09157487  0.39342837  0.31813375  1  -1.328641  0  -0.38155  -0.570868  0  2.301584  0
O  O114  1  0.59156833  0.39342837  0.68186512  1  -1.328569  0  -0.381562  -0.570877  0  2.301628  0
O  O115  1  0.90842872  0.60657221  0.68186850  1  -1.328602  0  -0.381563  -0.570863  0  2.301505  0
O  O116  1  0.33055548  0.85953749  0.30844323  1  -1.32282  0  -0.363362  -0.57211  0  2.254606  0
O  O117  1  0.16944479  0.14046094  0.30844323  1  -1.323087  0  -0.363326  -0.572049  0  2.254579  0
O  O118  1  0.66944452  0.14046416  0.69155620  1  -1.322757  0  -0.363328  -0.572084  0  2.254472  0
O  O119  1  0.83055631  0.85953856  0.69155846  1  -1.323047  0  -0.363332  -0.572047  0  2.254517  0
F  F120  1  0.01957726  0.68917513  0.41505524  1  -0.833864  0  -0.193092  -0.427548  0  1.258505  0
F  F121  1  0.48042166  0.31082116  0.41505468  1  -0.833725  0  -0.193116  -0.427533  0  1.258549  0
F  F122  1  0.98042255  0.31082331  0.58494363  1  -0.833804  0  -0.193127  -0.42756  0  1.258572  0
F  F123  1  0.51957931  0.68917620  0.58494532  1  -0.83376  0  -0.193095  -0.427537  0  1.258539  0
F  F124  1  0.80124300  0.74503480  0.48989110  1  -0.840191  0  -0.247425  -0.465532  0  1.293885  0
F  F125  1  0.69875649  0.25496578  0.48988997  1  -0.840166  0  -0.247434  -0.465548  0  1.293845  0
F  F126  1  0.19875803  0.25496363  0.51010890  1  -0.840204  0  -0.247435  -0.465552  0  1.293865  0
F  F127  1  0.30124577  0.74503266  0.51010834  1  -0.840191  0  -0.247446  -0.465561  0  1.293857  0
F  F128  1  0.92592114  0.92055154  0.41634926  1  -0.837082  0  -0.195661  -0.434326  0  1.259645  0
F  F129  1  0.57408188  0.07944689  0.41634926  1  -0.837213  0  -0.195657  -0.434327  0  1.259635  0
F  F130  1  0.07407751  0.07944796  0.58364905  1  -0.837101  0  -0.195659  -0.434324  0  1.259627  0
F  F131  1  0.42592153  0.92055047  0.58365018  1  -0.837383  0  -0.195678  -0.434344  0  1.259627  0
