# generated using pymatgen
data_CuH4C8(NO2)3
_symmetry_space_group_name_H-M   'P 1'
_cell_length_a   4.78367987
_cell_length_b   10.72429393
_cell_length_c   20.36897544
_cell_angle_alpha   90.00051242
_cell_angle_beta   89.99954723
_cell_angle_gamma   95.95580790
_symmetry_Int_Tables_number   1
_chemical_formula_structural   CuH4C8(NO2)3
_chemical_formula_sum   'Cu4 H16 C32 N12 O24'
_cell_volume   1039.32033883
_cell_formula_units_Z   4
loop_
 _symmetry_equiv_pos_site_id
 _symmetry_equiv_pos_as_xyz
  1  'x, y, z'
loop_
 _atom_site_type_symbol
 _atom_site_label
 _atom_site_symmetry_multiplicity
 _atom_site_fract_x
 _atom_site_fract_y
 _atom_site_fract_z
 _atom_site_occupancy
 _atom_site_pbe_bader_charge
 _atom_site_pbe_bader_spin_density
 _atom_site_pbe_cm5_charge
 _atom_site_pbe_ddec_charge
 _atom_site_pbe_ddec_spin_density
 _atom_site_pbe_ddec_sum_bond_order
 _atom_site_pbe_magmom
Cu  Cu0  1  0.36627959  0.97078147  0.83724434  1  1.078207  0.56006  0.748912  0.769845  0.876721  2.288055  0.559
Cu  Cu1  1  0.63390675  0.52922009  0.33724588  1  1.078173  0.560047  0.748933  0.769934  0.876562  2.287978  0.559
Cu  Cu2  1  0.63391879  0.02922104  0.16275336  1  1.078293  0.56005  0.748945  0.769709  0.876571  2.288134  0.559
Cu  Cu3  1  0.36627412  0.47077124  0.66275525  1  1.078237  0.56006  0.748901  0.769842  0.876733  2.287977  0.559
H  H4  1  0.35703131  0.95458040  0.58407007  1  0.126913  0.00105  0.114967  0.078387  -6.7e-05  1.016941  0.001
H  H5  1  0.64271019  0.54573196  0.08405154  1  0.129814  0.001501  0.114813  0.078547  0.000743  1.017067  0.001
H  H6  1  0.64271109  0.04573877  0.41595120  1  0.129723  0.001501  0.114821  0.07855  0.000743  1.017002  0.001
H  H7  1  0.35701319  0.45458636  0.91592751  1  0.126976  0.001051  0.114912  0.078315  -6.7e-05  1.016792  0.001
H  H8  1  0.52746796  0.05036185  0.69226222  1  0.212425  0.002243  0.127495  0.124901  0.001312  1.028493  0.002
H  H9  1  0.47264087  0.44971390  0.19223365  1  0.212822  0.002278  0.127652  0.125125  0.001413  1.027712  0.002
H  H10  1  0.47266061  0.94971891  0.30776837  1  0.212923  0.002277  0.127714  0.125233  0.001413  1.027541  0.002
H  H11  1  0.52745422  0.55035857  0.80773214  1  0.212504  0.002243  0.12752  0.12494  0.001312  1.028438  0.002
H  H12  1  0.69435217  0.84221260  0.93248171  1  0.156561  0.001566  0.132568  0.116967  -0.000452  0.985331  0.002
H  H13  1  0.30565069  0.65774627  0.43246631  1  0.156368  0.004268  0.132479  0.11692  0.003346  0.985365  0.002
H  H14  1  0.30562449  0.15774875  0.06753171  1  0.15638  0.004267  0.132483  0.116934  0.003346  0.98535  0.002
H  H15  1  0.69438018  0.34220636  0.56751372  1  0.156125  0.001566  0.132536  0.11698  -0.000454  0.985308  0.002
H  H16  1  0.22469749  0.14777805  0.94424154  1  0.188428  0.003387  0.121896  0.098781  0.002457  1.045095  0.002
H  H17  1  0.77523397  0.35213633  0.44423108  1  0.187905  0.002568  0.122015  0.09899  0.001027  1.045111  0.002
H  H18  1  0.77517663  0.85213405  0.05576402  1  0.187774  0.00257  0.122028  0.098952  0.001027  1.045131  0.002
H  H19  1  0.22470070  0.64777548  0.55575877  1  0.188508  0.003387  0.121904  0.09875  0.002458  1.045049  0.002
C  C20  1  0.12404020  0.80254947  0.74492142  1  0.546341  0.000867  0.119396  0.051546  0.000766  3.902866  0.0
C  C21  1  0.87616707  0.69746464  0.24493851  1  0.545368  0.0015  0.119688  0.051895  0.001295  3.902662  0.001
C  C22  1  0.87618844  0.19746509  0.25506303  1  0.545251  0.001497  0.119661  0.05182  0.001294  3.902583  0.001
C  C23  1  0.12402954  0.30254727  0.75508079  1  0.546435  0.000869  0.119484  0.05169  0.000767  3.902676  0.0
C  C24  1  0.02361153  0.75328671  0.68489825  1  0.537839  0.010411  0.136379  0.095836  0.008999  3.90659  0.008
C  C25  1  0.97659557  0.74676777  0.18492324  1  0.538987  0.01063  0.136229  0.096017  0.009254  3.906182  0.008
C  C26  1  0.97659904  0.24677957  0.31507932  1  0.538971  0.010626  0.136241  0.096098  0.00925  3.906131  0.008
C  C27  1  0.02358561  0.25328175  0.81510244  1  0.537786  0.010407  0.136306  0.09579  0.008997  3.906637  0.008
C  C28  1  0.28560766  0.91147381  0.63047296  1  0.487455  0.006631  0.063729  0.080264  0.005742  3.922508  0.005
C  C29  1  0.71434781  0.58869275  0.13047315  1  0.48467  0.006341  0.06424  0.080569  0.0047  3.922661  0.005
C  C30  1  0.71434735  0.08870447  0.36952769  1  0.484697  0.006341  0.064167  0.080507  0.004699  3.922387  0.005
C  C31  1  0.28559339  0.41147246  0.86952602  1  0.487307  0.006631  0.063876  0.080503  0.005742  3.922241  0.005
C  C32  1  0.38162338  0.96541086  0.68988639  1  0.563476  0.001386  0.066601  0.08011  0.001784  3.842029  0.001
C  C33  1  0.61841275  0.53468677  0.18987473  1  0.564602  0.000961  0.066516  0.079825  0.001642  3.841582  0.001
C  C34  1  0.61843829  0.03468618  0.31012506  1  0.56457  0.000962  0.066397  0.079611  0.001643  3.841477  0.001
C  C35  1  0.38160716  0.46541047  0.81011168  1  0.563424  0.001388  0.066478  0.079904  0.001787  3.842154  0.001
C  C36  1  0.06887662  0.74055365  0.81059228  1  1.628216  -0.001351  0.203753  0.544097  -0.000425  4.241034  -0.002
C  C37  1  0.93134038  0.75941732  0.31061201  1  1.628616  -0.001191  0.203786  0.544183  0.000166  4.240837  -0.002
C  C38  1  0.93136649  0.25941955  0.18938628  1  1.628724  -0.001192  0.203759  0.544309  0.000167  4.240918  -0.002
C  C39  1  0.06888178  0.24054753  0.68940729  1  1.628265  -0.00135  0.203782  0.54405  -0.000425  4.241032  -0.002
C  C40  1  0.83172378  0.63280542  0.67810501  1  1.631342  -0.000362  0.211322  0.566992  -4.8e-05  4.221845  -0.003
C  C41  1  0.16850368  0.86722163  0.17813161  1  1.630085  -0.000325  0.211013  0.566953  1e-06  4.221725  -0.003
C  C42  1  0.16848832  0.36722612  0.32187109  1  1.630529  -0.000327  0.211073  0.566949  2e-06  4.222071  -0.003
C  C43  1  0.83172231  0.13280702  0.82189654  1  1.631251  -0.000362  0.21132  0.567149  -4.9e-05  4.221817  -0.003
C  C44  1  0.60628740  0.91189380  0.96298079  1  0.473806  0.00209  0.065749  0.065053  0.001104  3.861071  0.003
C  C45  1  0.39366807  0.58805545  0.46296784  1  0.465442  0.004287  0.066056  0.065193  0.004459  3.860445  0.003
C  C46  1  0.39364324  0.08805932  0.03703164  1  0.465262  0.004287  0.066023  0.065094  0.00446  3.860333  0.003
C  C47  1  0.60631831  0.41190304  0.53701759  1  0.474307  0.002091  0.065723  0.064941  0.001104  3.861244  0.003
C  C48  1  0.34763800  0.08200419  0.96952531  1  0.508036  0.003622  0.062635  0.058293  0.004005  3.855203  0.003
C  C49  1  0.65235503  0.41794969  0.46951441  1  0.508129  0.002118  0.062861  0.058283  0.00159  3.855798  0.002
C  C50  1  0.65231586  0.91794975  0.03048467  1  0.508372  0.002118  0.0628  0.058183  0.001591  3.855467  0.002
C  C51  1  0.34765031  0.58200119  0.53047397  1  0.508054  0.003624  0.062573  0.058268  0.004007  3.855174  0.003
N  N52  1  0.29974506  0.90912413  0.74615622  1  -1.206606  0.084113  -0.327488  -0.201207  0.068388  3.621011  0.073
N  N53  1  0.70040781  0.59090622  0.24615449  1  -1.206751  0.083809  -0.327816  -0.201706  0.068092  3.621161  0.073
N  N54  1  0.70045002  0.09089811  0.25384541  1  -1.206927  0.083809  -0.327765  -0.201554  0.068088  3.621247  0.073
N  N55  1  0.29973812  0.40912001  0.75384272  1  -1.20667  0.084113  -0.327438  -0.201137  0.068389  3.621172  0.073
N  N56  1  0.10732431  0.80732210  0.62762148  1  -1.207452  0.001822  -0.295821  -0.248057  0.001022  3.314815  0.0
N  N57  1  0.89271822  0.69281677  0.12763705  1  -1.207364  0.000705  -0.295869  -0.24837  -0.000914  3.315091  0.001
N  N58  1  0.89271583  0.19282948  0.37236394  1  -1.207564  0.000704  -0.295808  -0.248348  -0.000915  3.314969  0.001
N  N59  1  0.10730578  0.30732081  0.87237783  1  -1.207234  0.001821  -0.295848  -0.248169  0.001021  3.314668  0.0
N  N60  1  0.45402410  0.99376988  0.93310530  1  -1.18352  0.069014  -0.32035  -0.15734  0.056729  3.571949  0.061
N  N61  1  0.54596212  0.50617313  0.43309315  1  -1.175486  0.069634  -0.320886  -0.157979  0.057081  3.57223  0.061
N  N62  1  0.54593618  0.00617653  0.06690861  1  -1.175233  0.069625  -0.320839  -0.157727  0.057076  3.571947  0.061
N  N63  1  0.45403992  0.49377307  0.56689424  1  -1.183604  0.069003  -0.32026  -0.157238  0.056722  3.571802  0.06
O  O64  1  0.18780078  0.80111771  0.85995463  1  -1.095204  0.119369  -0.333898  -0.545291  0.092006  2.312381  0.109
O  O65  1  0.81242288  0.69885305  0.35997578  1  -1.096101  0.120859  -0.333498  -0.545043  0.093903  2.312629  0.109
O  O66  1  0.81244322  0.19885079  0.14002392  1  -1.095977  0.120863  -0.333467  -0.545039  0.093905  2.312714  0.109
O  O67  1  0.18780899  0.30110893  0.64004352  1  -1.095092  0.11937  -0.333919  -0.545295  0.092006  2.312321  0.109
O  O68  1  0.92745633  0.63680137  0.81418394  1  -1.146777  0.023967  -0.296606  -0.497361  0.017716  2.160489  0.02
O  O69  1  0.07277518  0.86316958  0.31421070  1  -1.145896  0.035282  -0.296969  -0.497578  0.027312  2.159911  0.029
O  O70  1  0.07280068  0.36316894  0.18578725  1  -1.146067  0.035288  -0.296942  -0.497645  0.027317  2.160174  0.029
O  O71  1  0.92747179  0.13679421  0.68581843  1  -1.146874  0.023973  -0.296626  -0.497374  0.017721  2.160695  0.02
O  O72  1  0.56882627  0.63820919  0.68773659  1  -1.108951  0.098279  -0.311417  -0.516418  0.076912  2.317422  0.088
O  O73  1  0.43138807  0.86178428  0.18775578  1  -1.109042  0.09841  -0.31136  -0.516335  0.07711  2.317286  0.088
O  O74  1  0.43137652  0.36179423  0.31224786  1  -1.109062  0.098405  -0.311418  -0.516431  0.077105  2.317423  0.088
O  O75  1  0.56882902  0.13820969  0.81226646  1  -1.108859  0.098273  -0.311324  -0.516345  0.076909  2.31751  0.088
O  O76  1  0.93617056  0.53701526  0.65817339  1  -1.168942  0.002456  -0.317743  -0.583075  0.001432  2.359605  0.004
O  O77  1  0.06411160  0.96304313  0.15821389  1  -1.169513  0.002401  -0.317407  -0.582998  0.001176  2.359399  0.004
O  O78  1  0.06409775  0.46304792  0.34178307  1  -1.169528  0.002398  -0.317439  -0.582994  0.001173  2.359565  0.004
O  O79  1  0.93616297  0.03702002  0.84183438  1  -1.169024  0.002455  -0.31783  -0.583252  0.001432  2.359488  0.004
O  O80  1  0.82839598  0.87211755  0.48932583  1  -0.011159  0.95626  0.009824  -0.001576  0.743318  1.921552  0.779
O  O81  1  0.17089687  0.62766451  0.98921749  1  -0.011747  -0.954976  0.009824  -0.001185  -0.96647  1.920243  -0.778
O  O82  1  0.17085885  0.12766240  0.51078430  1  -0.012007  -0.954983  0.009828  -0.001181  -0.966447  1.920736  -0.778
O  O83  1  0.82837587  0.37212004  0.01067466  1  -0.011111  0.956263  0.009843  -0.00156  0.743331  1.921173  0.779
O  O84  1  0.07703125  0.87503327  0.47328156  1  -0.009282  0.960997  0.01853  0.020027  0.743588  1.931042  0.786
O  O85  1  0.92180148  0.62456680  0.97346684  1  -0.010478  -0.958971  0.017294  0.018099  -0.966526  1.930246  -0.784
O  O86  1  0.92180106  0.12456663  0.52653253  1  -0.01021  -0.958974  0.017299  0.01811  -0.966524  1.930735  -0.784
O  O87  1  0.07705933  0.37503016  0.02671840  1  -0.00935  0.960997  0.018503  0.019993  0.7436  1.930654  0.786
