# generated using pymatgen
data_CaP2H12(C2O)6
_symmetry_space_group_name_H-M   'P 1'
_cell_length_a   5.57800452
_cell_length_b   7.68260880
_cell_length_c   15.79796207
_cell_angle_alpha   101.38687454
_cell_angle_beta   100.20161891
_cell_angle_gamma   90.00616442
_symmetry_Int_Tables_number   1
_chemical_formula_structural   CaP2H12(C2O)6
_chemical_formula_sum   'Ca2 P4 H24 C24 O12'
_cell_volume   652.75012282
_cell_formula_units_Z   2
loop_
 _symmetry_equiv_pos_site_id
 _symmetry_equiv_pos_as_xyz
  1  'x, y, z'
loop_
 _atom_site_type_symbol
 _atom_site_label
 _atom_site_symmetry_multiplicity
 _atom_site_fract_x
 _atom_site_fract_y
 _atom_site_fract_z
 _atom_site_occupancy
 _atom_site_hle17_bader_spin_density
 _atom_site_hle17_ddec_charge
 _atom_site_hle17_ddec_spin_density
 _atom_site_hle17_ddec_sum_bond_order
 _atom_site_hle17_magmom
 _atom_site_hse06_10hf_bader_spin_density
 _atom_site_hse06_10hf_ddec_charge
 _atom_site_hse06_10hf_ddec_spin_density
 _atom_site_hse06_10hf_ddec_sum_bond_order
 _atom_site_hse06_10hf_magmom
 _atom_site_hse06_bader_spin_density
 _atom_site_hse06_ddec_charge
 _atom_site_hse06_ddec_spin_density
 _atom_site_hse06_ddec_sum_bond_order
 _atom_site_hse06_magmom
 _atom_site_pbe_bader_spin_density
 _atom_site_pbe_cm5_charge
 _atom_site_pbe_ddec_charge
 _atom_site_pbe_ddec_spin_density
 _atom_site_pbe_ddec_sum_bond_order
 _atom_site_pbe_magmom
Ca  Ca0  1  0.89689575  0.25004615  0.99999775  1  0  1.638895  0  1.005982  0  0  1.513049  0  1.339765  0  0  1.552002  0  1.299096  0  0  0.934986  1.483646  0  1.368613  0
Ca  Ca1  1  0.10310113  0.74995388  0.00000236  1  0  1.638871  0  1.006018  0  0  1.513058  0  1.339771  0  0  1.551993  0  1.299132  0  0  0.934974  1.483653  0  1.36862  0
P  P2  1  0.40525478  0.41741833  0.12439847  1  0  1.49224  0  4.827331  0  0  1.33162  0  5.319001  0  0  1.38289  0  5.278572  0  0  0.37926  1.295751  0  5.346434  0
P  P3  1  0.28046928  0.08252186  0.87563702  1  0  1.491695  0  4.829045  0  0  1.331308  0  5.320587  0  0  1.382537  0  5.280156  0  0  0.378736  1.295467  0  5.348026  0
P  P4  1  0.59474378  0.58257905  0.87559959  1  0  1.492249  0  4.827284  0  0  1.331632  0  5.318948  0  0  1.382904  0  5.278515  0  0  0.379247  1.295762  0  5.346384  0
P  P5  1  0.71952402  0.91747949  0.12436426  1  0  1.491661  0  4.828933  0  0  1.331286  0  5.320482  0  0  1.382516  0  5.280042  0  0  0.378729  1.295445  0  5.347922  0
H  H6  1  0.36583238  0.10240759  0.10741604  1  0  0.452568  0  0.850547  0  0  0.416596  0  0.921047  0  0  0.429107  0  0.903176  0  0  0.324417  0.407816  0  0.933556  0
H  H7  1  0.25806724  0.39741048  0.89260089  1  0  0.452191  0  0.851014  0  0  0.416497  0  0.9211  0  0  0.429014  0  0.90322  0  0  0.324138  0.407714  0  0.933613  0
H  H8  1  0.63416443  0.89759110  0.89258521  1  0  0.452607  0  0.850504  0  0  0.416633  0  0.921005  0  0  0.429144  0  0.903135  0  0  0.324429  0.407854  0  0.933513  0
H  H9  1  0.74192964  0.60258954  0.10739986  1  0  0.452125  0  0.851092  0  0  0.416435  0  0.921171  0  0  0.428951  0  0.903293  0  0  0.324121  0.407653  0  0.933683  0
H  H10  1  0.77083568  0.39717183  0.28097213  1  0  0.090254  0  0.975467  0  0  0.099377  0  1.041535  0  0  0.101245  0  1.04244  0  0  0.100606  0.09799  0  1.041029  0
H  H11  1  0.48913155  0.10294877  0.71903590  1  0  0.089274  0  0.975592  0  0  0.098756  0  1.041285  0  0  0.100747  0  1.041999  0  0  0.100298  0.097285  0  1.040904  0
H  H12  1  0.22916868  0.60283220  0.71902631  1  0  0.090203  0  0.975476  0  0  0.099327  0  1.041562  0  0  0.101194  0  1.042466  0  0  0.100599  0.097939  0  1.041058  0
H  H13  1  0.51086201  0.89705790  0.28096529  1  0  0.08933  0  0.975607  0  0  0.098822  0  1.041266  0  0  0.100813  0  1.041977  0  0  0.100306  0.09735  0  1.040888  0
H  H14  1  0.78181982  0.51514910  0.43921361  1  0  0.08037  0  0.96234  0  0  0.091664  0  1.024641  0  0  0.094121  0  1.024164  0  0  0.095625  0.089931  0  1.025046  0
H  H15  1  0.34141909  0.98476387  0.56082308  1  0  0.080939  0  0.962323  0  0  0.092007  0  1.024824  0  0  0.094432  0  1.024413  0  0  0.09655  0.090279  0  1.025215  0
H  H16  1  0.21819392  0.48486024  0.56078593  1  0  0.080414  0  0.962289  0  0  0.091702  0  1.024594  0  0  0.094158  0  1.024118  0  0  0.095638  0.089968  0  1.024999  0
H  H17  1  0.65857798  0.01524014  0.43917806  1  0  0.081064  0  0.962251  0  0  0.092116  0  1.024763  0  0  0.094541  0  1.024353  0  0  0.096598  0.090388  0  1.025154  0
H  H18  1  0.44198720  0.69609556  0.48867324  1  0  0.076146  0  0.98401  0  0  0.086636  0  1.050338  0  0  0.088965  0  1.049609  0  0  0.094999  0.084941  0  1.050959  0
H  H19  1  0.95219198  0.80370095  0.51133259  1  0  0.076245  0  0.983503  0  0  0.086783  0  1.049839  0  0  0.089138  0  1.049087  0  0  0.094777  0.085076  0  1.050447  0
H  H20  1  0.55802290  0.30391380  0.51132418  1  0  0.076149  0  0.984046  0  0  0.086674  0  1.050329  0  0  0.089004  0  1.0496  0  0  0.095032  0.084976  0  1.050948  0
H  H21  1  0.04780860  0.19630040  0.48866789  1  0  0.076225  0  0.983518  0  0  0.086766  0  1.049849  0  0  0.089123  0  1.049097  0  0  0.094761  0.085058  0  1.050459  0
H  H22  1  0.09038376  0.75675531  0.37791960  1  0  0.082544  0  0.980739  0  0  0.092982  0  1.043886  0  0  0.094633  0  1.045545  0  0  0.095503  0.091772  0  1.042893  0
H  H23  1  0.71157729  0.74282878  0.62209854  1  0  0.081855  0  0.981115  0  0  0.092165  0  1.044477  0  0  0.093821  0  1.046135  0  0  0.094619  0.090946  0  1.043483  0
H  H24  1  0.90962222  0.24324473  0.62207919  1  0  0.082532  0  0.980742  0  0  0.092959  0  1.043898  0  0  0.09461  0  1.045559  0  0  0.095497  0.091748  0  1.042906  0
H  H25  1  0.28842127  0.25716859  0.37790079  1  0  0.081866  0  0.981107  0  0  0.092176  0  1.044471  0  0  0.093831  0  1.046128  0  0  0.094621  0.090938  0  1.043493  0
H  H26  1  0.07729257  0.63459790  0.21992863  1  0  0.104846  0  0.974307  0  0  0.112763  0  1.038537  0  0  0.116053  0  1.036683  0  0  0.110731  0.110288  0  1.040065  0
H  H27  1  0.85701245  0.86510117  0.78007804  1  0  0.104335  0  0.975686  0  0  0.112028  0  1.040107  0  0  0.115272  0  1.038347  0  0  0.110502  0.109642  0  1.04149  0
H  H28  1  0.92270235  0.36539948  0.78007047  1  0  0.104863  0  0.974303  0  0  0.112749  0  1.038561  0  0  0.116038  0  1.036709  0  0  0.110731  0.110264  0  1.040102  0
H  H29  1  0.14298618  0.13489753  0.21992205  1  0  0.10438  0  0.975646  0  0  0.112074  0  1.040066  0  0  0.115318  0  1.038305  0  0  0.110519  0.109687  0  1.041448  0
C  C30  1  0.42117713  0.50619569  0.24005008  1  0  -0.259542  0  3.772203  0  0  -0.215445  0  4.010157  0  0  -0.226023  0  4.031696  0  0  -0.023751  -0.208434  0  3.995764  0
C  C31  1  0.18061241  0.99367191  0.75996853  1  0  -0.258865  0  3.773656  0  0  -0.215249  0  4.012135  0  0  -0.225777  0  4.033602  0  0  -0.023777  -0.208308  0  3.997869  0
C  C32  1  0.57882717  0.49380700  0.75994949  1  0  -0.259568  0  3.772252  0  0  -0.215461  0  4.010195  0  0  -0.226041  0  4.031734  0  0  -0.023688  -0.208451  0  3.995802  0
C  C33  1  0.81938082  0.00632812  0.24003136  1  0  -0.258848  0  3.773502  0  0  -0.215201  0  4.011961  0  0  -0.22573  0  4.033428  0  0  -0.02374  -0.208256  0  3.997689  0
C  C34  1  0.62050027  0.47420431  0.30222523  1  0  -0.036309  0  3.749448  0  0  -0.059843  0  3.990584  0  0  -0.059261  0  4.013207  0  0  -0.081605  -0.060043  0  3.975223  0
C  C35  1  0.31759670  0.02572396  0.69781771  1  0  -0.036295  0  3.74948  0  0  -0.059882  0  3.990581  0  0  -0.059377  0  4.013189  0  0  -0.081392  -0.060019  0  3.975228  0
C  C36  1  0.37950409  0.52579970  0.69777447  1  0  -0.03629  0  3.749453  0  0  -0.059834  0  3.990583  0  0  -0.05925  0  4.013204  0  0  -0.081681  -0.060037  0  3.975225  0
C  C37  1  0.68240362  0.97427207  0.30218350  1  0  -0.036372  0  3.749534  0  0  -0.059975  0  3.990655  0  0  -0.059471  0  4.013265  0  0  -0.081438  -0.060116  0  3.975306  0
C  C38  1  0.62711450  0.54210993  0.39135339  1  0  -0.089773  0  3.780922  0  0  -0.099406  0  4.02965  0  0  -0.103127  0  4.051443  0  0  -0.094657  -0.09693  0  4.014817  0
C  C39  1  0.23476910  0.95773696  0.60869580  1  0  -0.088597  0  3.78159  0  0  -0.098051  0  4.03025  0  0  -0.101773  0  4.052096  0  0  -0.09509  -0.095572  0  4.015372  0
C  C40  1  0.37289338  0.45789143  0.60864627  1  0  -0.089734  0  3.780649  0  0  -0.099372  0  4.029417  0  0  -0.103094  0  4.051212  0  0  -0.094606  -0.096894  0  4.014583  0
C  C41  1  0.76522602  0.04226439  0.39130560  1  0  -0.08868  0  3.781481  0  0  -0.098129  0  4.030174  0  0  -0.101849  0  4.052016  0  0  -0.095096  -0.095649  0  4.015297  0
C  C42  1  0.43646623  0.64313680  0.41902511  1  0  -0.072826  0  3.772031  0  0  -0.085871  0  4.015656  0  0  -0.086285  0  4.036374  0  0  -0.091899  -0.085347  0  4.001433  0
C  C43  1  0.01642096  0.85660777  0.58100605  1  0  -0.072691  0  3.77279  0  0  -0.085849  0  4.016263  0  0  -0.086275  0  4.036964  0  0  -0.090882  -0.085315  0  4.002045  0
C  C44  1  0.56354704  0.35686323  0.58097539  1  0  -0.072825  0  3.77194  0  0  -0.085901  0  4.015573  0  0  -0.086315  0  4.03629  0  0  -0.091898  -0.085373  0  4.001345  0
C  C45  1  0.98357767  0.14339092  0.41899594  1  0  -0.072651  0  3.772631  0  0  -0.085798  0  4.016077  0  0  -0.086226  0  4.03678  0  0  -0.09086  -0.085263  0  4.001853  0
C  C46  1  0.23860886  0.67623700  0.35730155  1  0  -0.078538  0  3.755825  0  0  -0.087807  0  4.000103  0  0  -0.091582  0  4.022615  0  0  -0.093431  -0.085286  0  3.984748  0
C  C47  1  0.88040814  0.82346842  0.64270219  1  0  -0.078582  0  3.756104  0  0  -0.087745  0  4.000139  0  0  -0.091508  0  4.022659  0  0  -0.09347  -0.085219  0  3.984802  0
C  C48  1  0.76140063  0.32376036  0.64270036  1  0  -0.078564  0  3.755931  0  0  -0.087823  0  4.000217  0  0  -0.091597  0  4.02273  0  0  -0.093477  -0.0853  0  3.984856  0
C  C49  1  0.11958860  0.17652896  0.35729702  1  0  -0.078627  0  3.756071  0  0  -0.087796  0  4.000127  0  0  -0.09156  0  4.022648  0  0  -0.093502  -0.085256  0  3.984798  0
C  C50  1  0.22996649  0.60726898  0.26817350  1  0  -0.031342  0  3.722487  0  0  -0.053646  0  3.963541  0  0  -0.052337  0  3.982778  0  0  -0.074421  -0.054323  0  3.950552  0
C  C51  1  0.96121716  0.89251036  0.73182946  1  0  -0.031931  0  3.725418  0  0  -0.053796  0  3.966353  0  0  -0.052493  0  3.985545  0  0  -0.074659  -0.054487  0  3.953366  0
C  C52  1  0.77003214  0.39272972  0.73182596  1  0  -0.031322  0  3.722601  0  0  -0.053601  0  3.963641  0  0  -0.052291  0  3.982878  0  0  -0.074416  -0.054271  0  3.950657  0
C  C53  1  0.03877958  0.10748702  0.26816976  1  0  -0.031976  0  3.725267  0  0  -0.053856  0  3.966212  0  0  -0.052557  0  3.985412  0  0  -0.07467  -0.054546  0  3.953218  0
O  O54  1  0.66424076  0.41469038  0.10438653  1  0  -0.875061  0  1.939849  0  0  -0.791696  0  2.192219  0  0  -0.81795  0  2.171589  0  0  -0.38639  -0.772942  0  2.206047  0
O  O55  1  0.55955902  0.08545883  0.89566067  1  0  -0.87555  0  1.941766  0  0  -0.791846  0  2.193846  0  0  -0.818246  0  2.173522  0  0  -0.385742  -0.772978  0  2.207458  0
O  O56  1  0.33575963  0.58530699  0.89561354  1  0  -0.875116  0  1.939806  0  0  -0.791755  0  2.192182  0  0  -0.818005  0  2.171548  0  0  -0.386439  -0.772998  0  2.206008  0
O  O57  1  0.44043590  0.91453855  0.10433906  1  0  -0.875469  0  1.941718  0  0  -0.791821  0  2.193854  0  0  -0.818216  0  2.173527  0  0  -0.385716  -0.772951  0  2.207464  0
O  O58  1  0.21856696  0.51583283  0.07168952  1  0  -0.932336  0  1.979295  0  0  -0.854747  0  2.25426  0  0  -0.882605  0  2.235862  0  0  -0.429222  -0.834564  0  2.266219  0
O  O59  1  0.14674668  0.98405189  0.92834095  1  0  -0.93145  0  1.979323  0  0  -0.854448  0  2.254789  0  0  -0.882212  0  2.236326  0  0  -0.429777  -0.834347  0  2.266854  0
O  O60  1  0.78143349  0.48416587  0.92831006  1  0  -0.932348  0  1.979268  0  0  -0.854731  0  2.254209  0  0  -0.88259  0  2.235811  0  0  -0.429217  -0.834545  0  2.266169  0
O  O61  1  0.85324810  0.01594282  0.07165789  1  0  -0.931459  0  1.979344  0  0  -0.854409  0  2.254722  0  0  -0.882175  0  2.236256  0  0  -0.429789  -0.834311  0  2.26679  0
O  O62  1  0.28454341  0.22352287  0.10495052  1  0  -0.822247  0  2.14733  0  0  -0.739285  0  2.390209  0  0  -0.763397  0  2.363901  0  0  -0.392849  -0.722055  0  2.408074  0
O  O63  1  0.17917524  0.27636254  0.89509916  1  0  -0.822463  0  2.14838  0  0  -0.739621  0  2.391034  0  0  -0.76375  0  2.364753  0  0  -0.392718  -0.722375  0  2.408872  0
O  O64  1  0.71544975  0.77647582  0.89505176  1  0  -0.82225  0  2.14733  0  0  -0.739319  0  2.390238  0  0  -0.763428  0  2.36393  0  0  -0.392842  -0.722089  0  2.408107  0
O  O65  1  0.82082535  0.72363881  0.10490194  1  0  -0.822437  0  2.148381  0  0  -0.739625  0  2.391059  0  0  -0.763746  0  2.364774  0  0  -0.392739  -0.72238  0  2.408899  0
