# generated using pymatgen
data_CdH6C8(SN3)2
_symmetry_space_group_name_H-M   'P 1'
_cell_length_a   7.92816022
_cell_length_b   7.92817726
_cell_length_c   10.86200982
_cell_angle_alpha   74.40742686
_cell_angle_beta   74.40711228
_cell_angle_gamma   64.72964797
_symmetry_Int_Tables_number   1
_chemical_formula_structural   CdH6C8(SN3)2
_chemical_formula_sum   'Cd2 H12 C16 S4 N12'
_cell_volume   585.30776787
_cell_formula_units_Z   2
loop_
 _symmetry_equiv_pos_site_id
 _symmetry_equiv_pos_as_xyz
  1  'x, y, z'
loop_
 _atom_site_type_symbol
 _atom_site_label
 _atom_site_symmetry_multiplicity
 _atom_site_fract_x
 _atom_site_fract_y
 _atom_site_fract_z
 _atom_site_occupancy
 _atom_site_hle17_bader_spin_density
 _atom_site_hle17_ddec_charge
 _atom_site_hle17_ddec_spin_density
 _atom_site_hle17_ddec_sum_bond_order
 _atom_site_hle17_magmom
 _atom_site_hse06_10hf_bader_spin_density
 _atom_site_hse06_10hf_ddec_charge
 _atom_site_hse06_10hf_ddec_spin_density
 _atom_site_hse06_10hf_ddec_sum_bond_order
 _atom_site_hse06_10hf_magmom
 _atom_site_hse06_bader_spin_density
 _atom_site_hse06_ddec_charge
 _atom_site_hse06_ddec_spin_density
 _atom_site_hse06_ddec_sum_bond_order
 _atom_site_hse06_magmom
 _atom_site_pbe_bader_spin_density
 _atom_site_pbe_cm5_charge
 _atom_site_pbe_ddec_charge
 _atom_site_pbe_ddec_spin_density
 _atom_site_pbe_ddec_sum_bond_order
 _atom_site_pbe_magmom
Cd  Cd0  1  0.57859453  0.42140446  0.24999946  1  0  0.958645  0  2.004354  0  0  0.78591  0  2.464998  0  0  0.828265  0  2.431226  0  0  0.728039  0.757676  0  2.486702  0
Cd  Cd1  1  0.42140466  0.57859687  0.74999836  1  0  0.958614  0  2.004369  0  0  0.785883  0  2.464998  0  0  0.828238  0  2.431226  0  0  0.728022  0.757648  0  2.486702  0
H  H2  1  0.24770744  0.88746890  0.12581252  1  0  0.30695  0  0.9131  0  0  0.291263  0  0.968992  0  0  0.298938  0  0.963228  0  0  0.31221  0.285815  0  0.973214  0
H  H3  1  0.11252987  0.75229283  0.37418756  1  0  0.306987  0  0.913078  0  0  0.291299  0  0.968967  0  0  0.298976  0  0.963202  0  0  0.312214  0.285852  0  0.973188  0
H  H4  1  0.75229099  0.11253102  0.87418940  1  0  0.306941  0  0.9131  0  0  0.291251  0  0.968996  0  0  0.298927  0  0.963231  0  0  0.312191  0.285804  0  0.973218  0
H  H5  1  0.88746880  0.24770992  0.62581101  1  0  0.306959  0  0.913079  0  0  0.291269  0  0.968972  0  0  0.298945  0  0.963207  0  0  0.312205  0.285822  0  0.973194  0
H  H6  1  0.92056160  0.41571307  0.92565975  1  0  0.096579  0  0.977401  0  0  0.101736  0  1.048477  0  0  0.104101  0  1.047912  0  0  0.104717  0.099997  0  1.049136  0
H  H7  1  0.58428105  0.07943934  0.57434201  1  0  0.096625  0  0.977395  0  0  0.101816  0  1.048436  0  0  0.104182  0  1.04787  0  0  0.104723  0.100071  0  1.049095  0
H  H8  1  0.07944051  0.58428400  0.07434017  1  0  0.096554  0  0.977384  0  0  0.101715  0  1.048459  0  0  0.10408  0  1.047893  0  0  0.104703  0.099975  0  1.049118  0
H  H9  1  0.41571791  0.92055917  0.42565917  1  0  0.09657  0  0.977397  0  0  0.101732  0  1.048464  0  0  0.104098  0  1.047898  0  0  0.104703  0.099992  0  1.049123  0
H  H10  1  0.26182513  0.09961719  0.91004743  1  0  0.105142  0  0.969978  0  0  0.112279  0  1.038859  0  0  0.114883  0  1.037883  0  0  0.112214  0.110784  0  1.038735  0
H  H11  1  0.90037881  0.73817877  0.58995305  1  0  0.105101  0  0.97001  0  0  0.112266  0  1.038859  0  0  0.11487  0  1.037883  0  0  0.11221  0.110771  0  1.038733  0
H  H12  1  0.73817568  0.90037989  0.08995459  1  0  0.105112  0  0.970005  0  0  0.112259  0  1.038875  0  0  0.114862  0  1.037899  0  0  0.112211  0.110763  0  1.03875  0
H  H13  1  0.09962302  0.26182255  0.41004701  1  0  0.105099  0  0.969935  0  0  0.112252  0  1.038805  0  0  0.114856  0  1.03783  0  0  0.112203  0.110757  0  1.038681  0
C  C14  1  0.97270568  0.29072674  0.99798409  1  0  0.016329  0  3.724509  0  0  -0.016848  0  3.995278  0  0  -0.015231  0  4.015181  0  0  -0.004092  -0.018413  0  3.982362  0
C  C15  1  0.70926857  0.02729704  0.50201770  1  0  0.016279  0  3.724671  0  0  -0.016947  0  3.99544  0  0  -0.01533  0  4.015341  0  0  -0.004119  -0.018502  0  3.982516  0
C  C16  1  0.02729327  0.70927176  0.00201617  1  0  0.016369  0  3.724473  0  0  -0.01681  0  3.995243  0  0  -0.015193  0  4.015144  0  0  -0.004086  -0.018374  0  3.982325  0
C  C17  1  0.29073010  0.97270572  0.49798454  1  0  0.016335  0  3.724598  0  0  -0.016846  0  3.995365  0  0  -0.015229  0  4.015266  0  0  -0.004095  -0.01841  0  3.982447  0
C  C18  1  0.14179889  0.13587831  0.98836848  1  0  0.010654  0  3.657356  0  0  -0.031038  0  3.926669  0  0  -0.029208  0  3.945329  0  0  0.001147  -0.032169  0  3.913513  0
C  C19  1  0.86411860  0.85820234  0.51163261  1  0  0.010787  0  3.657376  0  0  -0.030919  0  3.926676  0  0  -0.029087  0  3.945338  0  0  0.001179  -0.032052  0  3.91352  0
C  C20  1  0.85820138  0.86412019  0.01163244  1  0  0.010689  0  3.657418  0  0  -0.031013  0  3.926727  0  0  -0.029182  0  3.945387  0  0  0.001154  -0.032144  0  3.91357  0
C  C21  1  0.13588192  0.14179899  0.48836955  1  0  0.010748  0  3.657379  0  0  -0.030958  0  3.926679  0  0  -0.029128  0  3.945341  0  0  0.001164  -0.03209  0  3.913524  0
C  C22  1  0.97174242  0.09819417  0.18412106  1  0  0.250569  0  3.818648  0  0  0.22056  0  4.087921  0  0  0.232881  0  4.101424  0  0  0.208322  0.212874  0  4.076921  0
C  C23  1  0.90180474  0.02825592  0.31587860  1  0  0.250719  0  3.818475  0  0  0.220669  0  4.08778  0  0  0.232991  0  4.101284  0  0  0.208327  0.212983  0  4.076782  0
C  C24  1  0.02825731  0.90180575  0.81588061  1  0  0.250508  0  3.818658  0  0  0.220499  0  4.087939  0  0  0.23282  0  4.101442  0  0  0.2083  0.212814  0  4.076937  0
C  C25  1  0.09819446  0.97174541  0.68412014  1  0  0.250633  0  3.818583  0  0  0.220569  0  4.087903  0  0  0.23289  0  4.101406  0  0  0.20831  0.212884  0  4.076903  0
C  C26  1  0.46341565  0.29199827  0.02515263  1  0  0.320444  0  3.974484  0  0  0.297271  0  4.275193  0  0  0.319858  0  4.28926  0  0  0.155966  0.282367  0  4.26576  0
C  C27  1  0.70800403  0.53657890  0.47484832  1  0  0.320289  0  3.974565  0  0  0.297109  0  4.275284  0  0  0.319689  0  4.289353  0  0  0.155874  0.282206  0  4.265852  0
C  C28  1  0.53658593  0.70800022  0.97484803  1  0  0.320325  0  3.974476  0  0  0.29715  0  4.275193  0  0  0.319735  0  4.289261  0  0  0.155926  0.282246  0  4.265761  0
C  C29  1  0.29199677  0.46341818  0.52515094  1  0  0.320332  0  3.97458  0  0  0.297156  0  4.275296  0  0  0.319739  0  4.289364  0  0  0.155909  0.282253  0  4.265864  0
S  S30  1  0.38904065  0.24635266  0.17973897  1  0  -0.294951  0  2.142131  0  0  -0.267614  0  2.468879  0  0  -0.284372  0  2.465015  0  0  -0.12082  -0.256882  0  2.470463  0
S  S31  1  0.75364966  0.61095834  0.32025747  1  0  -0.294971  0  2.14194  0  0  -0.267632  0  2.468685  0  0  -0.284388  0  2.464819  0  0  -0.120852  -0.256899  0  2.470271  0
S  S32  1  0.61096170  0.75364724  0.82025942  1  0  -0.294961  0  2.14201  0  0  -0.26762  0  2.468748  0  0  -0.284384  0  2.464897  0  0  -0.120861  -0.256889  0  2.470335  0
S  S33  1  0.24635139  0.38904156  0.67974119  1  0  -0.294979  0  2.142024  0  0  -0.267645  0  2.46878  0  0  -0.284399  0  2.464911  0  0  -0.120854  -0.256911  0  2.470364  0
N  N34  1  0.86809907  0.26566744  0.11986003  1  0  -0.417612  0  3.21359  0  0  -0.349142  0  3.483063  0  0  -0.368483  0  3.502068  0  0  -0.354462  -0.336024  0  3.470222  0
N  N35  1  0.73432804  0.13190176  0.38014120  1  0  -0.417647  0  3.21344  0  0  -0.349161  0  3.482929  0  0  -0.368503  0  3.501936  0  0  -0.354387  -0.336043  0  3.470086  0
N  N36  1  0.13190066  0.73433247  0.88014072  1  0  -0.417576  0  3.213533  0  0  -0.349109  0  3.48301  0  0  -0.36845  0  3.502016  0  0  -0.354422  -0.335991  0  3.470169  0
N  N37  1  0.26566854  0.86809958  0.61985897  1  0  -0.417584  0  3.213518  0  0  -0.349101  0  3.483005  0  0  -0.368441  0  3.502011  0  0  -0.354389  -0.335982  0  3.470164  0
N  N38  1  0.13843976  0.01641998  0.10640072  1  0  -0.303896  0  3.44754  0  0  -0.23977  0  3.675007  0  0  -0.255539  0  3.691053  0  0  -0.372805  -0.229001  0  3.66356  0
N  N39  1  0.98357686  0.86156139  0.39360009  1  0  -0.304061  0  3.447538  0  0  -0.239923  0  3.675023  0  0  -0.255696  0  3.691072  0  0  -0.372853  -0.229154  0  3.663579  0
N  N40  1  0.86155867  0.98357995  0.89360120  1  0  -0.303862  0  3.447494  0  0  -0.239727  0  3.674945  0  0  -0.255496  0  3.69099  0  0  -0.372785  -0.228957  0  3.663497  0
N  N41  1  0.01642181  0.13844136  0.60640031  1  0  -0.303981  0  3.447535  0  0  -0.239833  0  3.675008  0  0  -0.255601  0  3.691053  0  0  -0.372834  -0.229064  0  3.663562  0
N  N42  1  0.52228498  0.31994566  0.91157952  1  0  -0.569564  0  2.881171  0  0  -0.511681  0  3.148805  0  0  -0.53199  0  3.153606  0  0  -0.406416  -0.498215  0  3.14479  0
N  N43  1  0.68005882  0.47771617  0.58841239  1  0  -0.569378  0  2.881359  0  0  -0.511486  0  3.148971  0  0  -0.53179  0  3.153774  0  0  -0.406314  -0.498023  0  3.144958  0
N  N44  1  0.47771684  0.68005565  0.08841686  1  0  -0.569428  0  2.881207  0  0  -0.511543  0  3.148834  0  0  -0.53185  0  3.153636  0  0  -0.406357  -0.498078  0  3.144821  0
N  N45  1  0.31994169  0.52228515  0.41158517  1  0  -0.569435  0  2.881335  0  0  -0.511549  0  3.14896  0  0  -0.531854  0  3.153762  0  0  -0.406341  -0.498085  0  3.144947  0
