# generated using pymatgen
data_ErH14C14N3O9F4
_symmetry_space_group_name_H-M   'P 1'
_cell_length_a   11.29369739
_cell_length_b   12.30998245
_cell_length_c   20.07472346
_cell_angle_alpha   73.75208906
_cell_angle_beta   73.64035501
_cell_angle_gamma   62.69048733
_symmetry_Int_Tables_number   1
_chemical_formula_structural   ErH14C14N3O9F4
_chemical_formula_sum   'Er4 H56 C56 N12 O36 F16'
_cell_volume   2342.02150961
_cell_formula_units_Z   4
loop_
 _symmetry_equiv_pos_site_id
 _symmetry_equiv_pos_as_xyz
  1  'x, y, z'
loop_
 _atom_site_type_symbol
 _atom_site_label
 _atom_site_symmetry_multiplicity
 _atom_site_fract_x
 _atom_site_fract_y
 _atom_site_fract_z
 _atom_site_occupancy
 _atom_site_pbe_bader_charge
 _atom_site_pbe_bader_spin_density
 _atom_site_pbe_cm5_charge
 _atom_site_pbe_ddec_charge
 _atom_site_pbe_ddec_spin_density
 _atom_site_pbe_ddec_sum_bond_order
 _atom_site_pbe_magmom
Er  Er0  1  0.05852899  0.10932560  0.69600715  1  2.185538  0  1.51591  2.035413  0  2.151656  0
Er  Er1  1  0.86390672  0.39070885  0.80403656  1  2.186756  0  1.516178  2.03528  0  2.153008  0
Er  Er2  1  0.94147257  0.89067310  0.30399219  1  2.185467  0  1.51597  2.035399  0  2.151541  0
Er  Er3  1  0.13609113  0.60928987  0.19596635  1  2.186799  0  1.516144  2.03523  0  2.153179  0
H  H4  1  0.40000065  0.02826948  0.61365970  1  0.075526  0  0.128518  0.05157  0  0.984215  0
H  H5  1  0.04186039  0.47199931  0.88647568  1  0.081644  0  0.128374  0.051186  0  0.983605  0
H  H6  1  0.59999934  0.97173479  0.38633892  1  0.075687  0  0.128494  0.051517  0  0.984258  0
H  H7  1  0.95813981  0.52800033  0.11352720  1  0.081578  0  0.128404  0.051177  0  0.98366  0
H  H8  1  0.53309051  0.65913078  0.66141019  1  0.071951  0  0.106373  0.127247  0  0.995349  0
H  H9  1  0.85306893  0.84108559  0.83859971  1  0.069325  0  0.10627  0.127286  0  0.995032  0
H  H10  1  0.46690072  0.34087444  0.33859313  1  0.07183  0  0.106413  0.127256  0  0.995357  0
H  H11  1  0.14694010  0.15891497  0.16140012  1  0.069334  0  0.106277  0.1273  0  0.995121  0
H  H12  1  0.47806257  0.68880701  0.58080305  1  0.057227  0  0.109159  0.127493  0  0.9752  0
H  H13  1  0.74706556  0.81135673  0.91922601  1  0.064319  0  0.109099  0.127793  0  0.97518  0
H  H14  1  0.52193126  0.31119450  0.41920100  1  0.057564  0  0.109128  0.127488  0  0.975134  0
H  H15  1  0.25293945  0.18864661  0.08077249  1  0.064212  0  0.109066  0.127746  0  0.975188  0
H  H16  1  0.35607583  0.74351957  0.65680935  1  0.078653  0  0.114822  0.134946  0  1.009342  0
H  H17  1  0.75612076  0.75640544  0.84326356  1  0.097757  0  0.115146  0.135059  0  1.011668  0
H  H18  1  0.64391702  0.25649029  0.34319192  1  0.078807  0  0.114808  0.134982  0  1.009265  0
H  H19  1  0.24388518  0.24359790  0.15673479  1  0.097678  0  0.11513  0.135053  0  1.011633  0
H  H20  1  0.59722839  0.93627780  0.54909646  1  0.054498  0  0.109988  0.121773  0  0.993896  0
H  H21  1  0.08223824  0.56413897  0.95092955  1  0.065309  0  0.10983  0.121882  0  0.994414  0
H  H22  1  0.40277142  0.06372275  0.45090134  1  0.054508  0  0.10998  0.121749  0  0.993924  0
H  H23  1  0.91776206  0.43586252  0.04907200  1  0.065188  0  0.109841  0.121894  0  0.994392  0
H  H24  1  0.59628519  0.82681008  0.50675359  1  0.058251  0  0.103499  0.118376  0  0.996242  0
H  H25  1  0.92944298  0.67363483  0.99326822  1  0.060898  0  0.103122  0.118067  0  0.996884  0
H  H26  1  0.40371268  0.17318862  0.49324633  1  0.058273  0  0.103478  0.118326  0  0.996227  0
H  H27  1  0.07055538  0.32636481  0.00673395  1  0.060942  0  0.103131  0.118089  0  0.996932  0
H  H28  1  0.68585357  0.77371949  0.57727543  1  0.080605  0  0.10687  0.125497  0  1.016714  0
H  H29  1  0.03648781  0.72668738  0.92267687  1  0.084119  0  0.106388  0.125837  0  1.015452  0
H  H30  1  0.31414397  0.22628200  0.42272406  1  0.080646  0  0.106897  0.125535  0  1.016695  0
H  H31  1  0.96351249  0.27331412  0.07732518  1  0.084049  0  0.106387  0.125846  0  1.015431  0
H  H32  1  0.83025200  0.01137940  0.68036700  1  0.103616  0  0.123758  0.04828  0  1.018598  0
H  H33  1  0.52193593  0.48879176  0.81956982  1  0.122049  0  0.123642  0.049305  0  1.018201  0
H  H34  1  0.16974860  0.98862764  0.31962707  1  0.103684  0  0.123733  0.04819  0  1.018725  0
H  H35  1  0.47806242  0.51120789  0.18043584  1  0.122195  0  0.12362  0.049282  0  1.018223  0
H  H36  1  0.71509555  0.91237622  0.68092055  1  0.035649  0  0.103325  0.111323  0  1.0029  0
H  H37  1  0.30822464  0.58802551  0.81899825  1  0.031078  0  0.103354  0.111124  0  1.002273  0
H  H38  1  0.28490876  0.08763081  0.31906995  1  0.035467  0  0.103273  0.111319  0  1.002852  0
H  H39  1  0.69177422  0.41197507  0.18100617  1  0.031033  0  0.103326  0.111089  0  1.002256  0
H  H40  1  0.77527242  0.75245721  0.72395418  1  0.091025  0  0.110421  0.132861  0  1.004758  0
H  H41  1  0.25178993  0.74793707  0.77596491  1  0.116774  0  0.11011  0.132298  0  1.005853  0
H  H42  1  0.22472778  0.24755075  0.27603630  1  0.091004  0  0.110486  0.132872  0  1.004841  0
H  H43  1  0.74821129  0.25206443  0.22403649  1  0.116689  0  0.11011  0.132293  0  1.005813  0
H  H44  1  0.80835777  0.78979599  0.63034327  1  0.114788  0  0.103396  0.126741  0  1.036747  0
H  H45  1  0.22840613  0.71059543  0.86957516  1  0.095812  0  0.103479  0.126568  0  1.035925  0
H  H46  1  0.19165022  0.21021105  0.36964864  1  0.11501  0  0.103417  0.126708  0  1.036808  0
H  H47  1  0.77159660  0.28940886  0.13042752  1  0.096004  0  0.103413  0.126424  0  1.035972  0
H  H48  1  0.12415138  0.71849604  0.69473180  1  0.08812  0  0.107504  0.12524  0  1.012407  0
H  H49  1  0.53764638  0.78146445  0.80525367  1  0.092994  0  0.106991  0.12412  0  1.01264  0
H  H50  1  0.87584953  0.28150824  0.30526718  1  0.088097  0  0.107518  0.125248  0  1.01239  0
H  H51  1  0.46235484  0.21853704  0.19474724  1  0.093122  0  0.106988  0.124105  0  1.012698  0
H  H52  1  0.07942715  0.68444945  0.62654551  1  0.081802  0  0.106649  0.130234  0  0.981321  0
H  H53  1  0.39065957  0.81554047  0.87347362  1  0.085703  0  0.106315  0.129577  0  0.98123  0
H  H54  1  0.92057602  0.31555389  0.37345228  1  0.081831  0  0.106577  0.130144  0  0.981364  0
H  H55  1  0.60934073  0.18446102  0.12652643  1  0.085703  0  0.10629  0.129523  0  0.981264  0
H  H56  1  0.02109497  0.63272546  0.71665491  1  0.100777  0  0.10721  0.129297  0  1.024639  0
H  H57  1  0.37074559  0.86743138  0.78336774  1  0.100769  0  0.107221  0.12942  0  1.023454  0
H  H58  1  0.97890419  0.36728067  0.28334253  1  0.100948  0  0.107208  0.129345  0  1.024634  0
H  H59  1  0.62925647  0.13256825  0.21663185  1  0.10082  0  0.107219  0.129387  0  1.023432  0
C  C60  1  0.20291298  0.24989430  0.74994491  1  1.670828  0  0.235451  0.69291  0  4.136053  0
C  C61  1  0.79708593  0.75011647  0.25005128  1  1.67008  0  0.235422  0.692797  0  4.135705  0
C  C62  1  0.33706343  0.25001482  0.74988944  1  0.129479  0  -0.024136  -0.203047  0  3.991747  0
C  C63  1  0.66293203  0.74999131  0.25010908  1  0.129388  0  -0.024164  -0.202994  0  3.991538  0
C  C64  1  0.44091769  0.14427422  0.77796387  1  0.514958  0  0.090657  0.15055  0  4.102409  0
C  C65  1  0.36302581  0.35587989  0.72181309  1  0.50173  0  0.090631  0.14979  0  4.101429  0
C  C66  1  0.55907584  0.85573005  0.22203528  1  0.515153  0  0.09068  0.150564  0  4.102362  0
C  C67  1  0.63697550  0.64412346  0.27818848  1  0.501536  0  0.090643  0.149725  0  4.101411  0
C  C68  1  0.56372764  0.14472070  0.77853272  1  0.519329  0  0.090321  0.14981  0  4.100995  0
C  C69  1  0.48670895  0.35571885  0.72127270  1  0.521738  0  0.090747  0.150085  0  4.099298  0
C  C70  1  0.43626797  0.85527893  0.22146689  1  0.519313  0  0.090305  0.149849  0  4.101166  0
C  C71  1  0.51329142  0.64428452  0.27873200  1  0.522106  0  0.090818  0.150251  0  4.099438  0
C  C72  1  0.59028489  0.25028066  0.74991121  1  0.107715  0  -0.023795  -0.208586  0  3.995048  0
C  C73  1  0.40971564  0.74971620  0.25009260  1  0.107611  0  -0.023851  -0.208711  0  3.995293  0
C  C74  1  0.72405208  0.25030754  0.74990925  1  1.672437  0  0.242425  0.699603  0  4.113458  0
C  C75  1  0.27594484  0.74969119  0.25009679  1  1.67244  0  0.242347  0.699595  0  4.1137  0
C  C76  1  0.92836739  0.43754210  0.65292885  1  1.635086  0  0.22621  0.668451  0  4.160643  0
C  C77  1  0.01825936  0.06247727  0.84710900  1  1.647858  0  0.225901  0.669055  0  4.160651  0
C  C78  1  0.07162369  0.56245939  0.34707166  1  1.634717  0  0.226295  0.668516  0  4.160718  0
C  C79  1  0.98173891  0.93752051  0.15289251  1  1.64799  0  0.225712  0.668629  0  4.160942  0
C  C80  1  0.96536421  0.46971049  0.57410929  1  0.05209  0  -0.021254  -0.200699  0  3.998788  0
C  C81  1  0.00880562  0.03032537  0.92592137  1  0.096982  0  -0.019942  -0.199737  0  4.000396  0
C  C82  1  0.03463031  0.53028541  0.42588915  1  0.051856  0  -0.02113  -0.200433  0  3.998745  0
C  C83  1  0.99119297  0.96965940  0.07408034  1  0.097131  0  -0.020078  -0.199911  0  4.000473  0
C  C84  1  0.09696379  0.45539981  0.54176056  1  0.584089  0  0.096218  0.164063  0  4.080908  0
C  C85  1  0.09384872  0.04485563  0.95806132  1  0.567937  0  0.096661  0.166523  0  4.085464  0
C  C86  1  0.90302831  0.54460353  0.45823847  1  0.584359  0  0.096168  0.163972  0  4.080822  0
C  C87  1  0.90615348  0.95512727  0.04193914  1  0.566744  0  0.096825  0.166834  0  4.085592  0
C  C88  1  0.13072648  0.48555421  0.46886879  1  0.555977  0  0.09439  0.159693  0  4.082553  0
C  C89  1  0.08523685  0.01466758  0.03093113  1  0.502182  0  0.09307  0.156555  0  4.083796  0
C  C90  1  0.86926360  0.51444542  0.53113120  1  0.555984  0  0.094521  0.159967  0  4.082209  0
C  C91  1  0.91476401  0.98531626  0.96907038  1  0.502544  0  0.092975  0.156446  0  4.083876  0
C  C92  1  0.37895878  0.94457464  0.63323849  1  1.408229  0  0.187591  0.328596  0  4.089976  0
C  C93  1  0.95659935  0.55558129  0.86689835  1  1.39445  0  0.187457  0.329694  0  4.088679  0
C  C94  1  0.62104203  0.05542779  0.36676282  1  1.407988  0  0.187606  0.328555  0  4.089906  0
C  C95  1  0.04339727  0.44442020  0.13310030  1  1.394655  0  0.18742  0.329749  0  4.088271  0
C  C96  1  0.45902420  0.72669519  0.62806038  1  0.304543  0  -0.131473  -0.274657  0  3.87944  0
C  C97  1  0.81332709  0.77344969  0.87198644  1  0.271744  0  -0.131775  -0.27587  0  3.881204  0
C  C98  1  0.54097014  0.27330724  0.37194145  1  0.303891  0  -0.131477  -0.274754  0  3.879347  0
C  C99  1  0.18667876  0.22655180  0.12801274  1  0.2719  0  -0.131728  -0.275784  0  3.881223  0
C  C100  1  0.59444686  0.84554972  0.55750609  1  0.290339  0  -0.132176  -0.286023  0  3.936968  0
C  C101  1  0.99712921  0.65485844  0.94250925  1  0.281942  0  -0.130674  -0.285862  0  3.936428  0
C  C102  1  0.40555203  0.15445084  0.44249285  1  0.290247  0  -0.132175  -0.286038  0  3.93697  0
C  C103  1  0.00287201  0.34514306  0.05749215  1  0.2816  0  -0.13068  -0.285902  0  3.936437  0
C  C104  1  0.92798057  0.92966393  0.68072945  1  1.381098  0  0.182838  0.326165  0  4.083396  0
C  C105  1  0.53836695  0.57045225  0.81923736  1  1.36129  0  0.182551  0.325849  0  4.086698  0
C  C106  1  0.07201892  0.07033940  0.31926593  1  1.38111  0  0.182839  0.326172  0  4.083906  0
C  C107  1  0.46162906  0.42954647  0.18076634  1  1.36118  0  0.182559  0.325906  0  4.086798  0
C  C108  1  0.79766607  0.81955465  0.67906974  1  0.243208  0  -0.132538  -0.285713  0  3.892784  0
C  C109  1  0.29626946  0.68078898  0.82085732  1  0.234262  0  -0.132056  -0.283664  0  3.891532  0
C  C110  1  0.20233546  0.18045238  0.32092219  1  0.243263  0  -0.132531  -0.285617  0  3.892856  0
C  C111  1  0.70373360  0.31921252  0.17914529  1  0.234314  0  -0.131973  -0.283436  0  3.891351  0
C  C112  1  0.04483250  0.70744588  0.67979305  1  0.240585  0  -0.136523  -0.277749  0  3.869689  0
C  C113  1  0.43227909  0.79261174  0.82020652  1  0.225518  0  -0.135902  -0.275766  0  3.868002  0
C  C114  1  0.95516841  0.29255839  0.32020444  1  0.240344  0  -0.136463  -0.277673  0  3.869793  0
C  C115  1  0.56772214  0.20738975  0.17979389  1  0.225357  0  -0.135907  -0.275653  0  3.8681  0
N  N116  1  0.47364930  0.84374480  0.60748312  1  -1.217761  0  -0.276784  0.037026  0  3.707615  0
N  N117  1  0.92454043  0.65650704  0.89258798  1  -1.215108  0  -0.27625  0.038225  0  3.706711  0
N  N118  1  0.52634874  0.15625762  0.39251713  1  -1.217526  0  -0.276783  0.037201  0  3.707487  0
N  N119  1  0.07546314  0.34349539  0.10741339  1  -1.214695  0  -0.276207  0.038231  0  3.706787  0
N  N120  1  0.92351646  0.82339272  0.68101848  1  -1.219844  0  -0.273234  0.049275  0  3.703167  0
N  N121  1  0.42796611  0.67677725  0.81894264  1  -1.211832  0  -0.273942  0.046913  0  3.706142  0
N  N122  1  0.07648589  0.17661247  0.31897712  1  -1.219966  0  -0.273354  0.04905  0  3.70348  0
N  N123  1  0.57203913  0.32322146  0.18105861  1  -1.212049  0  -0.273977  0.046708  0  3.706192  0
N  N124  1  0.06129702  0.18910581  0.54698040  1  0.821407  0  0.081398  0.726742  0  4.435378  0
N  N125  1  0.79706856  0.31087608  0.95304853  1  0.827575  0  0.080803  0.725562  0  4.432181  0
N  N126  1  0.93871713  0.81088544  0.45301476  1  0.821387  0  0.081538  0.726821  0  4.435619  0
N  N127  1  0.20292610  0.68912357  0.04695721  1  0.828138  0  0.080761  0.725546  0  4.432462  0
O  O128  1  0.21038730  0.16622820  0.72196088  1  -1.165237  0  -0.375033  -0.647034  0  2.278082  0
O  O129  1  0.09869970  0.33348425  0.77799730  1  -1.188184  0  -0.374718  -0.646245  0  2.278728  0
O  O130  1  0.78961178  0.83377606  0.27803491  1  -1.16515  0  -0.375026  -0.64695  0  2.278167  0
O  O131  1  0.90130093  0.66652277  0.22199178  1  -1.187483  0  -0.374718  -0.646221  0  2.278214  0
O  O132  1  0.82907553  0.15821589  0.73060491  1  -1.182404  0  -0.375754  -0.639471  0  2.339218  0
O  O133  1  0.71776490  0.34233165  0.76923380  1  -1.166563  0  -0.376012  -0.640294  0  2.33929  0
O  O134  1  0.17092801  0.84177632  0.26939773  1  -1.182312  0  -0.375654  -0.639365  0  2.339473  0
O  O135  1  0.28223753  0.65765687  0.23077363  1  -1.166572  0  -0.375961  -0.64032  0  2.339224  0
O  O136  1  0.96450869  0.32341872  0.68127375  1  -1.201081  0  -0.411832  -0.728994  0  2.492584  0
O  O137  1  0.96892031  0.17662397  0.81874125  1  -1.202272  0  -0.41132  -0.729459  0  2.493587  0
O  O138  1  0.03548834  0.67657162  0.31872525  1  -1.200872  0  -0.411804  -0.729  0  2.492874  0
O  O139  1  0.03108775  0.82336639  0.18126299  1  -1.20252  0  -0.41132  -0.729357  0  2.49338  0
O  O140  1  0.86415304  0.52301287  0.68895136  1  -1.158683  0  -0.342275  -0.579223  0  2.158745  0
O  O141  1  0.07525448  0.97698679  0.81111670  1  -1.141518  0  -0.342397  -0.579838  0  2.158099  0
O  O142  1  0.13584541  0.47697839  0.31104726  1  -1.158542  0  -0.342399  -0.57936  0  2.158532  0
O  O143  1  0.92474776  0.02300632  0.18888001  1  -1.14167  0  -0.342275  -0.579557  0  2.158486  0
O  O144  1  0.27369054  0.94614591  0.67637239  1  -1.176312  0  -0.364848  -0.547149  0  2.429543  0
O  O145  1  0.89613449  0.55379955  0.82380984  1  -1.169294  0  -0.365154  -0.548486  0  2.428303  0
O  O146  1  0.72631159  0.05385560  0.32363136  1  -1.176216  0  -0.364834  -0.547109  0  2.429487  0
O  O147  1  0.10387042  0.44620195  0.17619248  1  -1.169414  0  -0.36518  -0.548596  0  2.427787  0
O  O148  1  0.03363535  0.93921228  0.68201427  1  -1.168697  0  -0.380022  -0.562694  0  2.372026  0
O  O149  1  0.65485711  0.56082795  0.81797701  1  -1.16397  0  -0.379316  -0.562783  0  2.375881  0
O  O150  1  0.96637210  0.06079384  0.31798237  1  -1.168633  0  -0.379985  -0.562566  0  2.372382  0
O  O151  1  0.34514485  0.43916983  0.18202641  1  -1.16398  0  -0.379246  -0.562703  0  2.376021  0
O  O152  1  0.95710070  0.17962295  0.58960955  1  -0.548623  0  -0.235636  -0.506529  0  1.997592  0
O  O153  1  0.72611628  0.32047993  0.91035864  1  -0.549929  0  -0.235556  -0.506142  0  1.994077  0
O  O154  1  0.04290299  0.82038131  0.41038551  1  -0.548924  0  -0.235632  -0.506463  0  1.997575  0
O  O155  1  0.27387903  0.67951415  0.08964696  1  -0.550068  0  -0.235566  -0.506158  0  1.994149  0
O  O156  1  0.06479846  0.22446637  0.48277290  1  -0.48157  0  -0.153212  -0.386727  0  1.964484  0
O  O157  1  0.77152201  0.27548504  0.01724411  1  -0.495085  0  -0.153161  -0.386682  0  1.963573  0
O  O158  1  0.93522775  0.77551651  0.51722129  1  -0.48149  0  -0.153325  -0.38683  0  1.964591  0
O  O159  1  0.22847573  0.72451184  0.98276411  1  -0.495216  0  -0.153195  -0.386749  0  1.963859  0
O  O160  1  0.16393779  0.15997885  0.57555627  1  -0.603918  0  -0.257391  -0.556614  0  2.033277  0
O  O161  1  0.89927024  0.33990615  0.92455489  1  -0.595389  0  -0.256954  -0.555613  0  2.033587  0
O  O162  1  0.83607482  0.84000964  0.42444459  1  -0.603722  0  -0.257449  -0.556659  0  2.033447  0
O  O163  1  0.10072301  0.66010279  0.07544948  1  -0.595601  0  -0.256891  -0.555519  0  2.033619  0
F  F164  1  0.42331518  0.03828348  0.80715899  1  -0.61682  0  -0.077592  -0.098875  0  1.43238  0
F  F165  1  0.26850004  0.46174318  0.69260693  1  -0.62422  0  -0.077455  -0.098247  0  1.432304  0
F  F166  1  0.57667794  0.96172171  0.19283856  1  -0.616935  0  -0.077608  -0.098902  0  1.43241  0
F  F167  1  0.73150556  0.53826295  0.30739199  1  -0.624187  0  -0.077471  -0.098244  0  1.432286  0
F  F168  1  0.65704179  0.03951356  0.80938965  1  -0.627356  0  -0.078157  -0.103954  0  1.420706  0
F  F169  1  0.50548584  0.46102170  0.69039131  1  -0.623527  0  -0.078332  -0.103645  0  1.422245  0
F  F170  1  0.34295677  0.96047955  0.19060614  1  -0.627426  0  -0.078089  -0.103932  0  1.42082  0
F  F171  1  0.49451719  0.53897982  0.30961628  1  -0.623532  0  -0.078369  -0.103723  0  1.422187  0
F  F172  1  0.19367238  0.41299413  0.58141588  1  -0.618809  0  -0.08446  -0.104841  0  1.379883  0
F  F173  1  0.18752223  0.08751837  0.91820532  1  -0.621271  0  -0.085278  -0.106431  0  1.383389  0
F  F174  1  0.80631529  0.58702316  0.41858344  1  -0.618844  0  -0.084427  -0.104831  0  1.379866  0
F  F175  1  0.81248961  0.91245339  0.08179406  1  -0.620763  0  -0.085359  -0.106542  0  1.38328  0
F  F176  1  0.25942216  0.47223680  0.43949315  1  -0.621829  0  -0.082338  -0.110288  0  1.382679  0
F  F177  1  0.17133282  0.02822317  0.06007995  1  -0.62252  0  -0.08157  -0.108632  0  1.383343  0
F  F178  1  0.74056674  0.52776748  0.56050771  1  -0.622016  0  -0.082392  -0.110383  0  1.382552  0
F  F179  1  0.82866369  0.97176624  0.93992079  1  -0.622488  0  -0.081516  -0.108618  0  1.383305  0
