# generated using pymatgen
data_Zn4H26C22O15
_symmetry_space_group_name_H-M   'P 1'
_cell_length_a   10.92964192
_cell_length_b   10.86037074
_cell_length_c   10.91164400
_cell_angle_alpha   80.07699050
_cell_angle_beta   82.40679638
_cell_angle_gamma   89.85244131
_symmetry_Int_Tables_number   1
_chemical_formula_structural   Zn4H26C22O15
_chemical_formula_sum   'Zn4 H26 C22 O15'
_cell_volume   1264.37757494
_cell_formula_units_Z   1
loop_
 _symmetry_equiv_pos_site_id
 _symmetry_equiv_pos_as_xyz
  1  'x, y, z'
loop_
 _atom_site_type_symbol
 _atom_site_label
 _atom_site_symmetry_multiplicity
 _atom_site_fract_x
 _atom_site_fract_y
 _atom_site_fract_z
 _atom_site_occupancy
 _atom_site_pbe_bader_charge
 _atom_site_pbe_bader_spin_density
 _atom_site_pbe_cm5_charge
 _atom_site_pbe_ddec_charge
 _atom_site_pbe_ddec_spin_density
 _atom_site_pbe_ddec_sum_bond_order
 _atom_site_pbe_magmom
Zn  Zn0  1  0.39985704  0.60995895  0.38426927  1  1.312569  0  0.673771  0.960775  0  2.392548  0
Zn  Zn1  1  0.61457599  0.40486122  0.39378026  1  1.305294  0  0.673691  0.966109  0  2.354117  0
Zn  Zn2  1  0.37876209  0.38255539  0.61651214  1  1.311159  0  0.673349  0.964078  0  2.35377  0
Zn  Zn3  1  0.58422668  0.59397528  0.58527635  1  1.304206  0  0.668676  0.940546  0  2.422325  0
H  H4  1  0.22500785  0.92766303  0.43387243  1  0.049613  0  0.087139  0.121572  0  1.002117  0
H  H5  1  0.65349087  0.89737746  0.63621430  1  0.087582  0  0.102104  0.110018  0  0.972542  0
H  H6  1  0.06973839  0.24141764  0.54266887  1  0.044032  0  0.094414  0.098304  0  1.022533  0
H  H7  1  0.93039355  0.26292529  0.46932717  1  0.06615  0  0.090748  0.091319  0  1.005715  0
H  H8  1  0.92219421  0.20368363  0.63466228  1  0.036199  0  0.104176  0.111598  0  0.98885  0
H  H9  1  0.85408975  0.78109393  0.32813945  1  0.084737  0  0.103154  0.108929  0  0.99562  0
H  H10  1  0.91379605  0.69201676  0.20883866  1  0.067231  0  0.104653  0.107486  0  0.980199  0
H  H11  1  0.99699577  0.82742421  0.22968348  1  0.09011  0  0.11765  0.126751  0  0.962429  0
H  H12  1  0.50361746  0.19582542  0.95589276  1  0.021276  0  0.082824  0.10961  0  1.021869  0
H  H13  1  0.55127580  0.21533579  0.10124737  1  0.030078  0  0.085736  0.117318  0  1.006793  0
H  H14  1  0.41086654  0.13336400  0.09897582  1  0.013242  0  0.08664  0.114265  0  1.013248  0
H  H15  1  0.23235025  0.06357736  0.50404821  1  0.042822  0  0.083534  0.113668  0  1.016757  0
H  H16  1  0.37367916  0.35426427  0.14238093  1  0.041448  0  0.091166  0.084956  0  0.992853  0
H  H17  1  0.31547114  0.32796584  0.00542716  1  0.057382  0  0.097864  0.102296  0  0.976392  0
H  H18  1  0.53430695  0.78780901  0.04788633  1  0.039613  0  0.089133  0.125072  0  0.997748  0
H  H19  1  0.66353906  0.71887571  0.11304766  1  0.017878  0  0.081369  0.105127  0  1.020006  0
H  H20  1  0.68583744  0.82266444  0.96729685  1  0.021023  0  0.086673  0.113087  0  1.013296  0
H  H21  1  0.70968619  0.60450123  0.92800259  1  0.061781  0  0.105477  0.111436  0  0.945858  0
H  H22  1  0.58549631  0.67565956  0.86075803  1  0.086095  0  0.099846  0.105529  0  0.996522  0
H  H23  1  0.21044240  0.07833833  0.34344264  1  0.016666  0  0.084768  0.111069  0  1.004382  0
H  H24  1  0.42842655  0.13356146  0.35706009  1  0.025728  0  0.091095  0.084098  0  1.001809  0
H  H25  1  0.42241414  0.99626259  0.29231400  1  0.055782  0  0.094468  0.093655  0  0.993674  0
H  H26  1  0.73347953  0.11339205  0.65083601  1  0.041031  0  0.085885  0.115928  0  1.026537  0
H  H27  1  0.59997856  0.13374875  0.75663932  1  0.028742  0  0.084578  0.113672  0  1.021207  0
H  H28  1  0.70528482  0.01523182  0.80009487  1  0.028431  0  0.088264  0.115656  0  1.012776  0
H  H29  1  0.52237161  0.91656126  0.73998639  1  0.047347  0  0.10433  0.110423  0  0.954008  0
C  C30  1  0.82470270  0.54590742  0.44911152  1  1.610453  0  0.229354  0.577643  0  4.211261  0
C  C31  1  0.46875311  0.96490250  0.47883200  1  0.092035  0  -0.022173  -0.093542  0  3.897268  0
C  C32  1  0.52327959  0.02431297  0.55788831  1  -0.067612  0  0.013289  -0.004127  0  3.797862  0
C  C33  1  0.02874298  0.48323857  0.50390972  1  0.584242  0  0.042318  -0.039697  0  4.025245  0
C  C34  1  0.39866288  0.03475677  0.37889369  1  0.015338  0  -0.165663  -0.12578  0  3.998889  0
C  C35  1  0.25825620  0.02530244  0.41756231  1  -0.101002  0  -0.245664  -0.354085  0  3.952955  0
C  C36  1  0.59078866  0.96894429  0.66626913  1  -0.017576  0  -0.155293  -0.124202  0  3.966146  0
C  C37  1  0.66114314  0.06357864  0.72105405  1  -0.079195  0  -0.247471  -0.362987  0  3.968084  0
C  C38  1  0.97218623  0.26731328  0.55501481  1  0.391599  0  -0.144615  -0.177354  0  3.908364  0
C  C39  1  0.93795397  0.74770444  0.27770587  1  0.334333  0  -0.128984  -0.182781  0  3.880781  0
C  C40  1  0.40094738  0.33615654  0.04654034  1  -0.022816  0  -0.16384  -0.124472  0  3.993437  0
C  C41  1  0.96299010  0.56915243  0.43418836  1  0.562692  0  0.093093  0.06406  0  3.970374  0
C  C42  1  0.47081996  0.21291473  0.05104995  1  -0.036198  0  -0.244447  -0.349937  0  3.950044  0
C  C43  1  0.61660813  0.64051694  0.95161771  1  -0.03413  0  -0.156417  -0.127545  0  3.966831  0
C  C44  1  0.62508126  0.74807743  0.02458178  1  -0.057269  0  -0.247821  -0.357904  0  3.975511  0
C  C45  1  0.47699796  0.44468606  0.96811526  1  0.078576  0  -0.02081  -0.088957  0  3.893367  0
C  C46  1  0.53554066  0.52995226  0.01853678  1  -0.06731  0  0.010258  -0.010017  0  3.808316  0
C  C47  1  0.16308018  0.48910756  0.50633366  1  1.516671  0  0.212303  0.569592  0  4.227161  0
C  C48  1  0.52086280  0.51524255  0.15930209  1  1.573212  0  0.232256  0.614587  0  4.171621  0
C  C49  1  0.48368262  0.45354728  0.82970006  1  1.530461  0  0.225072  0.605466  0  4.151946  0
C  C50  1  0.51472536  0.16439988  0.53748628  1  1.586812  0  0.235161  0.619655  0  4.169956  0
C  C51  1  0.47464306  0.82746826  0.48533415  1  1.493297  0  0.221835  0.60031  0  4.156335  0
O  O52  1  0.49440083  0.49375475  0.49261920  1  -1.229646  0  -0.575844  -1.028727  0  2.553253  0
O  O53  1  0.60149946  0.22506089  0.46152554  1  -1.168477  0  -0.311941  -0.546381  0  2.316325  0
O  O54  1  0.51536886  0.76096543  0.57990041  1  -1.175469  0  -0.31718  -0.558075  0  2.379368  0
O  O55  1  0.42332168  0.20833754  0.59942053  1  -1.17088  0  -0.305457  -0.537171  0  2.310981  0
O  O56  1  0.43917455  0.78401252  0.39342297  1  -1.171963  0  -0.314913  -0.544461  0  2.335743  0
O  O57  1  0.95918310  0.39056979  0.58650671  1  -1.043583  0  -0.208141  -0.159482  0  2.557612  0
O  O58  1  0.01174287  0.67618892  0.36364242  1  -1.037307  0  -0.164463  -0.093256  0  2.60006  0
O  O59  1  0.44098929  0.58334204  0.20916560  1  -1.172441  0  -0.304374  -0.537766  0  2.336898  0
O  O60  1  0.57589371  0.51274669  0.75990252  1  -1.18097  0  -0.315277  -0.548317  0  2.377347  0
O  O61  1  0.78690870  0.46184609  0.39455246  1  -1.15693  0  -0.301291  -0.528096  0  2.338251  0
O  O62  1  0.20783215  0.40396323  0.58391260  1  -1.156717  0  -0.31951  -0.540602  0  2.344393  0
O  O63  1  0.76017603  0.61625790  0.51299830  1  -1.16931  0  -0.306715  -0.526398  0  2.329631  0
O  O64  1  0.22371718  0.57802872  0.43094009  1  -1.158534  0  -0.320765  -0.544959  0  2.396913  0
O  O65  1  0.59277231  0.43848713  0.21484006  1  -1.162981  0  -0.309615  -0.542443  0  2.308332  0
O  O66  1  0.39612808  0.40008768  0.78976358  1  -1.166652  0  -0.313434  -0.546148  0  2.323483  0
