# generated using pymatgen
data_MgH19C23O3
_symmetry_space_group_name_H-M   'P 1'
_cell_length_a   6.93928785
_cell_length_b   44.26429329
_cell_length_c   44.26434771
_cell_angle_alpha   119.72896637
_cell_angle_beta   92.99634699
_cell_angle_gamma   92.99511194
_symmetry_Int_Tables_number   1
_chemical_formula_structural   MgH19C23O3
_chemical_formula_sum   'Mg6 H114 C138 O18'
_cell_volume   11742.67103447
_cell_formula_units_Z   6
loop_
 _symmetry_equiv_pos_site_id
 _symmetry_equiv_pos_as_xyz
  1  'x, y, z'
loop_
 _atom_site_type_symbol
 _atom_site_label
 _atom_site_symmetry_multiplicity
 _atom_site_fract_x
 _atom_site_fract_y
 _atom_site_fract_z
 _atom_site_occupancy
 _atom_site_pbe_bader_charge
 _atom_site_pbe_bader_spin_density
 _atom_site_pbe_cm5_charge
 _atom_site_pbe_ddec_charge
 _atom_site_pbe_ddec_spin_density
 _atom_site_pbe_ddec_sum_bond_order
 _atom_site_pbe_magmom
Mg  Mg0  1  0.77417027  0.68898333  0.33126301  1  1.683378  0  0.902959  1.40653  0  1.327253  0
Mg  Mg1  1  0.08520097  0.64229470  0.31100025  1  1.681647  0  0.902921  1.406808  0  1.326718  0
Mg  Mg2  1  0.44296437  0.66873010  0.35770079  1  1.684393  0  0.902807  1.405986  0  1.327754  0
Mg  Mg3  1  0.32106474  0.31090078  0.66864868  1  1.684492  0  0.904592  1.410086  0  1.323895  0
Mg  Mg4  1  0.01018773  0.35775046  0.68911666  1  1.682789  0  0.904314  1.409016  0  1.325671  0
Mg  Mg5  1  0.65239814  0.33136848  0.64225007  1  1.684321  0  0.904559  1.409311  0  1.325317  0
H  H6  1  0.06199708  0.37035549  0.77102409  1  0.085519  0  0.10498  0.123496  0  1.037602  0
H  H7  1  0.69156506  0.40063383  0.62963108  1  0.078884  0  0.105033  0.123694  0  1.037707  0
H  H8  1  0.29086070  0.22897162  0.59935900  1  0.070347  0  0.104995  0.123684  0  1.037706  0
H  H9  1  0.78212055  0.39669213  0.87228389  1  0.040142  0  0.098244  0.099805  0  1.039535  0
H  H10  1  0.38542473  0.47560222  0.60332340  1  0.038349  0  0.098174  0.099695  0  1.039772  0
H  H11  1  0.90972687  0.12772001  0.52441521  1  0.056931  0  0.098206  0.09949  0  1.039709  0
H  H12  1  0.55286318  0.44384614  0.98099352  1  0.040975  0  0.096792  0.098033  0  1.014618  0
H  H13  1  0.10887853  0.53714995  0.55616141  1  0.075132  0  0.0968  0.097775  0  1.014718  0
H  H14  1  0.57176970  0.01900119  0.46284271  1  0.032294  0  0.096744  0.097951  0  1.014633  0
H  H15  1  0.22819171  0.57223995  0.06218584  1  0.044276  0  0.099341  0.102255  0  1.013227  0
H  H16  1  0.65587338  0.48994489  0.42776247  1  0.030594  0  0.099226  0.102734  0  1.012543  0
H  H17  1  0.16601584  0.93782588  0.51005075  1  0.043575  0  0.099045  0.102224  0  1.01323  0
H  H18  1  0.62562521  0.47598281  0.04035895  1  0.015691  0  0.095833  0.097024  0  1.01663  0
H  H19  1  0.14960461  0.56437258  0.52402059  1  0.024973  0  0.095592  0.096542  0  1.016639  0
H  H20  1  0.58526241  0.95965014  0.43562127  1  0.042042  0  0.095877  0.096786  0  1.017325  0
H  H21  1  0.38968242  0.50650423  0.12027382  1  0.056246  0  0.089073  0.122216  0  1.024018  0
H  H22  1  0.88326043  0.61375916  0.49347938  1  0.028727  0  0.089146  0.122469  0  1.023928  0
H  H23  1  0.26949728  0.87972858  0.38623915  1  0.01106  0  0.089362  0.122435  0  1.024292  0
H  H24  1  0.55067261  0.47766947  0.09162456  1  0.038945  0  0.089413  0.124506  0  1.013156  0
H  H25  1  0.07309150  0.61393521  0.52231088  1  0.049953  0  0.089484  0.124404  0  1.013204  0
H  H26  1  0.45909874  0.90838018  0.38605112  1  0.04626  0  0.089442  0.124554  0  1.013179  0
H  H27  1  0.29716942  0.46785278  0.08192037  1  0.020279  0  0.089769  0.122057  0  0.996783  0
H  H28  1  0.82943952  0.61408075  0.53214530  1  0.025275  0  0.089605  0.121662  0  0.9967  0
H  H29  1  0.21527776  0.91807147  0.38591302  1  0.036159  0  0.089661  0.121527  0  0.996868  0
H  H30  1  0.05995405  0.62801295  0.17568363  1  0.018385  0  0.098482  0.102753  0  1.004725  0
H  H31  1  0.43224303  0.54767728  0.37198588  1  0.056698  0  0.098438  0.102905  0  1.00522  0
H  H32  1  0.88432915  0.82433019  0.45233738  1  0.053352  0  0.098406  0.103011  0  1.005124  0
H  H33  1  0.04891122  0.50120937  0.09634964  1  0.085891  0  0.097739  0.101322  0  1.020107  0
H  H34  1  0.54755003  0.59514025  0.49880458  1  0.041585  0  0.097657  0.09957  0  1.022685  0
H  H35  1  0.95242968  0.90366037  0.40484789  1  0.04575  0  0.097877  0.099477  0  1.022732  0
H  H36  1  0.67875510  0.51938334  0.15366478  1  0.034936  0  0.088555  0.121888  0  1.042544  0
H  H37  1  0.15926551  0.63427837  0.48060944  1  0.025704  0  0.088322  0.121602  0  1.041991  0
H  H38  1  0.52506534  0.84633624  0.36572246  1  0.059967  0  0.088299  0.121595  0  1.042335  0
H  H39  1  0.90214284  0.51788645  0.17338267  1  0.037616  0  0.092984  0.129766  0  0.983796  0
H  H40  1  0.38419015  0.65549142  0.48211398  1  0.046134  0  0.092908  0.129691  0  0.98373  0
H  H41  1  0.72875719  0.82661860  0.34449488  1  0.035984  0  0.093063  0.129975  0  0.983845  0
H  H42  1  0.84069297  0.48852957  0.12817895  1  0.006107  0  0.088144  0.118796  0  1.007675  0
H  H43  1  0.35205697  0.63964031  0.51146460  1  0.004657  0  0.087972  0.118543  0  1.007556  0
H  H44  1  0.71247239  0.87182761  0.36035653  1  0.019405  0  0.088225  0.119008  0  1.00732  0
H  H45  1  0.04361304  0.62366302  0.23011421  1  0.078211  0  0.103897  0.123247  0  1.032633  0
H  H46  1  0.42008936  0.60647642  0.37633645  1  0.081391  0  0.103675  0.122995  0  1.033255  0
H  H47  1  0.81353339  0.76986712  0.39351464  1  0.094732  0  0.103807  0.123171  0  1.032614  0
H  H48  1  0.33547529  0.59188007  0.21144456  1  0.060769  0  0.102765  0.106063  0  1.015193  0
H  H49  1  0.74368300  0.61952299  0.40805637  1  0.09072  0  0.102819  0.10585  0  1.015357  0
H  H50  1  0.12399188  0.78853297  0.38045360  1  0.077398  0  0.102912  0.105926  0  1.01547  0
H  H51  1  0.53157741  0.56728768  0.16066560  1  0.053426  0  0.099648  0.106016  0  1.02502  0
H  H52  1  0.96432658  0.59334323  0.43265645  1  0.052396  0  0.099382  0.105864  0  1.024605  0
H  H53  1  0.37080345  0.83932087  0.40667186  1  0.087068  0  0.099471  0.105967  0  1.024562  0
H  H54  1  0.46603998  0.60287257  0.12098555  1  0.061507  0  0.09141  0.129869  0  1.008627  0
H  H55  1  0.86323703  0.51809487  0.39714228  1  0.05012  0  0.091454  0.130361  0  1.008305  0
H  H56  1  0.34492080  0.87905850  0.48191134  1  0.074211  0  0.091381  0.129828  0  1.008583  0
H  H57  1  0.36694477  0.63636409  0.15795394  1  0.043338  0  0.090117  0.126276  0  0.996832  0
H  H58  1  0.73062606  0.52159020  0.36366537  1  0.040904  0  0.090097  0.126234  0  0.997085  0
H  H59  1  0.20886975  0.84208754  0.47842139  1  0.02954  0  0.090207  0.126492  0  0.996603  0
H  H60  1  0.27467411  0.62492596  0.11519530  1  0.041299  0  0.088393  0.121089  0  0.999747  0
H  H61  1  0.64972746  0.49027330  0.37509623  1  0.050364  0  0.088749  0.121533  0  0.999922  0
H  H62  1  0.15930348  0.88484229  0.50975017  1  0.016273  0  0.088568  0.121246  0  1.00014  0
H  H63  1  0.49173132  0.54278487  0.98349606  1  0.022987  0  0.092402  0.129923  0  1.037005  0
H  H64  1  0.94902529  0.44070865  0.45720660  1  0.053155  0  0.092436  0.129835  0  1.037417  0
H  H65  1  0.50833060  0.01648347  0.55928240  1  0.064114  0  0.092173  0.129478  0  1.037382  0
H  H66  1  0.50573728  0.58365351  0.02261962  1  0.031633  0  0.090537  0.123527  0  0.997155  0
H  H67  1  0.92218593  0.43898012  0.41634269  1  0.025584  0  0.09057  0.12369  0  0.996861  0
H  H68  1  0.48322012  0.97735550  0.56102941  1  0.025597  0  0.090549  0.123726  0  0.997321  0
H  H69  1  0.27778980  0.56091818  0.00229194  1  0.040574  0  0.087004  0.11862  0  1.0354  0
H  H70  1  0.71696333  0.44135499  0.43906526  1  0.021305  0  0.086851  0.11803  0  1.035673  0
H  H71  1  0.27563374  0.99768402  0.55861160  1  0.023106  0  0.086934  0.11821  0  1.035704  0
H  H72  1  0.98397741  0.50899510  0.94486201  1  0.055784  0  0.099127  0.104489  0  1.025845  0
H  H73  1  0.47498498  0.43589042  0.49103061  1  0.04313  0  0.099237  0.104786  0  1.025868  0
H  H74  1  0.03909617  0.05515360  0.56412233  1  0.061819  0  0.099352  0.104944  0  1.02612  0
H  H75  1  0.79842740  0.56294959  0.03129859  1  0.036049  0  0.093268  0.1321  0  1.009332  0
H  H76  1  0.23557463  0.46836762  0.43706885  1  0.033547  0  0.093361  0.13174  0  1.009039  0
H  H77  1  0.76722400  0.96872416  0.53166053  1  0.032545  0  0.093198  0.132266  0  1.009174  0
H  H78  1  0.81272214  0.56685486  0.99333857  1  0.0203  0  0.089848  0.12241  0  0.99978  0
H  H79  1  0.24593127  0.42651105  0.43318186  1  0.067526  0  0.089842  0.122069  0  1.000778  0
H  H80  1  0.81945712  0.00669466  0.57351743  1  0.02247  0  0.089821  0.12258  0  1.00025  0
H  H81  1  0.01615312  0.55626417  0.01080384  1  0.016351  0  0.086288  0.118233  0  1.051  0
H  H82  1  0.45998332  0.45455316  0.44375137  1  0.023793  0  0.086558  0.118834  0  1.051069  0
H  H83  1  0.00545932  0.98921396  0.54546953  1  0.02813  0  0.086625  0.11915  0  1.050232  0
H  H84  1  0.87119936  0.38818440  0.91855736  1  0.053008  0  0.091526  0.128158  0  1.006098  0
H  H85  1  0.48288052  0.53037410  0.61180869  1  0.049287  0  0.09149  0.128157  0  1.006235  0
H  H86  1  0.95263638  0.08142977  0.46961549  1  0.051153  0  0.091431  0.127954  0  1.006244  0
H  H87  1  0.62244444  0.38726285  0.90664750  1  0.034126  0  0.091659  0.125551  0  0.996943  0
H  H88  1  0.23508064  0.51940745  0.61277657  1  0.039838  0  0.09199  0.126104  0  0.996454  0
H  H89  1  0.71577855  0.09334269  0.48059577  1  0.02706  0  0.091778  0.125949  0  0.996491  0
H  H90  1  0.69503156  0.39281879  0.94809119  1  0.042575  0  0.088956  0.121914  0  1.000743  0
H  H91  1  0.30208804  0.55528159  0.60719308  1  0.020509  0  0.089185  0.122399  0  1.000049  0
H  H92  1  0.74690920  0.05189879  0.44470299  1  0.028044  0  0.089269  0.122258  0  1.000228  0
H  H93  1  0.41128424  0.45142691  0.87112588  1  0.057732  0  0.098725  0.103227  0  1.019152  0
H  H94  1  0.95969225  0.41968942  0.54855851  1  0.078763  0  0.098835  0.103672  0  1.018592  0
H  H95  1  0.53993046  0.12888103  0.58033792  1  0.060556  0  0.098634  0.103544  0  1.019069  0
H  H96  1  0.25859304  0.48774873  0.95787543  1  0.047851  0  0.091702  0.132855  0  1.013034  0
H  H97  1  0.77070085  0.47011115  0.51223774  1  0.043581  0  0.091761  0.13291  0  1.012635  0
H  H98  1  0.30062356  0.04211704  0.52986483  1  0.055638  0  0.091953  0.133118  0  1.012892  0
H  H99  1  0.27111332  0.51016352  0.93415396  1  0.01353  0  0.08801  0.118816  0  1.00416  0
H  H100  1  0.76082875  0.42396987  0.48981554  1  0.015814  0  0.088202  0.119461  0  1.003596  0
H  H101  1  0.33688041  0.06583256  0.57600354  1  0.021035  0  0.088341  0.119513  0  1.003377  0
H  H102  1  0.45087026  0.48216060  0.93113877  1  0.036069  0  0.087426  0.121277  0  1.035337  0
H  H103  1  0.96852091  0.44896159  0.51783272  1  0.037215  0  0.087278  0.120738  0  1.035764  0
H  H104  1  0.51961104  0.06886160  0.55101765  1  0.069591  0  0.087125  0.121117  0  1.035304  0
H  H105  1  0.05408872  0.33862001  0.80163296  1  0.045631  0  0.091231  0.129185  0  1.001625  0
H  H106  1  0.71552802  0.46301025  0.66136576  1  0.037966  0  0.091192  0.129338  0  1.00152  0
H  H107  1  0.25245263  0.19835838  0.53700522  1  0.044964  0  0.091213  0.129026  0  1.001773  0
H  H108  1  0.84049697  0.35522941  0.79448102  1  0.049719  0  0.087876  0.123322  0  1.035169  0
H  H109  1  0.48525352  0.43924515  0.64477698  1  0.031687  0  0.087969  0.123407  0  1.035019  0
H  H110  1  0.04592857  0.20554494  0.56076417  1  0.026963  0  0.088065  0.123612  0  1.034718  0
H  H111  1  0.85446346  0.34301658  0.82679790  1  0.034333  0  0.089866  0.125649  0  0.994467  0
H  H112  1  0.51150971  0.48377502  0.65696788  1  0.0448  0  0.089861  0.125799  0  0.99443  0
H  H113  1  0.02767356  0.17320779  0.51623287  1  0.040627  0  0.089602  0.125229  0  0.994888  0
H  H114  1  0.58954861  0.41807591  0.83956166  1  0.043581  0  0.095945  0.099718  0  1.043788  0
H  H115  1  0.17135803  0.42149992  0.58194467  1  0.040785  0  0.095478  0.097717  0  1.045055  0
H  H116  1  0.74995053  0.16044343  0.57851065  1  0.084738  0  0.095663  0.098026  0  1.045275  0
H  H117  1  0.76815940  0.40258788  0.78816573  1  0.057335  0  0.104964  0.106799  0  1.008985  0
H  H118  1  0.36548898  0.38557586  0.59740819  1  0.079186  0  0.104967  0.107  0  1.008872  0
H  H119  1  0.97992685  0.21185089  0.61441245  1  0.068497  0  0.104904  0.106332  0  1.009533  0
C  C120  1  0.31982678  0.36550609  0.74581440  1  0.616907  0  0.092624  0.371524  0  4.087305  0
C  C121  1  0.95432848  0.38031366  0.63451801  1  0.590814  0  0.092829  0.372263  0  4.086218  0
C  C122  1  0.57387342  0.25420633  0.61970796  1  0.596935  0  0.092988  0.372761  0  4.084353  0
C  C123  1  0.21803578  0.37669298  0.77576330  1  -0.041879  0  -0.108333  -0.2695  0  3.913965  0
C  C124  1  0.84127682  0.39904618  0.62330201  1  -0.023555  0  -0.108499  -0.270068  0  3.914469  0
C  C125  1  0.44216830  0.22424404  0.60096155  1  0.04416  0  -0.108698  -0.270509  0  3.914297  0
C  C126  1  0.30873230  0.39549945  0.80975177  1  -0.032011  0  -0.000697  0.115214  0  4.004918  0
C  C127  1  0.91312997  0.41423634  0.60449917  1  -0.0453  0  -0.00055  0.115473  0  4.003953  0
C  C128  1  0.49889436  0.19025476  0.58578118  1  -0.070053  0  -0.000507  0.115396  0  4.003168  0
C  C129  1  0.19783511  0.40803109  0.84086720  1  -0.017588  0  -0.013632  0.001748  0  3.974243  0
C  C130  1  0.78961379  0.43279725  0.59194432  1  -0.001954  0  -0.013505  0.001459  0  3.973568  0
C  C131  1  0.35673652  0.15914675  0.56720984  1  -0.009819  0  -0.013775  0.001561  0  3.972187  0
C  C132  1  0.02109911  0.39148476  0.84243453  1  -0.093422  0  -0.011525  0.124715  0  3.943538  0
C  C133  1  0.62953132  0.45093245  0.60850421  1  -0.027837  0  -0.011412  0.124724  0  3.944008  0
C  C134  1  0.17849105  0.15757715  0.54907788  1  -0.039863  0  -0.011223  0.125244  0  3.942596  0
C  C135  1  0.92285974  0.40890556  0.87249470  1  0.001411  0  -0.097442  -0.200623  0  3.978809  0
C  C136  1  0.51390659  0.46359238  0.59110218  1  -0.004559  0  -0.098182  -0.201506  0  3.980528  0
C  C137  1  0.05023100  0.12751190  0.53642449  1  -0.008991  0  -0.097635  -0.200395  0  3.978971  0
C  C138  1  0.99439534  0.44041447  0.90259295  1  -0.009628  0  -0.011904  0.015849  0  3.964831  0
C  C139  1  0.55387353  0.46218720  0.55959339  1  -0.08132  0  -0.011199  0.016724  0  3.96516  0
C  C140  1  0.09168986  0.09740062  0.53781365  1  -0.045496  0  -0.012024  0.015259  0  3.965639  0
C  C141  1  0.87861506  0.45748981  0.93323484  1  -0.004793  0  -0.011823  0.011937  0  3.963908  0
C  C142  1  0.42097119  0.47575906  0.54253232  1  0.097071  0  -0.011827  0.012901  0  3.962932  0
C  C143  1  0.94527462  0.06676472  0.52423553  1  0.013231  0  -0.012165  0.012093  0  3.963978  0
C  C144  1  0.75718091  0.43900647  0.94470738  1  -0.012322  0  -0.011888  0.122271  0  3.946328  0
C  C145  1  0.31794050  0.50570069  0.56101128  1  -0.027907  0  -0.012262  0.121249  0  3.946216  0
C  C146  1  0.81240810  0.05527871  0.49427415  1  -0.037221  0  -0.012204  0.12144  0  3.945364  0
C  C147  1  0.65274147  0.45827792  0.97339195  1  -0.019925  0  -0.097048  -0.194926  0  3.976782  0
C  C148  1  0.19429386  0.51511339  0.54173335  1  -0.112912  0  -0.096825  -0.19337  0  3.976544  0
C  C149  1  0.67929960  0.02659243  0.48486412  1  -0.056208  0  -0.09656  -0.193801  0  3.97654  0
C  C150  1  0.66823898  0.49497500  0.99321371  1  -0.080523  0  -0.010442  0.019369  0  3.981986  0
C  C151  1  0.17320997  0.49825331  0.50503853  1  0.039696  0  -0.010375  0.017308  0  3.985603  0
C  C152  1  0.67508670  0.00676795  0.50173922  1  -0.012635  0  -0.010051  0.018739  0  3.984604  0
C  C153  1  0.54774867  0.51160179  0.02307977  1  -0.051752  0  -0.010196  0.016297  0  3.975711  0
C  C154  1  0.03604136  0.51148166  0.48840801  1  -0.056306  0  -0.0104  0.016739  0  3.975195  0
C  C155  1  0.52476559  0.97690559  0.48851160  1  -0.037924  0  -0.010014  0.016379  0  3.977456  0
C  C156  1  0.43419985  0.53956107  0.02966453  1  -0.008223  0  -0.013175  0.112975  0  3.962963  0
C  C157  1  0.89449249  0.49010407  0.46045133  1  0.012461  0  -0.013047  0.112395  0  3.96336  0
C  C158  1  0.40463368  0.97032136  0.50988449  1  -0.052714  0  -0.013152  0.112578  0  3.963245  0
C  C159  1  0.31794847  0.55107659  0.05753374  1  -0.063153  0  -0.094295  -0.187053  0  3.974237  0
C  C160  1  0.76673223  0.50645817  0.44893968  1  -0.045927  0  -0.094264  -0.187919  0  3.97586  0
C  C161  1  0.26039157  0.94247469  0.49353410  1  0.028308  0  -0.094499  -0.188103  0  3.97446  0
C  C162  1  0.30572812  0.53654940  0.07928261  1  0.03701  0  -0.012047  0.015573  0  3.984549  0
C  C163  1  0.76904290  0.54272976  0.46347691  1  -0.045897  0  -0.012143  0.016232  0  3.984122  0
C  C164  1  0.22631168  0.92074282  0.45726278  1  -0.076962  0  -0.012547  0.016349  0  3.980854  0
C  C165  1  0.41656923  0.50819044  0.07233191  1  -0.053869  0  -0.014051  0.118441  0  3.963739  0
C  C166  1  0.90827838  0.56414456  0.49182584  1  0.003503  0  -0.013784  0.118134  0  3.965842  0
C  C167  1  0.34418306  0.92768310  0.43585201  1  -0.031806  0  -0.013732  0.118148  0  3.963378  0
C  C168  1  0.53520580  0.49706180  0.04492107  1  -0.001275  0  -0.098436  -0.194797  0  3.984506  0
C  C169  1  0.03804197  0.54786322  0.50295363  1  0.00994  0  -0.098011  -0.193633  0  3.984544  0
C  C170  1  0.49029136  0.95508048  0.45213183  1  -0.027161  0  -0.098375  -0.19392  0  3.986725  0
C  C171  1  0.41366861  0.48930504  0.09278213  1  -0.072923  0  -0.239366  -0.40619  0  3.99051  0
C  C172  1  0.92443290  0.60347320  0.51068457  1  -0.05902  0  -0.23961  -0.405824  0  3.99102  0
C  C173  1  0.32090905  0.90722054  0.39652003  1  -0.049525  0  -0.239794  -0.405839  0  3.990993  0
C  C174  1  0.17982666  0.55151799  0.10848259  1  -0.033685  0  -0.011942  0.012357  0  3.986334  0
C  C175  1  0.62817600  0.55695936  0.44850240  1  -0.031087  0  -0.01207  0.013063  0  3.98358  0
C  C176  1  0.07115346  0.89154902  0.44304163  1  -0.009593  0  -0.011843  0.013242  0  3.984072  0
C  C177  1  0.18679375  0.58792954  0.13189776  1  -0.076529  0  -0.012915  0.115559  0  3.965902  0
C  C178  1  0.59893124  0.54397712  0.41209384  1  0.01826  0  -0.012799  0.115116  0  3.965172  0
C  C179  1  0.05481012  0.86813015  0.45603799  1  0.025855  0  -0.012803  0.115245  0  3.964948  0
C  C180  1  0.05797422  0.59990168  0.15788987  1  0.011972  0  -0.095868  -0.192016  0  3.98485  0
C  C181  1  0.45826433  0.55799485  0.40010080  1  -0.074905  0  -0.095734  -0.192321  0  3.985556  0
C  C182  1  0.90004055  0.84212311  0.44201607  1  -0.094968  0  -0.096368  -0.193335  0  3.985858  0
C  C183  1  0.92953408  0.57762269  0.16288300  1  -0.038505  0  -0.012171  0.005834  0  3.982575  0
C  C184  1  0.35201513  0.58526102  0.42236683  1  -0.00817  0  -0.0123  0.005865  0  3.982162  0
C  C185  1  0.76659425  0.83711590  0.41473790  1  -0.015668  0  -0.012113  0.005614  0  3.982464  0
C  C186  1  0.93262279  0.54118396  0.14124062  1  0.017737  0  -0.012784  0.122056  0  3.965993  0
C  C187  1  0.39136520  0.60005039  0.45881364  1  -0.005351  0  -0.012741  0.121991  0  3.965722  0
C  C188  1  0.79135745  0.85876030  0.39993948  1  0.019662  0  -0.012206  0.123345  0  3.965632  0
C  C189  1  0.05243662  0.52931175  0.11394928  1  -0.088658  0  -0.096031  -0.193875  0  3.983623  0
C  C190  1  0.52296791  0.58463042  0.47070284  1  -0.068462  0  -0.095328  -0.192541  0  3.985007  0
C  C191  1  0.93835181  0.88607251  0.41536315  1  -0.061789  0  -0.095754  -0.192613  0  3.985713  0
C  C192  1  0.83137284  0.51540550  0.14929105  1  -0.042051  0  -0.239245  -0.405363  0  3.989706  0
C  C193  1  0.31586269  0.63387896  0.48458973  1  -0.01325  0  -0.238845  -0.40456  0  3.9885  0
C  C194  1  0.68206303  0.85070650  0.36610777  1  -0.074299  0  -0.23967  -0.406222  0  3.989649  0
C  C195  1  0.80395707  0.59291938  0.19200752  1  0.018518  0  0.00112  0.121176  0  4.014265  0
C  C196  1  0.21115952  0.59906849  0.40704370  1  -0.025656  0  0.001556  0.122221  0  4.012622  0
C  C197  1  0.61192960  0.80798348  0.40091791  1  0.046793  0  0.0016  0.122168  0  4.012106  0
C  C198  1  0.88761955  0.61675514  0.22548058  1  -0.012429  0  -0.110198  -0.280097  0  3.935877  0
C  C199  1  0.27098894  0.60873880  0.38322992  1  -0.061043  0  -0.110784  -0.281251  0  3.934848  0
C  C200  1  0.66217710  0.77450772  0.39125474  1  -0.065947  0  -0.110676  -0.281016  0  3.934249  0
C  C201  1  0.77931132  0.63190738  0.25471107  1  0.554825  0  0.091555  0.370794  0  4.085669  0
C  C202  1  0.14757109  0.62282029  0.36807324  1  0.606621  0  0.092722  0.372713  0  4.086117  0
C  C203  1  0.52463181  0.74527473  0.37717200  1  0.530747  0  0.092395  0.372082  0  4.085404  0
C  C204  1  0.57517626  0.62183050  0.24946975  1  -0.00279  0  -0.046207  -0.21651  0  3.961027  0
C  C205  1  0.95347069  0.62763438  0.37813809  1  -0.036986  0  -0.046181  -0.217267  0  3.962016  0
C  C206  1  0.32572200  0.75050622  0.37232995  1  -0.025475  0  -0.045579  -0.216093  0  3.961536  0
C  C207  1  0.49154503  0.59866112  0.21515761  1  -0.033735  0  -0.086631  -0.062802  0  4.019725  0
C  C208  1  0.89296012  0.61644899  0.40127222  1  -0.059142  0  -0.086524  -0.062033  0  4.018482  0
C  C209  1  0.27634414  0.78482284  0.38351881  1  -0.035586  0  -0.087151  -0.062956  0  4.019705  0
C  C210  1  0.60143872  0.58447278  0.18686906  1  -0.043557  0  -0.105565  -0.170823  0  4.005866  0
C  C211  1  0.01702884  0.60234048  0.41545649  1  0.007069  0  -0.105717  -0.171484  0  4.004524  0
C  C212  1  0.41448684  0.81311883  0.39765531  1  -0.063722  0  -0.105244  -0.170709  0  4.004414  0
C  C213  1  0.45071105  0.63303097  0.27844769  1  1.480766  0  0.235492  0.675303  0  4.128571  0
C  C214  1  0.81776561  0.64542050  0.36695499  1  1.483686  0  0.235411  0.674854  0  4.127363  0
C  C215  1  0.17227492  0.72153578  0.35454375  1  1.49101  0  0.234465  0.673896  0  4.128832  0
C  C216  1  0.33131878  0.61427717  0.13134782  1  -0.086345  0  -0.240102  -0.409767  0  3.998505  0
C  C217  1  0.71709698  0.51706910  0.38575198  1  -0.104115  0  -0.240807  -0.410834  0  3.998773  0
C  C218  1  0.19981790  0.86869869  0.48295346  1  -0.080933  0  -0.24031  -0.409887  0  3.998552  0
C  C219  1  0.42774781  0.55743503  0.00824212  1  -0.031228  0  -0.242042  -0.413632  0  3.990685  0
C  C220  1  0.87038564  0.45080677  0.44255873  1  -0.088385  0  -0.24175  -0.412537  0  3.990688  0
C  C221  1  0.41966219  0.99172981  0.54918016  1  -0.043924  0  -0.24127  -0.412235  0  3.990823  0
C  C222  1  0.79961478  0.51331545  0.98348049  1  -0.000655  0  -0.01379  0.113717  0  3.966574  0
C  C223  1  0.28638390  0.47019483  0.48670902  1  0.007984  0  -0.014669  0.113534  0  3.968981  0
C  C224  1  0.81624072  0.01651764  0.52981537  1  0.015326  0  -0.014972  0.113361  0  3.967496  0
C  C225  1  0.89196097  0.49419265  0.95304968  1  -0.067809  0  -0.096002  -0.191476  0  3.970539  0
C  C226  1  0.39775070  0.45887992  0.50583014  1  -0.172274  0  -0.096288  -0.192683  0  3.971138  0
C  C227  1  0.93890983  0.04695409  0.54112534  1  -0.122059  0  -0.096059  -0.192213  0  3.9711  0
C  C228  1  0.85784516  0.55192515  0.00586828  1  -0.027937  0  -0.24111  -0.407245  0  3.980967  0
C  C229  1  0.30603012  0.45396824  0.44810184  1  -0.103954  0  -0.240957  -0.406381  0  3.98201  0
C  C230  1  0.85209333  0.99415428  0.54606012  1  -0.044451  0  -0.241081  -0.408366  0  3.981894  0
C  C231  1  0.73627470  0.39978726  0.92855723  1  -0.080388  0  -0.238421  -0.404937  0  3.992607  0
C  C232  1  0.33629651  0.52877808  0.60022798  1  -0.062922  0  -0.238789  -0.405727  0  3.991957  0
C  C233  1  0.80768110  0.07142940  0.47120688  1  -0.061729  0  -0.238667  -0.405259  0  3.991868  0
C  C234  1  0.18165832  0.45466820  0.90214749  1  -0.017558  0  -0.013864  0.120836  0  3.957993  0
C  C235  1  0.72678721  0.44746068  0.54531973  1  -0.01562  0  -0.01365  0.121416  0  3.956526  0
C  C236  1  0.27933999  0.09785142  0.55253210  1  -0.020085  0  -0.013256  0.12245  0  3.95603  0
C  C237  1  0.27236982  0.43881198  0.87127497  1  -0.042999  0  -0.096522  -0.186543  0  3.977547  0
C  C238  1  0.83333897  0.43243538  0.56116790  1  -0.06798  0  -0.097125  -0.187428  0  3.977455  0
C  C239  1  0.40083554  0.12873820  0.56758611  1  -0.042248  0  -0.096641  -0.187319  0  3.976986  0
C  C240  1  0.29532017  0.48525709  0.93300162  1  -0.033999  0  -0.244514  -0.415091  0  3.993523  0
C  C241  1  0.80986414  0.44772418  0.51472791  1  -0.030774  0  -0.244365  -0.415247  0  3.992572  0
C  C242  1  0.36219808  0.06699201  0.55225055  1  -0.101388  0  -0.244716  -0.416256  0  3.992356  0
C  C243  1  0.93897575  0.35526535  0.81478315  1  -0.076319  0  -0.240405  -0.409094  0  3.981447  0
C  C244  1  0.58371030  0.45950369  0.64472961  1  -0.066271  0  -0.240417  -0.409368  0  3.981406  0
C  C245  1  0.12410986  0.18523326  0.54050840  1  -0.06699  0  -0.240366  -0.408826  0  3.980595  0
C  C246  1  0.51141350  0.40417122  0.81372319  1  -0.016495  0  -0.109349  -0.176189  0  4.00976  0
C  C247  1  0.10716464  0.40956748  0.59585315  1  -0.00041  0  -0.108956  -0.174029  0  4.009814  0
C  C248  1  0.69763529  0.18628288  0.59044831  1  -0.107843  0  -0.109079  -0.175069  0  4.009791  0
C  C249  1  0.61321600  0.39492677  0.78485645  1  0.00526  0  -0.088427  -0.065168  0  4.043756  0
C  C250  1  0.21825151  0.38993872  0.60508431  1  -0.01535  0  -0.087778  -0.064501  0  4.042813  0
C  C251  1  0.82827297  0.21515483  0.61006219  1  0.015451  0  -0.088136  -0.063795  0  4.043048  0
C  C252  1  0.52367765  0.37545524  0.75050206  1  -0.068125  0  -0.045593  -0.215306  0  3.96937  0
C  C253  1  0.14824403  0.37506124  0.62457111  1  -0.060081  0  -0.046095  -0.217323  0  3.970785  0
C  C254  1  0.77306373  0.24951295  0.62494612  1  -0.08799  0  -0.045639  -0.216689  0  3.969927  0
C  C255  1  0.64410342  0.36667002  0.72134014  1  1.491736  0  0.233752  0.672904  0  4.133001  0
C  C256  1  0.27741632  0.35468121  0.63334701  1  1.475033  0  0.234563  0.675161  0  4.130902  0
C  C257  1  0.92259526  0.27868034  0.64532625  1  1.526262  0  0.234228  0.674749  0  4.130887  0
O  O258  1  0.27248140  0.62167071  0.27336050  1  -1.248329  0  -0.354444  -0.647394  0  2.158298  0
O  O259  1  0.65085416  0.65167719  0.37830662  1  -1.247598  0  -0.354525  -0.647013  0  2.157797  0
O  O260  1  0.99911456  0.72662765  0.34827795  1  -1.245795  0  -0.354158  -0.646936  0  2.157506  0
O  O261  1  0.52801429  0.65467197  0.30976621  1  -1.301556  0  -0.405159  -0.769042  0  2.414964  0
O  O262  1  0.87338946  0.65511117  0.34532123  1  -1.292516  0  -0.405094  -0.768888  0  2.413405  0
O  O263  1  0.21826721  0.69021746  0.34486450  1  -1.296319  0  -0.404593  -0.768298  0  2.414313  0
O  O264  1  0.87606330  0.65434510  0.28577641  1  -1.314259  0  -0.448696  -0.773897  0  2.298481  0
O  O265  1  0.22189609  0.63145251  0.34564153  1  -1.310063  0  -0.449379  -0.77451  0  2.299598  0
O  O266  1  0.59039566  0.71421554  0.36854958  1  -1.306264  0  -0.449357  -0.774309  0  2.299033  0
O  O267  1  0.82246682  0.37802689  0.72663956  1  -1.24136  0  -0.356468  -0.648312  0  2.145768  0
O  O268  1  0.44442269  0.34861129  0.62198824  1  -1.238315  0  -0.356922  -0.649189  0  2.144125  0
O  O269  1  0.09567123  0.27340509  0.65140826  1  -1.250389  0  -0.35643  -0.649054  0  2.144024  0
O  O270  1  0.56356799  0.34669876  0.68989681  1  -1.300138  0  -0.403842  -0.766656  0  2.41783  0
O  O271  1  0.21686969  0.34322469  0.65333064  1  -1.291933  0  -0.40433  -0.767681  0  2.417623  0
O  O272  1  0.87344501  0.31011620  0.65677287  1  -1.297027  0  -0.404635  -0.767712  0  2.417593  0
O  O273  1  0.21921158  0.34623621  0.71440182  1  -1.317761  0  -0.449317  -0.780458  0  2.307193  0
O  O274  1  0.87293363  0.36818893  0.65379836  1  -1.310263  0  -0.449367  -0.780084  0  2.30577  0
O  O275  1  0.50459016  0.28560980  0.63182905  1  -1.312084  0  -0.449337  -0.780541  0  2.305947  0
