# generated using pymatgen
data_CuH9C4NO6
_symmetry_space_group_name_H-M   'P 1'
_cell_length_a   6.85948776
_cell_length_b   6.85948272
_cell_length_c   7.57610914
_cell_angle_alpha   92.92156388
_cell_angle_beta   92.92179541
_cell_angle_gamma   93.12629030
_symmetry_Int_Tables_number   1
_chemical_formula_structural   CuH9C4NO6
_chemical_formula_sum   'Cu2 H18 C8 N2 O12'
_cell_volume   354.96519393
_cell_formula_units_Z   2
loop_
 _symmetry_equiv_pos_site_id
 _symmetry_equiv_pos_as_xyz
  1  'x, y, z'
loop_
 _atom_site_type_symbol
 _atom_site_label
 _atom_site_symmetry_multiplicity
 _atom_site_fract_x
 _atom_site_fract_y
 _atom_site_fract_z
 _atom_site_occupancy
 _atom_site_hle17_ddec_charge
 _atom_site_hle17_ddec_spin_density
 _atom_site_hle17_ddec_sum_bond_order
 _atom_site_hle17_magmom
 _atom_site_hse06_10hf_ddec_charge
 _atom_site_hse06_10hf_ddec_spin_density
 _atom_site_hse06_10hf_ddec_sum_bond_order
 _atom_site_hse06_10hf_magmom
 _atom_site_hse06_ddec_charge
 _atom_site_hse06_ddec_spin_density
 _atom_site_hse06_ddec_sum_bond_order
 _atom_site_hse06_magmom
 _atom_site_pbe_cm5_charge
 _atom_site_pbe_ddec_charge
 _atom_site_pbe_ddec_spin_density
 _atom_site_pbe_ddec_sum_bond_order
 _atom_site_pbe_magmom
Cu  Cu0  1  0.76213825  0.76700636  0.12600350  1  0.979965  -0.74315  1.697616  -0.542  0.9659  -0.82658  2.083393  -0.66  1.046842  -0.891591  2.022364  -0.738  0.721487  0.909298  -0.775383  2.132498  -0.605
Cu  Cu1  1  0.23299296  0.23786229  0.87399600  1  0.979944  0.743148  1.697662  0.542  0.965925  0.826585  2.083397  0.66  1.046843  0.891593  2.022373  0.738  0.721496  0.909318  0.775381  2.132515  0.605
H  H2  1  0.62833062  0.63737820  0.53706125  1  0.129271  0.000226  0.931112  0.0  0.140767  -1.1e-05  0.994168  0.0  0.143244  7e-06  0.992894  0.0  0.107424  0.13882  -2.9e-05  0.995354  0.0
H  H3  1  0.36261449  0.37167226  0.46293806  1  0.129236  -0.000227  0.931127  0.0  0.140741  1.1e-05  0.994187  0.0  0.143221  -7e-06  0.992916  0.0  0.107398  0.138797  2.9e-05  0.995368  0.0
H  H4  1  0.75965830  0.44164748  0.61445845  1  0.12921  0.000249  0.947401  0.0  0.140108  0.000108  1.010545  0.0  0.142865  0.000112  1.010064  0.0  0.110233  0.137963  9.9e-05  1.011195  0.0
H  H5  1  0.55834795  0.24035028  0.38554316  1  0.129254  -0.00025  0.94732  0.0  0.140161  -0.000108  1.010474  0.0  0.142923  -0.000111  1.009995  0.0  0.11025  0.138017  -9.9e-05  1.011122  0.0
H  H6  1  0.07146785  0.62203777  0.51457200  1  0.078326  -0.002432  0.91952  -0.003  0.090048  -0.001526  0.977215  -0.002  0.090976  -0.001051  0.976102  -0.001  0.118764  0.089013  -0.00186  0.978483  -0.002
H  H7  1  0.37796009  0.92853778  0.48542665  1  0.078352  0.002427  0.919502  0.003  0.090077  0.001526  0.977186  0.002  0.091006  0.001052  0.976072  0.001  0.118783  0.089042  0.00186  0.978453  0.002
H  H8  1  0.83113545  0.91144690  0.44278505  1  0.320183  0.000926  0.891676  0.002  0.308189  -3.4e-05  0.952193  0.001  0.315756  0.000132  0.948112  0.001  0.29951  0.302738  -0.000141  0.955311  0.0
H  H9  1  0.08855083  0.16886690  0.55721432  1  0.320187  -0.000926  0.891694  -0.002  0.308198  3.4e-05  0.952221  -0.001  0.315766  -0.000132  0.948139  -0.001  0.299499  0.302748  0.000141  0.955343  0.0
H  H10  1  0.03396259  0.87942200  0.33160677  1  0.307453  0.001142  0.924177  0.002  0.293286  0.000177  0.989969  0.001  0.301115  0.000344  0.984334  0.001  0.291178  0.287609  4.3e-05  0.994288  0.0
H  H11  1  0.12057764  0.96603899  0.66839386  1  0.307464  -0.001142  0.924193  -0.002  0.293285  -0.000177  0.990004  -0.001  0.301114  -0.000344  0.984367  -0.001  0.291187  0.287609  -4.3e-05  0.994322  0.0
H  H12  1  0.64055892  0.09543622  0.02035851  1  0.43347  -0.000346  0.869787  0.0  0.404323  -0.000582  0.930422  -0.001  0.417124  -0.00042  0.912186  -0.001  0.298452  0.395169  -0.000683  0.943447  -0.001
H  H13  1  0.90456378  0.35943997  0.97964198  1  0.433481  0.000347  0.869774  0.0  0.404319  0.000582  0.930434  0.001  0.417122  0.000421  0.912194  0.001  0.298447  0.395165  0.000683  0.943458  0.001
H  H14  1  0.79819180  0.13763717  0.19279529  1  0.418842  -0.000156  0.885194  0.0  0.388804  -0.000595  0.952452  -0.001  0.40186  -0.000413  0.933651  0.0  0.29642  0.379548  -0.000746  0.965749  -0.001
H  H15  1  0.86236257  0.20180796  0.80720676  1  0.41886  0.000156  0.885196  0.0  0.388823  0.000595  0.952433  0.001  0.401877  0.000414  0.933635  0.0  0.296432  0.379564  0.000746  0.965734  0.001
H  H16  1  0.39071867  0.55895954  0.18628780  1  0.419948  0.000191  0.88104  0.0  0.393881  0.000216  0.937836  0.0  0.405527  0.000117  0.92083  0.0  0.283826  0.385661  0.000312  0.949791  0.0
H  H17  1  0.44104260  0.60928204  0.81371154  1  0.419939  -0.000192  0.881049  0.0  0.393876  -0.000217  0.937839  0.0  0.405521  -0.000116  0.920833  0.0  0.283814  0.385654  -0.000312  0.949796  0.0
H  H18  1  0.36574310  0.78971214  0.20456870  1  0.419206  -3.2e-05  0.88123  0.0  0.39501  2.2e-05  0.934839  0.0  0.405071  1.5e-05  0.920101  0.0  0.286125  0.387918  2.6e-05  0.945207  0.0
H  H19  1  0.21028985  0.63425892  0.79543020  1  0.419229  3.2e-05  0.881197  0.0  0.395022  -2.2e-05  0.93482  0.0  0.405082  -1.4e-05  0.920083  0.0  0.286131  0.38793  -2.6e-05  0.945185  0.0
C  C20  1  0.90062260  0.45757657  0.31046407  1  0.647108  0.000554  3.783949  0.002  0.596454  -0.00209  4.090779  -0.002  0.630679  -0.001287  4.085829  -0.001  0.224058  0.572893  -0.002717  4.093053  -0.002
C  C21  1  0.54242180  0.09937866  0.68953494  1  0.647129  -0.000551  3.783894  -0.002  0.596491  0.002088  4.090707  0.002  0.630717  0.00129  4.085749  0.001  0.224083  0.572931  0.002717  4.092984  0.002
C  C22  1  0.92427148  0.62731439  0.45006380  1  0.087558  0.000185  3.611428  0.004  0.0692  -0.001828  3.856429  0.001  0.07095  -0.000943  3.870324  0.001  7.4e-05  0.06821  -0.002556  3.847035  0.0
C  C23  1  0.37268373  0.07573126  0.54993631  1  0.087451  -0.000174  3.611422  -0.004  0.069127  0.001829  3.856432  -0.001  0.070879  0.000943  3.870329  -0.001  2.2e-05  0.068137  0.002556  3.84704  0.0
C  C24  1  0.77270131  0.59775755  0.58862473  1  -0.319809  -0.006779  3.631712  -0.007  -0.357008  -0.003669  3.868883  -0.004  -0.36464  -0.002514  3.876496  -0.003  -0.165697  -0.351608  -0.004659  3.863767  -0.005
C  C25  1  0.40223676  0.22730457  0.41137644  1  -0.319743  0.006777  3.631628  0.007  -0.356986  0.003669  3.868842  0.004  -0.364645  0.002514  3.876496  0.003  -0.165661  -0.351587  0.004659  3.863724  0.005
C  C26  1  0.82544592  0.70267107  0.76772478  1  0.722255  0.002462  3.82188  0.005  0.671414  -0.000215  4.136768  0.001  0.709181  0.000197  4.126902  0.001  0.211577  0.645619  -0.000549  4.142255  0.001
C  C27  1  0.29732640  0.17455713  0.23227367  1  0.722039  -0.002459  3.822222  -0.005  0.671261  0.000213  4.137073  -0.001  0.709033  -0.000197  4.127211  -0.001  0.211475  0.645472  0.000549  4.142545  -0.001
N  N28  1  0.90237958  0.81414539  0.36464068  1  -0.623592  -0.103356  3.107539  -0.128  -0.614435  -0.064221  3.387613  -0.083  -0.648081  -0.050911  3.388733  -0.07  -0.64099  -0.592663  -0.071133  3.388054  -0.089
N  N29  1  0.18585322  0.09762300  0.63536038  1  -0.623565  0.103354  3.107562  0.128  -0.614435  0.06422  3.38765  0.083  -0.64807  0.05091  3.388758  0.07  -0.64099  -0.592666  0.071132  3.388097  0.089
O  O30  1  0.84642973  0.49838532  0.15122017  1  -0.602713  -0.070224  2.108408  -0.095  -0.558545  -0.048879  2.375649  -0.071  -0.598297  -0.038647  2.365218  -0.059  -0.313953  -0.530983  -0.055195  2.382695  -0.078
O  O31  1  0.50161363  0.15357114  0.84877999  1  -0.602719  0.070227  2.108372  0.095  -0.558576  0.048879  2.375611  0.071  -0.598323  0.038646  2.365174  0.059  -0.31397  -0.531011  0.055196  2.382655  0.078
O  O32  1  0.92858675  0.28638957  0.35251821  1  -0.58665  -0.01707  1.997667  -0.022  -0.531175  -0.008983  2.219844  -0.012  -0.558993  -0.004998  2.213532  -0.007  -0.292327  -0.510908  -0.013221  2.223281  -0.017
O  O33  1  0.71360775  0.07141348  0.64748108  1  -0.586635  0.017064  1.997673  0.022  -0.531174  0.008982  2.219846  0.012  -0.558989  0.004997  2.213531  0.007  -0.292319  -0.510904  0.01322  2.223284  0.017
O  O34  1  0.68380030  0.70337200  0.87443797  1  -0.636868  -0.067657  2.076253  -0.091  -0.595031  -0.041345  2.350261  -0.06  -0.635139  -0.032065  2.338675  -0.049  -0.32927  -0.566789  -0.047673  2.357558  -0.067
O  O35  1  0.29662371  0.31620314  0.12556015  1  -0.636742  0.067656  2.076308  0.091  -0.594923  0.041346  2.350307  0.06  -0.635  0.032069  2.33867  0.049  -0.329237  -0.566698  0.047675  2.357618  0.067
O  O36  1  0.99526911  0.77363199  0.80871916  1  -0.643504  -0.000667  1.98692  -0.001  -0.602612  -0.000227  2.234386  -0.001  -0.626459  0.000169  2.217718  0.0  -0.313286  -0.585513  -0.000546  2.245218  -0.001
O  O37  1  0.22636689  0.00473316  0.19128082  1  -0.643334  0.000668  1.986892  0.001  -0.602559  0.000228  2.23444  0.001  -0.626407  -0.000173  2.217768  0.0  -0.313224  -0.585459  0.000546  2.245264  0.001
O  O38  1  0.69828220  0.04305290  0.13097336  1  -0.82325  -0.053126  2.00551  -0.07  -0.784133  -0.041252  2.239003  -0.058  -0.815346  -0.033522  2.199547  -0.049  -0.588655  -0.762323  -0.045875  2.266957  -0.062
O  O39  1  0.95694645  0.30171521  0.86902988  1  -0.823258  0.053125  2.005514  0.07  -0.784129  0.041251  2.238974  0.058  -0.815338  0.03352  2.199519  0.049  -0.588645  -0.762314  0.045874  2.266931  0.062
O  O40  1  0.45342206  0.68539468  0.23468017  1  -0.856498  0.002521  1.820992  0.002  -0.814483  0.001751  1.993587  0.001  -0.834284  0.001538  1.95847  0.001  -0.604962  -0.799708  0.001974  2.018398  0.002
O  O41  1  0.31460637  0.54657946  0.76531771  1  -0.856479  -0.002521  1.82094  -0.002  -0.814486  -0.00175  1.993562  -0.001  -0.834284  -0.00154  1.95845  -0.001  -0.604958  -0.79971  -0.001974  2.018374  -0.002
