# generated using pymatgen
data_ZnH14C16N6O5F2
_symmetry_space_group_name_H-M   'P 1'
_cell_length_a   8.61770519
_cell_length_b   21.70327031
_cell_length_c   21.70319785
_cell_angle_alpha   87.75087098
_cell_angle_beta   78.53858405
_cell_angle_gamma   78.54761186
_symmetry_Int_Tables_number   1
_chemical_formula_structural   ZnH14C16N6O5F2
_chemical_formula_sum   'Zn8 H112 C128 N48 O40 F16'
_cell_volume   3899.04827820
_cell_formula_units_Z   8
loop_
 _symmetry_equiv_pos_site_id
 _symmetry_equiv_pos_as_xyz
  1  'x, y, z'
loop_
 _atom_site_type_symbol
 _atom_site_label
 _atom_site_symmetry_multiplicity
 _atom_site_fract_x
 _atom_site_fract_y
 _atom_site_fract_z
 _atom_site_occupancy
 _atom_site_pbe_bader_charge
 _atom_site_pbe_bader_spin_density
 _atom_site_pbe_cm5_charge
 _atom_site_pbe_ddec_charge
 _atom_site_pbe_ddec_spin_density
 _atom_site_pbe_ddec_sum_bond_order
 _atom_site_pbe_magmom
Zn  Zn0  1  0.84030513  0.84275008  0.36535677  1  1.304236  0  0.686297  0.818609  0  2.382297  0
Zn  Zn1  1  0.04817831  0.65723387  0.13447986  1  1.308253  0  0.686358  0.81896  0  2.383407  0
Zn  Zn2  1  0.18256581  0.36552588  0.65724395  1  1.306443  0  0.686988  0.820321  0  2.381756  0
Zn  Zn3  1  0.20538769  0.13448067  0.84281668  1  1.30504  0  0.686358  0.818312  0  2.383416  0
Zn  Zn4  1  0.15969506  0.15725038  0.63464235  1  1.304216  0  0.68632  0.818689  0  2.38224  0
Zn  Zn5  1  0.95182159  0.34276659  0.86552074  1  1.308167  0  0.686357  0.818964  0  2.383363  0
Zn  Zn6  1  0.81743564  0.63447552  0.34275581  1  1.306575  0  0.68701  0.820419  0  2.381599  0
Zn  Zn7  1  0.79461182  0.86551931  0.15718336  1  1.305076  0  0.686376  0.818342  0  2.383419  0
H  H8  1  0.95947020  0.95848224  0.43619192  1  0.201375  0  0.147328  0.127452  0  0.984719  0
H  H9  1  0.35440930  0.54133460  0.06354693  1  0.200219  0  0.147426  0.12774  0  0.984396  0
H  H10  1  0.41727827  0.43638257  0.54140890  1  0.19859  0  0.147149  0.127235  0  0.984311  0
H  H11  1  0.39553200  0.06374834  0.95852129  1  0.206808  0  0.147222  0.127874  0  0.98411  0
H  H12  1  0.04053706  0.04151869  0.56380582  1  0.200844  0  0.147336  0.127398  0  0.984762  0
H  H13  1  0.64559153  0.45866492  0.93645321  1  0.200384  0  0.147415  0.127717  0  0.984416  0
H  H14  1  0.58272239  0.56361788  0.45858975  1  0.198435  0  0.147132  0.127222  0  0.984282  0
H  H15  1  0.60447009  0.93625212  0.04147949  1  0.206803  0  0.147216  0.127868  0  0.984115  0
H  H16  1  0.88580239  0.94291919  0.25174326  1  0.167871  0  0.131586  0.099525  0  1.040382  0
H  H17  1  0.08032350  0.55728822  0.24794821  1  0.15933  0  0.131812  0.099929  0  1.040694  0
H  H18  1  0.32900760  0.25179840  0.55728756  1  0.161476  0  0.131524  0.099024  0  1.041524  0
H  H19  1  0.13737151  0.24816837  0.94290327  1  0.151666  0  0.131876  0.099903  0  1.040653  0
H  H20  1  0.11418715  0.05708361  0.74825705  1  0.167503  0  0.131566  0.099554  0  1.040342  0
H  H21  1  0.91967164  0.44271177  0.75205145  1  0.159318  0  0.131854  0.100011  0  1.04065  0
H  H22  1  0.67099564  0.74820158  0.44271230  1  0.161512  0  0.131548  0.09906  0  1.041527  0
H  H23  1  0.86262915  0.75183114  0.05709584  1  0.15165  0  0.131896  0.099938  0  1.040697  0
H  H24  1  0.98990023  0.11323647  0.34459099  1  0.094077  0  0.122638  0.121217  0  0.98023  0
H  H25  1  0.44757059  0.38677455  0.15560055  1  0.134296  0  0.123023  0.122188  0  0.978724  0
H  H26  1  0.60293841  0.34443629  0.38679637  1  0.136712  0  0.122522  0.121521  0  0.979966  0
H  H27  1  0.33421566  0.15550139  0.11325158  1  0.132309  0  0.122457  0.120789  0  0.980613  0
H  H28  1  0.01010035  0.88676540  0.65540822  1  0.094404  0  0.122587  0.121182  0  0.980256  0
H  H29  1  0.55242994  0.61322591  0.84440060  1  0.134376  0  0.122998  0.122207  0  0.978757  0
H  H30  1  0.39706467  0.65556275  0.61320293  1  0.136746  0  0.122515  0.121518  0  0.979938  0
H  H31  1  0.66578447  0.84449953  0.88674855  1  0.132352  0  0.122448  0.120734  0  0.980715  0
H  H32  1  0.07034017  0.07443190  0.40849687  1  0.104599  0  0.117635  0.112931  0  0.995556  0
H  H33  1  0.55334648  0.42537300  0.09157314  1  0.108064  0  0.118696  0.114757  0  0.995677  0
H  H34  1  0.64468481  0.40841975  0.42546723  1  0.101062  0  0.118563  0.114654  0  0.996078  0
H  H35  1  0.47846695  0.09150923  0.07450955  1  0.102169  0  0.118495  0.114048  0  0.997341  0
H  H36  1  0.92966174  0.92556950  0.59150243  1  0.104591  0  0.11765  0.112971  0  0.995483  0
H  H37  1  0.44665171  0.57462652  0.90842727  1  0.108049  0  0.118679  0.114723  0  0.995709  0
H  H38  1  0.35531648  0.59158071  0.57453198  1  0.101116  0  0.118575  0.114655  0  0.996106  0
H  H39  1  0.52153428  0.90849076  0.92549114  1  0.102171  0  0.118476  0.114014  0  0.997382  0
H  H40  1  0.81585326  0.20599348  0.40542665  1  0.126298  0  0.115698  0.118004  0  1.008442  0
H  H41  1  0.42772275  0.29380389  0.09469271  1  0.121581  0  0.115766  0.118125  0  1.008671  0
H  H42  1  0.52263210  0.40525161  0.29393916  1  0.127894  0  0.115989  0.118326  0  1.008029  0
H  H43  1  0.22138475  0.09464919  0.20604902  1  0.12647  0  0.115556  0.118094  0  1.008045  0
H  H44  1  0.18414405  0.79400745  0.59457274  1  0.126213  0  0.115729  0.118059  0  1.008399  0
H  H45  1  0.57227607  0.70619562  0.90530825  1  0.121613  0  0.115745  0.118047  0  1.008634  0
H  H46  1  0.47737230  0.59474790  0.70605977  1  0.127908  0  0.116007  0.118374  0  1.008021  0
H  H47  1  0.77861383  0.90535079  0.79395194  1  0.126473  0  0.115561  0.118108  0  1.008029  0
H  H48  1  0.69744311  0.19541347  0.48037424  1  0.137534  0  0.119703  0.120078  0  0.988104  0
H  H49  1  0.37378392  0.30439020  0.01973256  1  0.107579  0  0.119727  0.1197  0  0.987958  0
H  H50  1  0.39385050  0.48023819  0.30442292  1  0.131907  0  0.119894  0.120813  0  0.98628  0
H  H51  1  0.17809557  0.01967408  0.19546970  1  0.102494  0  0.120207  0.120896  0  0.987475  0
H  H52  1  0.30255576  0.80458746  0.51962479  1  0.137466  0  0.119715  0.120093  0  0.988097  0
H  H53  1  0.62621358  0.69560978  0.98026831  1  0.107593  0  0.119726  0.11969  0  0.987947  0
H  H54  1  0.60615218  0.51976133  0.69557537  1  0.131891  0  0.119888  0.120788  0  0.986328  0
H  H55  1  0.82190238  0.98032685  0.80453025  1  0.102511  0  0.120192  0.120834  0  0.987541  0
H  H56  1  0.84401461  0.17539740  0.57519149  1  0.233212  0  0.14424  0.129226  0  1.019587  0
H  H57  1  0.59500422  0.32458728  0.92493990  1  0.223103  0  0.143952  0.128765  0  1.021017  0
H  H58  1  0.52014950  0.57497830  0.32467597  1  0.222832  0  0.144229  0.130215  0  1.019456  0
H  H59  1  0.41960075  0.92492695  0.17527422  1  0.223949  0  0.144883  0.130217  0  1.020117  0
H  H60  1  0.15598411  0.82460164  0.42480744  1  0.2332  0  0.144217  0.129179  0  1.019606  0
H  H61  1  0.40499149  0.67541317  0.07506133  1  0.223153  0  0.143961  0.128754  0  1.021033  0
H  H62  1  0.47985150  0.42502121  0.67532518  1  0.222815  0  0.144211  0.130187  0  1.019478  0
H  H63  1  0.58039658  0.07507304  0.82472564  1  0.223984  0  0.144857  0.130175  0  1.020029  0
H  H64  1  0.31543725  0.17357670  0.47375917  1  0.190049  0  0.136231  0.109898  0  0.986225  0
H  H65  1  0.96317232  0.32646734  0.02632856  1  0.156234  0  0.135756  0.109308  0  0.988397  0
H  H66  1  0.98992435  0.47362838  0.32630420  1  0.169373  0  0.135493  0.108183  0  0.988517  0
H  H67  1  0.78940377  0.02639963  0.17359149  1  0.172192  0  0.135886  0.108897  0  0.986859  0
H  H68  1  0.68456186  0.82642375  0.52623986  1  0.190054  0  0.136221  0.109885  0  0.986216  0
H  H69  1  0.03682479  0.67353123  0.97367221  1  0.156265  0  0.135767  0.109304  0  0.988394  0
H  H70  1  0.01007941  0.52637207  0.67369372  1  0.169372  0  0.135486  0.108187  0  0.988495  0
H  H71  1  0.21059471  0.97359988  0.82640744  1  0.172115  0  0.135911  0.108873  0  0.986955  0
H  H72  1  0.48502338  0.15711397  0.27714964  1  0.125383  0  0.120123  0.165683  0  0.973596  0
H  H73  1  0.91873734  0.34273121  0.22296119  1  0.133997  0  0.120483  0.165941  0  0.974157  0
H  H74  1  0.14158695  0.27706808  0.34285785  1  0.127309  0  0.120328  0.165737  0  0.973873  0
H  H75  1  0.76148314  0.22303005  0.15723246  1  0.118108  0  0.12028  0.165678  0  0.974111  0
H  H76  1  0.51497612  0.84288695  0.72284993  1  0.125409  0  0.120127  0.165685  0  0.973612  0
H  H77  1  0.08125946  0.65726925  0.77704014  1  0.134069  0  0.120451  0.165854  0  0.974252  0
H  H78  1  0.85841574  0.72293050  0.65714090  1  0.127347  0  0.120317  0.165716  0  0.97394  0
H  H79  1  0.23851471  0.77696946  0.84276591  1  0.118025  0  0.120261  0.165696  0  0.973978  0
H  H80  1  0.38555121  0.00896522  0.40886946  1  0.105629  0  0.111435  0.14325  0  0.992737  0
H  H81  1  0.80373660  0.49097997  0.09126733  1  0.099675  0  0.111069  0.142836  0  0.991888  0
H  H82  1  0.89458393  0.40877325  0.49114194  1  0.098517  0  0.110947  0.142457  0  0.992623  0
H  H83  1  0.79412594  0.09143706  0.00890849  1  0.096262  0  0.111064  0.142741  0  0.992626  0
H  H84  1  0.61445209  0.99103523  0.59112892  1  0.105623  0  0.111436  0.143287  0  0.992758  0
H  H85  1  0.19626169  0.50902001  0.90873511  1  0.099663  0  0.111048  0.142814  0  0.991891  0
H  H86  1  0.10541681  0.59122579  0.50885616  1  0.098495  0  0.110969  0.142498  0  0.99258  0
H  H87  1  0.20587674  0.90856152  0.99109026  1  0.096308  0  0.11107  0.14273  0  0.99266  0
H  H88  1  0.60200580  0.02897050  0.46315939  1  0.099347  0  0.107641  0.11264  0  1.010713  0
H  H89  1  0.09457693  0.47087551  0.03707765  1  0.097579  0  0.108213  0.113827  0  1.009055  0
H  H90  1  0.13115550  0.46300461  0.47099803  1  0.09537  0  0.107941  0.113429  0  1.008978  0
H  H91  1  0.06482768  0.03713992  0.02892009  1  0.115529  0  0.1077  0.113116  0  1.009772  0
H  H92  1  0.39799774  0.97102949  0.53683899  1  0.099324  0  0.107626  0.112614  0  1.010755  0
H  H93  1  0.90542183  0.52912448  0.96292433  1  0.097614  0  0.108202  0.113825  0  1.009101  0
H  H94  1  0.86884627  0.53699397  0.52900164  1  0.095295  0  0.107971  0.113458  0  1.008988  0
H  H95  1  0.93517734  0.96286053  0.97107894  1  0.115251  0  0.107705  0.113182  0  1.009673  0
H  H96  1  0.55226947  0.76678385  0.33640869  1  0.113445  0  0.116675  0.169179  0  0.989801  0
H  H97  1  0.65522855  0.73326800  0.16359786  1  0.11063  0  0.116411  0.168876  0  0.989826  0
H  H98  1  0.81884366  0.33656004  0.73334013  1  0.106203  0  0.116529  0.168915  0  0.990491  0
H  H99  1  0.88850913  0.16353833  0.76677284  1  0.145055  0  0.116314  0.168878  0  0.990386  0
H  H100  1  0.44773410  0.23321707  0.66359273  1  0.113437  0  0.11665  0.169169  0  0.989775  0
H  H101  1  0.34476808  0.26673339  0.83640200  1  0.11068  0  0.116426  0.168861  0  0.989806  0
H  H102  1  0.18115951  0.66344041  0.26666074  1  0.106057  0  0.116516  0.168893  0  0.990507  0
H  H103  1  0.11149324  0.83646213  0.23322647  1  0.145074  0  0.116316  0.168878  0  0.990333  0
H  H104  1  0.39521731  0.81962673  0.30951878  1  0.106323  0  0.10869  0.157114  0  0.973676  0
H  H105  1  0.52405837  0.68046619  0.19053400  1  0.102429  0  0.109226  0.158158  0  0.972876  0
H  H106  1  0.71441082  0.30964328  0.68058058  1  0.089906  0  0.108907  0.157953  0  0.972866  0
H  H107  1  0.70461700  0.19048535  0.81963690  1  0.062461  0  0.10839  0.156696  0  0.972785  0
H  H108  1  0.60478376  0.18037231  0.69048135  1  0.106308  0  0.108688  0.157099  0  0.973694  0
H  H109  1  0.47594147  0.31953380  0.80946807  1  0.102437  0  0.109222  0.15815  0  0.972912  0
H  H110  1  0.28559368  0.69035671  0.31942038  1  0.089852  0  0.10892  0.158004  0  0.972862  0
H  H111  1  0.29538326  0.80951464  0.18036120  1  0.062468  0  0.108385  0.156694  0  0.972808  0
H  H112  1  0.73684767  0.08881982  0.52360657  1  0.641906  0  0.285228  0.344048  0  1.009597  0
H  H113  1  0.34947791  0.41095794  0.97650864  1  0.640691  0  0.28556  0.344414  0  1.007139  0
H  H114  1  0.32583253  0.52352200  0.41103966  1  0.646992  0  0.285024  0.343621  0  1.009174  0
H  H115  1  0.26022920  0.97648192  0.08889029  1  0.640654  0  0.28503  0.343385  0  1.00952  0
H  H116  1  0.26315229  0.91118110  0.47639255  1  0.642464  0  0.285212  0.344007  0  1.009647  0
H  H117  1  0.65051952  0.58904157  0.02349370  1  0.640672  0  0.285547  0.344354  0  1.007151  0
H  H118  1  0.67416751  0.47647658  0.58895937  1  0.64694  0  0.285026  0.343631  0  1.009148  0
H  H119  1  0.73977139  0.02351901  0.91110938  1  0.640475  0  0.28503  0.3434  0  1.009516  0
C  C120  1  0.94570474  0.96737129  0.38785297  1  0.98572  0  0.173919  0.111089  0  3.848602  0
C  C121  1  0.30104031  0.53253606  0.11189411  1  0.98102  0  0.172876  0.110022  0  3.84751  0
C  C122  1  0.41263336  0.38799603  0.53259987  1  0.990997  0  0.173528  0.109246  0  3.846896  0
C  C123  1  0.33338681  0.11208860  0.96740118  1  0.982324  0  0.173424  0.108836  0  3.848404  0
C  C124  1  0.05429716  0.03263010  0.61214634  1  0.986232  0  0.173956  0.111295  0  3.848714  0
C  C125  1  0.69895897  0.46746346  0.88810639  1  0.980937  0  0.172885  0.110041  0  3.847465  0
C  C126  1  0.58736815  0.61200489  0.46739888  1  0.991343  0  0.173568  0.10925  0  3.846923  0
C  C127  1  0.66661488  0.88791139  0.03259905  1  0.98234  0  0.173415  0.108833  0  3.848437  0
C  C128  1  0.90855155  0.96172698  0.29391067  1  0.952971  0  0.144384  0.145132  0  3.974208  0
C  C129  1  0.16412849  0.53840340  0.20582130  1  0.95709  0  0.144439  0.144147  0  3.975046  0
C  C130  1  0.37039315  0.29398002  0.53843389  1  0.962779  0  0.1442  0.145133  0  3.974513  0
C  C131  1  0.20229773  0.20601878  0.96172485  1  0.981448  0  0.144589  0.144172  0  3.972972  0
C  C132  1  0.09144242  0.03827535  0.70608900  1  0.953467  0  0.144395  0.144984  0  3.974178  0
C  C133  1  0.83586861  0.46159612  0.79417901  1  0.957314  0  0.144445  0.144074  0  3.975026  0
C  C134  1  0.62960837  0.70601996  0.46156532  1  0.962679  0  0.144195  0.14506  0  3.974699  0
C  C135  1  0.79770443  0.79398027  0.03827538  1  0.981094  0  0.144605  0.144218  0  3.972884  0
C  C136  1  0.96866273  0.08119041  0.38411705  1  0.321242  0  -0.049701  -0.192993  0  3.844511  0
C  C137  1  0.43396574  0.41869756  0.11596922  1  0.283035  0  -0.051268  -0.196931  0  3.848647  0
C  C138  1  0.54970025  0.38403619  0.41877815  1  0.285031  0  -0.050732  -0.19647  0  3.84869  0
C  C139  1  0.35243681  0.11594253  0.08123817  1  0.281497  0  -0.050067  -0.194102  0  3.848489  0
C  C140  1  0.03134027  0.91881099  0.61588235  1  0.321011  0  -0.049769  -0.1931  0  3.844471  0
C  C141  1  0.56603309  0.58130196  0.88403174  1  0.282972  0  -0.051224  -0.196995  0  3.848787  0
C  C142  1  0.45030352  0.61596333  0.58122024  1  0.285023  0  -0.050764  -0.19656  0  3.848804  0
C  C143  1  0.64756263  0.88405793  0.91876289  1  0.281592  0  -0.050079  -0.194088  0  3.84859  0
C  C144  1  0.81109421  0.10733800  0.43147215  1  0.55356  0  0.081735  0.296849  0  3.84862  0
C  C145  1  0.34996125  0.39244981  0.06868556  1  0.556554  0  0.081967  0.298181  0  3.848539  0
C  C146  1  0.41841973  0.43134856  0.39256807  1  0.565039  0  0.081227  0.298045  0  3.84577  0
C  C147  1  0.24210293  0.06866116  0.10739021  1  0.574569  0  0.081608  0.300062  0  3.8459  0
C  C148  1  0.18890707  0.89266339  0.56852659  1  0.55356  0  0.081711  0.296943  0  3.848599  0
C  C149  1  0.65003494  0.60754876  0.93131613  1  0.556586  0  0.081908  0.298291  0  3.848221  0
C  C150  1  0.58158296  0.56865002  0.60743068  1  0.56511  0  0.081271  0.298269  0  3.845549  0
C  C151  1  0.75789744  0.93133930  0.89260992  1  0.574463  0  0.081603  0.300064  0  3.845836  0
C  C152  1  0.80947533  0.17653799  0.44747859  1  0.261741  0  -0.051704  -0.209212  0  3.854598  0
C  C153  1  0.43386604  0.32329418  0.05266619  1  0.291773  0  -0.051681  -0.209186  0  3.855332  0
C  C154  1  0.48670024  0.44730378  0.32341282  1  0.266985  0  -0.0522  -0.210793  0  3.854924  0
C  C155  1  0.25700624  0.05262288  0.17653540  1  0.293277  0  -0.052702  -0.211849  0  3.855954  0
C  C156  1  0.19052221  0.82346341  0.55252034  1  0.26198  0  -0.051713  -0.209296  0  3.854638  0
C  C157  1  0.56613169  0.67670534  0.94733468  1  0.291784  0  -0.051641  -0.209083  0  3.855196  0
C  C158  1  0.51330214  0.55269573  0.67658695  1  0.266977  0  -0.052191  -0.21091  0  3.854868  0
C  C159  1  0.74299172  0.94737711  0.82346500  1  0.2933  0  -0.052655  -0.211772  0  3.855877  0
C  C160  1  0.94805299  0.17773517  0.53815987  1  0.949324  0  0.163584  0.088596  0  3.865037  0
C  C161  1  0.66432258  0.32223757  0.96197607  1  0.961211  0  0.164538  0.090385  0  3.866319  0
C  C162  1  0.62657797  0.53794776  0.32228922  1  0.952789  0  0.164466  0.088863  0  3.867632  0
C  C163  1  0.48652151  0.96198316  0.17762346  1  0.979947  0  0.163275  0.088948  0  3.866719  0
C  C164  1  0.05194456  0.82226529  0.46183952  1  0.949346  0  0.163608  0.088583  0  3.865039  0
C  C165  1  0.33567646  0.67776241  0.03802443  1  0.961155  0  0.164539  0.090411  0  3.866472  0
C  C166  1  0.37342246  0.46205223  0.67770990  1  0.952777  0  0.164474  0.088823  0  3.867678  0
C  C167  1  0.51347675  0.03801589  0.82237593  1  0.979868  0  0.163325  0.089  0  3.866588  0
C  C168  1  0.18600669  0.17596473  0.48504977  1  0.90609  0  0.146319  0.145507  0  3.977307  0
C  C169  1  0.84741917  0.32406097  0.01505743  1  0.951715  0  0.146312  0.145521  0  3.974975  0
C  C170  1  0.86283759  0.48488750  0.32398585  1  0.952628  0  0.147246  0.148924  0  3.971647  0
C  C171  1  0.67127965  0.01511089  0.17590649  1  0.949848  0  0.148033  0.149184  0  3.974344  0
C  C172  1  0.81399482  0.82403619  0.51494898  1  0.906256  0  0.146302  0.14547  0  3.97744  0
C  C173  1  0.15257879  0.67593807  0.98494344  1  0.951182  0  0.146311  0.145573  0  3.974853  0
C  C174  1  0.13716548  0.51511248  0.67601299  1  0.95267  0  0.147239  0.148881  0  3.971719  0
C  C175  1  0.32871814  0.98488910  0.82409290  1  0.95024  0  0.148006  0.149264  0  3.974563  0
C  C176  1  0.66553745  0.10338546  0.40199710  1  0.037197  0  -0.032284  -0.130618  0  3.948275  0
C  C177  1  0.17094825  0.39636505  0.09818125  1  0.012689  0  -0.032272  -0.130308  0  3.946574  0
C  C178  1  0.26882678  0.40188483  0.39649436  1  0.002037  0  -0.032475  -0.131526  0  3.94586  0
C  C179  1  0.06698936  0.09818349  0.10347746  1  0.030774  0  -0.03314  -0.132177  0  3.949131  0
C  C180  1  0.33446523  0.89661406  0.59800119  1  0.037232  0  -0.032296  -0.130707  0  3.948469  0
C  C181  1  0.82905128  0.60363306  0.90181971  1  0.013032  0  -0.032172  -0.130255  0  3.946518  0
C  C182  1  0.73117531  0.59811563  0.60350641  1  0.002348  0  -0.032473  -0.13155  0  3.945907  0
C  C183  1  0.93300813  0.90181650  0.89652341  1  0.030772  0  -0.033166  -0.1322  0  3.948975  0
C  C184  1  0.62905807  0.13815466  0.34924166  1  0.402269  0  0.100822  0.279618  0  4.034735  0
C  C185  1  0.11620521  0.36155623  0.15087960  1  0.382323  0  0.100249  0.280494  0  4.029712  0
C  C186  1  0.26686434  0.34916804  0.36168651  1  0.388027  0  0.100086  0.280381  0  4.032635  0
C  C187  1  0.97761669  0.15090292  0.13830396  1  0.388255  0  0.098772  0.27855  0  4.035763  0
C  C188  1  0.37094236  0.86184533  0.65075746  1  0.402261  0  0.100839  0.27962  0  4.034794  0
C  C189  1  0.88379074  0.63844282  0.84912209  1  0.381791  0  0.100092  0.280363  0  4.029945  0
C  C190  1  0.73313968  0.65082912  0.63831279  1  0.387754  0  0.100059  0.280298  0  4.032783  0
C  C191  1  0.02238180  0.84909566  0.86169544  1  0.388293  0  0.098811  0.278657  0  4.035581  0
C  C192  1  0.50753662  0.12993323  0.31872915  1  0.115514  0  -0.109353  -0.334532  0  4.011036  0
C  C193  1  0.95589046  0.36986330  0.18137571  1  0.09903  0  -0.109843  -0.335504  0  4.008964  0
C  C194  1  0.13708338  0.31865916  0.37001240  1  0.084751  0  -0.109437  -0.335265  0  4.009138  0
C  C195  1  0.82562398  0.18145096  0.13004704  1  0.111029  0  -0.108894  -0.334198  0  4.01025  0
C  C196  1  0.49246241  0.87006770  0.68127089  1  0.115416  0  -0.109335  -0.334495  0  4.010999  0
C  C197  1  0.04410567  0.63013574  0.81862700  1  0.099139  0  -0.109784  -0.335392  0  4.009195  0
C  C198  1  0.86292056  0.68134035  0.62998699  1  0.084793  0  -0.109374  -0.335118  0  4.008987  0
C  C199  1  0.17437621  0.81854949  0.86995208  1  0.111095  0  -0.108863  -0.3342  0  4.010027  0
C  C200  1  0.42219734  0.08322544  0.34172905  1  0.38321  0  0.099373  0.317375  0  4.082253  0
C  C201  1  0.84706871  0.41665692  0.15838573  1  0.39313  0  0.099356  0.317395  0  4.081574  0
C  C202  1  0.00521728  0.34164552  0.41680246  1  0.411501  0  0.09861  0.316045  0  4.082925  0
C  C203  1  0.76337632  0.15849261  0.08328998  1  0.394964  0  0.09867  0.316284  0  4.082329  0
C  C204  1  0.57780393  0.91677595  0.65826970  1  0.383373  0  0.099359  0.317407  0  4.082282  0
C  C205  1  0.15292590  0.58334354  0.84161541  1  0.393137  0  0.099372  0.31748  0  4.081535  0
C  C206  1  0.99478570  0.65835306  0.58319482  1  0.411499  0  0.098622  0.316089  0  4.082915  0
C  C207  1  0.23662396  0.84150549  0.91670904  1  0.39494  0  0.098723  0.31626  0  4.08232  0
C  C208  1  0.45229686  0.04630252  0.39331411  1  -0.002501  0  -0.108194  -0.232745  0  4.007589  0
C  C209  1  0.89209554  0.45359648  0.10684893  1  -0.03296  0  -0.108364  -0.23255  0  4.009466  0
C  C210  1  0.99856548  0.39319568  0.45376271  1  0.013877  0  -0.108027  -0.231594  0  4.010089  0
C  C211  1  0.84524438  0.10697690  0.04627292  1  -0.023205  0  -0.107814  -0.231786  0  4.010526  0
C  C212  1  0.54770535  0.95369699  0.60668464  1  -0.002439  0  -0.108203  -0.232854  0  4.007803  0
C  C213  1  0.10790570  0.54640256  0.89315221  1  -0.032966  0  -0.108375  -0.232601  0  4.009382  0
C  C214  1  0.00143627  0.60680478  0.54623604  1  0.013807  0  -0.108087  -0.231754  0  4.010219  0
C  C215  1  0.15475674  0.89302262  0.95372573  1  -0.023201  0  -0.107904  -0.231823  0  4.010718  0
C  C216  1  0.57346030  0.05749408  0.42302451  1  -0.026207  0  -0.084619  -0.062917  0  3.999142  0
C  C217  1  0.05418971  0.44234561  0.07718020  1  0.042897  0  -0.084787  -0.064523  0  3.999425  0
C  C218  1  0.13098321  0.42287452  0.44248539  1  0.002165  0  -0.084531  -0.063313  0  3.99798  0
C  C219  1  0.99607409  0.07725706  0.05747578  1  -0.01272  0  -0.083713  -0.062595  0  4.000017  0
C  C220  1  0.42654276  0.94250684  0.57697387  1  -0.02643  0  -0.084606  -0.062851  0  3.999296  0
C  C221  1  0.94580843  0.55765344  0.92282168  1  0.042867  0  -0.084803  -0.064557  0  3.999491  0
C  C222  1  0.86901833  0.57712358  0.55751475  1  0.002198  0  -0.084587  -0.063301  0  3.997862  0
C  C223  1  0.00392813  0.92274246  0.94252297  1  -0.012443  0  -0.083694  -0.062665  0  4.000087  0
C  C224  1  0.48317938  0.85526246  0.38487442  1  1.582125  0  0.209218  0.66279  0  4.150929  0
C  C225  1  0.72295138  0.64483029  0.11508186  1  1.588637  0  0.209186  0.664679  0  4.151463  0
C  C226  1  0.83785692  0.38504093  0.64486312  1  1.578171  0  0.209377  0.663865  0  4.153384  0
C  C227  1  0.86779032  0.11503723  0.85523453  1  1.573245  0  0.207897  0.660447  0  4.155148  0
C  C228  1  0.51682190  0.14473799  0.61512479  1  1.582129  0  0.209252  0.662867  0  4.150832  0
C  C229  1  0.27704852  0.35517016  0.88491873  1  1.587613  0  0.209207  0.664665  0  4.151529  0
C  C230  1  0.16214344  0.61495952  0.35513702  1  1.57821  0  0.209362  0.663864  0  4.153311  0
C  C231  1  0.13220832  0.88496323  0.14476495  1  1.573233  0  0.207892  0.660488  0  4.155236  0
C  C232  1  0.50963217  0.81654870  0.32522176  1  -0.106713  0  -0.170669  -0.474858  0  3.88853  0
C  C233  1  0.65112790  0.68350380  0.17478347  1  -0.071187  0  -0.171255  -0.476743  0  3.888191  0
C  C234  1  0.82575266  0.32538794  0.68358546  1  -0.066481  0  -0.171255  -0.476989  0  3.887791  0
C  C235  1  0.83473716  0.17471155  0.81655153  1  -0.082433  0  -0.169763  -0.473643  0  3.886178  0
C  C236  1  0.49036796  0.18345129  0.67477883  1  -0.106689  0  -0.170662  -0.474857  0  3.888435  0
C  C237  1  0.34887083  0.31649806  0.82521758  1  -0.071136  0  -0.171185  -0.476634  0  3.888314  0
C  C238  1  0.17425161  0.67461252  0.31641551  1  -0.066207  0  -0.171226  -0.477065  0  3.887774  0
C  C239  1  0.16526195  0.82528891  0.18344750  1  -0.082423  0  -0.169761  -0.473679  0  3.886248  0
C  C240  1  0.63555709  0.83241785  0.27085508  1  1.570093  0  0.213037  0.665594  0  4.101985  0
C  C241  1  0.73873431  0.66759435  0.22909467  1  1.526031  0  0.214653  0.668267  0  4.096284  0
C  C242  1  0.96764004  0.27104084  0.66760894  1  1.549254  0  0.216906  0.671639  0  4.094963  0
C  C243  1  0.90644242  0.22902727  0.83245768  1  1.568875  0  0.213694  0.664853  0  4.098761  0
C  C244  1  0.36444178  0.16758214  0.72914441  1  1.570088  0  0.213023  0.66559  0  4.101891  0
C  C245  1  0.26126568  0.33240846  0.77090703  1  1.525935  0  0.214613  0.668295  0  4.096401  0
C  C246  1  0.03236031  0.72896055  0.33239073  1  1.549616  0  0.216863  0.671483  0  4.095186  0
C  C247  1  0.09355708  0.77097272  0.16754236  1  1.568896  0  0.213667  0.664739  0  4.098891  0
N  N248  1  0.91224241  0.92822272  0.34849106  1  -1.224201  0  -0.344077  -0.314467  0  3.520378  0
N  N249  1  0.18898542  0.57176556  0.15116560  1  -1.228157  0  -0.343829  -0.313385  0  3.520779  0
N  N250  1  0.34021043  0.34865341  0.57182384  1  -1.235394  0  -0.343087  -0.312225  0  3.518208  0
N  N251  1  0.26054604  0.15140733  0.92824907  1  -1.246505  0  -0.343778  -0.311601  0  3.520869  0
N  N252  1  0.08775669  0.07177867  0.65150750  1  -1.224319  0  -0.344094  -0.314479  0  3.520251  0
N  N253  1  0.81101323  0.42823395  0.84883435  1  -1.228125  0  -0.343843  -0.31334  0  3.520759  0
N  N254  1  0.65978992  0.65134798  0.42817583  1  -1.235511  0  -0.343127  -0.312243  0  3.518434  0
N  N255  1  0.73945541  0.84859313  0.07175116  1  -1.246177  0  -0.343794  -0.31166  0  3.520883  0
N  N256  1  0.96066090  0.02179980  0.35774168  1  -0.827665  0  -0.133532  0.184395  0  3.729515  0
N  N257  1  0.34024591  0.47818162  0.14215323  1  -0.82372  0  -0.133219  0.184507  0  3.727743  0
N  N258  1  0.48225555  0.35778572  0.47822605  1  -0.829128  0  -0.132505  0.186909  0  3.725632  0
N  N259  1  0.31823890  0.14225309  0.02181584  1  -0.820144  0  -0.132693  0.185044  0  3.72617  0
N  N260  1  0.03933928  0.97820254  0.64225651  1  -0.82779  0  -0.13349  0.184324  0  3.729692  0
N  N261  1  0.65975290  0.52181884  0.85784727  1  -0.823721  0  -0.133224  0.184465  0  3.72779  0
N  N262  1  0.51774575  0.64221380  0.52177362  1  -0.829268  0  -0.132488  0.186973  0  3.725587  0
N  N263  1  0.68176279  0.85774689  0.97818438  1  -0.820161  0  -0.132622  0.185187  0  3.726189  0
N  N264  1  0.93680106  0.01915466  0.29761143  1  -0.680478  0  -0.225726  -0.275466  0  3.102384  0
N  N265  1  0.25350462  0.48097761  0.20227486  1  -0.671851  0  -0.225877  -0.275068  0  3.100838  0
N  N266  1  0.45609486  0.29760803  0.48099168  1  -0.675961  0  -0.226294  -0.276411  0  3.099368  0
N  N267  1  0.23424782  0.20237715  0.01914432  1  -0.67818  0  -0.226956  -0.276564  0  3.098326  0
N  N268  1  0.06319446  0.98084767  0.70238787  1  -0.680394  0  -0.225709  -0.275359  0  3.102497  0
N  N269  1  0.74649467  0.51902191  0.79772563  1  -0.672173  0  -0.225885  -0.275039  0  3.100808  0
N  N270  1  0.54390706  0.70239242  0.51900809  1  -0.675934  0  -0.226299  -0.276405  0  3.099365  0
N  N271  1  0.76575208  0.79762331  0.98085627  1  -0.678158  0  -0.22697  -0.276637  0  3.098282  0
N  N272  1  0.94412866  0.18103353  0.47668481  1  -0.81767  0  -0.139599  0.185047  0  3.745911  0
N  N273  1  0.60223333  0.31892488  0.02345471  1  -0.827048  0  -0.139269  0.184711  0  3.750138  0
N  N274  1  0.62591985  0.47647556  0.31906015  1  -0.829395  0  -0.13798  0.18627  0  3.748364  0
N  N275  1  0.42104776  0.02345276  0.18088455  1  -0.830572  0  -0.137741  0.185478  0  3.745287  0
N  N276  1  0.05586974  0.81896833  0.52331421  1  -0.817425  0  -0.139522  0.18524  0  3.745761  0
N  N277  1  0.39776527  0.68107417  0.97654671  1  -0.827038  0  -0.139309  0.184655  0  3.750337  0
N  N278  1  0.37408191  0.52352301  0.68093952  1  -0.829415  0  -0.137863  0.186487  0  3.748273  0
N  N279  1  0.57894911  0.97654723  0.81911576  1  -0.830653  0  -0.137727  0.185554  0  3.745294  0
N  N280  1  0.09528574  0.18004154  0.44173425  1  -0.674609  0  -0.224727  -0.274993  0  3.115168  0
N  N281  1  0.71745095  0.31995116  0.05838527  1  -0.684572  0  -0.225117  -0.274789  0  3.113795  0
N  N282  1  0.77614973  0.44154711  0.31999425  1  -0.682233  0  -0.225921  -0.27668  0  3.110478  0
N  N283  1  0.53720953  0.05841498  0.17993940  1  -0.691607  0  -0.226462  -0.276857  0  3.111926  0
N  N284  1  0.90471266  0.81996032  0.55826477  1  -0.674992  0  -0.224747  -0.275028  0  3.115191  0
N  N285  1  0.28254639  0.68004789  0.94161505  1  -0.684517  0  -0.225106  -0.27479  0  3.113664  0
N  N286  1  0.22385357  0.55845240  0.68000459  1  -0.682204  0  -0.226046  -0.276813  0  3.110598  0
N  N287  1  0.46278912  0.94158453  0.82006055  1  -0.691452  0  -0.226478  -0.276958  0  3.111957  0
N  N288  1  0.10011481  0.17458982  0.54512864  1  -1.21407  0  -0.345437  -0.322631  0  3.515766  0
N  N289  1  0.82019657  0.32541847  0.95499521  1  -1.204577  0  -0.345907  -0.323565  0  3.518142  0
N  N290  1  0.77549934  0.54495042  0.32535875  1  -1.214913  0  -0.346916  -0.325646  0  3.521361  0
N  N291  1  0.64553404  0.95502821  0.17453372  1  -1.228062  0  -0.346857  -0.325612  0  3.51974  0
N  N292  1  0.89988275  0.82540969  0.45487122  1  -1.214164  0  -0.345476  -0.32266  0  3.515838  0
N  N293  1  0.17980046  0.67458152  0.04500612  1  -1.204247  0  -0.345893  -0.32361  0  3.518078  0
N  N294  1  0.22450303  0.45505004  0.67464055  1  -1.214822  0  -0.346887  -0.325555  0  3.521411  0
N  N295  1  0.35446444  0.04497130  0.82546521  1  -1.228441  0  -0.346883  -0.325653  0  3.519874  0
O  O296  1  0.81619435  0.06873474  0.48530103  1  -1.166374  0  -0.401708  -0.555414  0  2.268857  0
O  O297  1  0.37022375  0.43105251  0.01484343  1  -1.164678  0  -0.402153  -0.556246  0  2.26825  0
O  O298  1  0.38480031  0.48519088  0.43117482  1  -1.173191  0  -0.401313  -0.555431  0  2.268321  0
O  O299  1  0.30084368  0.01483613  0.06874330  1  -1.165943  0  -0.40129  -0.55578  0  2.268839  0
O  O300  1  0.18380716  0.93126618  0.51469772  1  -1.166985  0  -0.40168  -0.555402  0  2.26889  0
O  O301  1  0.62977019  0.56894748  0.98515863  1  -1.164749  0  -0.402099  -0.556174  0  2.268291  0
O  O302  1  0.61519865  0.51480770  0.56882411  1  -1.17321  0  -0.401338  -0.555515  0  2.268317  0
O  O303  1  0.69915714  0.98516432  0.93125637  1  -1.165882  0  -0.401316  -0.555847  0  2.268828  0
O  O304  1  0.76420297  0.84834314  0.27986131  1  -1.189324  0  -0.315005  -0.565637  0  2.348115  0
O  O305  1  0.89232755  0.65166045  0.22000760  1  -1.165055  0  -0.316009  -0.567413  0  2.344338  0
O  O306  1  0.11216147  0.28007291  0.65157327  1  -1.182911  0  -0.317621  -0.56939  0  2.345969  0
O  O307  1  0.04401034  0.21996696  0.84844382  1  -1.191862  0  -0.315832  -0.565396  0  2.345495  0
O  O308  1  0.23579590  0.15165684  0.72013818  1  -1.189351  0  -0.314966  -0.565604  0  2.348088  0
O  O309  1  0.10767483  0.34834377  0.77999336  1  -1.165081  0  -0.315952  -0.567395  0  2.344411  0
O  O310  1  0.88784440  0.71992802  0.34842586  1  -1.183642  0  -0.317579  -0.569262  0  2.346132  0
O  O311  1  0.95598979  0.78003397  0.15155631  1  -1.1919  0  -0.315827  -0.565349  0  2.345522  0
O  O312  1  0.60347113  0.85822507  0.41029663  1  -1.189636  0  -0.339488  -0.584674  0  2.308688  0
O  O313  1  0.87158742  0.64187041  0.08959426  1  -1.198114  0  -0.338379  -0.584932  0  2.311736  0
O  O314  1  0.96108604  0.41048816  0.64185051  1  -1.187966  0  -0.339503  -0.585152  0  2.313072  0
O  O315  1  0.01346215  0.08954435  0.85820236  1  -1.191617  0  -0.338437  -0.583354  0  2.313086  0
O  O316  1  0.39652899  0.14177680  0.58970304  1  -1.18961  0  -0.33953  -0.584748  0  2.308674  0
O  O317  1  0.12840893  0.35812910  0.91040799  1  -1.197754  0  -0.338462  -0.584999  0  2.311683  0
O  O318  1  0.03891455  0.58951276  0.35814916  1  -1.187973  0  -0.339483  -0.585134  0  2.313057  0
O  O319  1  0.98653626  0.91045657  0.14179713  1  -1.191638  0  -0.338415  -0.583353  0  2.313119  0
O  O320  1  0.33940582  0.88116905  0.40786432  1  -1.201714  0  -0.325008  -0.56959  0  2.190546  0
O  O321  1  0.62792668  0.61896741  0.09212400  1  -1.204406  0  -0.32553  -0.570847  0  2.190004  0
O  O322  1  0.71993645  0.40795692  0.61897379  1  -1.202175  0  -0.32504  -0.569751  0  2.18902  0
O  O323  1  0.74688354  0.09211792  0.88112788  1  -1.195334  0  -0.324375  -0.568095  0  2.18889  0
O  O324  1  0.66059214  0.11883094  0.59213609  1  -1.201716  0  -0.324988  -0.569607  0  2.190552  0
O  O325  1  0.37207144  0.38103352  0.90787696  1  -1.20379  0  -0.325528  -0.570854  0  2.190078  0
O  O326  1  0.28006431  0.59204307  0.38102735  1  -1.202197  0  -0.325093  -0.569782  0  2.188942  0
O  O327  1  0.25311704  0.90788301  0.11887179  1  -1.195449  0  -0.32441  -0.568133  0  2.18889  0
O  O328  1  0.60808075  0.82944841  0.21567284  1  -1.165891  0  -0.313464  -0.54073  0  2.251129  0
O  O329  1  0.65325592  0.67054824  0.28431578  1  -1.171544  0  -0.314112  -0.541989  0  2.251398  0
O  O330  1  0.93726581  0.21584035  0.67065268  1  -1.165202  0  -0.314821  -0.543572  0  2.252278  0
O  O331  1  0.82394718  0.28423947  0.82943327  1  -1.170279  0  -0.313702  -0.541  0  2.25347  0
O  O332  1  0.39191565  0.17055158  0.78432794  1  -1.165848  0  -0.313482  -0.540752  0  2.251049  0
O  O333  1  0.34674725  0.32945316  0.71568463  1  -1.171471  0  -0.314129  -0.542016  0  2.251332  0
O  O334  1  0.06273960  0.78416057  0.32934690  1  -1.164903  0  -0.31479  -0.543437  0  2.252152  0
O  O335  1  0.17605186  0.71576145  0.17056677  1  -1.170302  0  -0.31367  -0.540897  0  2.253482  0
F  F336  1  0.71956500  0.18158026  0.32376194  1  -0.639086  0  -0.098431  -0.145349  0  1.339759  0
F  F337  1  0.22444312  0.31798084  0.17630737  1  -0.641208  0  -0.097939  -0.145139  0  1.336573  0
F  F338  1  0.40056323  0.32374868  0.31809546  1  -0.638362  0  -0.098102  -0.145167  0  1.337429  0
F  F339  1  0.04239051  0.17629477  0.18186500  1  -0.638263  0  -0.097041  -0.143971  0  1.337615  0
F  F340  1  0.28043830  0.81841926  0.67623690  1  -0.639046  0  -0.098408  -0.145326  0  1.339822  0
F  F341  1  0.77555260  0.68201868  0.82369432  1  -0.641184  0  -0.097893  -0.145093  0  1.336624  0
F  F342  1  0.59944113  0.67624848  0.68190587  1  -0.638368  0  -0.098083  -0.14515  0  1.337456  0
F  F343  1  0.95760350  0.82370380  0.81813651  1  -0.638321  0  -0.097051  -0.143994  0  1.337662  0
F  F344  1  0.30472891  0.07308030  0.31154449  1  -0.646579  0  -0.090795  -0.143495  0  1.382913  0
F  F345  1  0.68916780  0.42688020  0.18849538  1  -0.641154  0  -0.090384  -0.143181  0  1.383133  0
F  F346  1  0.87752813  0.31149172  0.42700151  1  -0.643581  0  -0.089964  -0.142416  0  1.383001  0
F  F347  1  0.61568373  0.18864084  0.07316097  1  -0.644304  0  -0.090314  -0.142914  0  1.383755  0
F  F348  1  0.69527191  0.92692015  0.68845518  1  -0.646586  0  -0.090823  -0.143533  0  1.382932  0
F  F349  1  0.31082792  0.57311931  0.81150631  1  -0.641113  0  -0.090371  -0.143185  0  1.383003  0
F  F350  1  0.12247500  0.68850874  0.57299586  1  -0.643614  0  -0.089965  -0.142449  0  1.382948  0
F  F351  1  0.38431632  0.81135774  0.92683806  1  -0.644309  0  -0.090315  -0.142895  0  1.383773  0
