# generated using pymatgen
data_CsH8C6NO2
_symmetry_space_group_name_H-M   'P 1'
_cell_length_a   7.50246465
_cell_length_b   7.91786275
_cell_length_c   13.77951663
_cell_angle_alpha   89.99994090
_cell_angle_beta   100.10477022
_cell_angle_gamma   90.00094538
_symmetry_Int_Tables_number   1
_chemical_formula_structural   CsH8C6NO2
_chemical_formula_sum   'Cs4 H32 C24 N4 O8'
_cell_volume   805.85441891
_cell_formula_units_Z   4
loop_
 _symmetry_equiv_pos_site_id
 _symmetry_equiv_pos_as_xyz
  1  'x, y, z'
loop_
 _atom_site_type_symbol
 _atom_site_label
 _atom_site_symmetry_multiplicity
 _atom_site_fract_x
 _atom_site_fract_y
 _atom_site_fract_z
 _atom_site_occupancy
 _atom_site_hle17_bader_spin_density
 _atom_site_hle17_ddec_charge
 _atom_site_hle17_ddec_spin_density
 _atom_site_hle17_ddec_sum_bond_order
 _atom_site_hle17_magmom
 _atom_site_hse06_10hf_bader_spin_density
 _atom_site_hse06_10hf_ddec_charge
 _atom_site_hse06_10hf_ddec_spin_density
 _atom_site_hse06_10hf_ddec_sum_bond_order
 _atom_site_hse06_10hf_magmom
 _atom_site_hse06_bader_spin_density
 _atom_site_hse06_ddec_charge
 _atom_site_hse06_ddec_spin_density
 _atom_site_hse06_ddec_sum_bond_order
 _atom_site_hse06_magmom
 _atom_site_pbe_bader_spin_density
 _atom_site_pbe_cm5_charge
 _atom_site_pbe_ddec_charge
 _atom_site_pbe_ddec_spin_density
 _atom_site_pbe_ddec_sum_bond_order
 _atom_site_pbe_magmom
Cs  Cs0  1  0.78008910  0.58729911  0.57846494  1  0  0.965776  0  0.598264  0  0  0.909296  0  0.841195  0  0  0.926122  0  0.816691  0  0  0.863109  0.896909  0  0.858559  0
Cs  Cs1  1  0.71990962  0.08730021  0.42153461  1  0  0.965773  0  0.598273  0  0  0.909286  0  0.841213  0  0  0.926112  0  0.816707  0  0  0.863114  0.896922  0  0.858541  0
Cs  Cs2  1  0.21990085  0.41270108  0.42153176  1  0  0.965768  0  0.59828  0  0  0.909301  0  0.841189  0  0  0.926127  0  0.816686  0  0  0.86313  0.896935  0  0.858525  0
Cs  Cs3  1  0.28008983  0.91269871  0.57846589  1  0  0.965758  0  0.598282  0  0  0.909279  0  0.841211  0  0  0.926106  0  0.816707  0  0  0.863089  0.896906  0  0.858544  0
H  H4  1  0.57039579  0.71226916  0.78468180  1  0  0.09868  0  1.002051  0  0  0.103361  0  1.075164  0  0  0.106181  0  1.076398  0  0  0.096522  0.101364  0  1.074493  0
H  H5  1  0.92962134  0.21226882  0.21530634  1  0  0.098617  0  1.002045  0  0  0.103265  0  1.075212  0  0  0.106088  0  1.076452  0  0  0.096465  0.101267  0  1.074544  0
H  H6  1  0.42960361  0.28772850  0.21531216  1  0  0.098627  0  1.002158  0  0  0.103339  0  1.07524  0  0  0.10616  0  1.076476  0  0  0.096502  0.101343  0  1.07457  0
H  H7  1  0.07038084  0.78773011  0.78469804  1  0  0.098591  0  1.002058  0  0  0.103232  0  1.075233  0  0  0.106054  0  1.076477  0  0  0.096445  0.101238  0  1.074556  0
H  H8  1  0.49150691  0.70653958  0.95247286  1  0  0.075726  0  0.96877  0  0  0.087772  0  1.032355  0  0  0.089605  0  1.03127  0  0  0.096532  0.086445  0  1.033035  0
H  H9  1  0.00852196  0.20652924  0.04751833  1  0  0.075605  0  0.968946  0  0  0.087598  0  1.032572  0  0  0.089431  0  1.03149  0  0  0.096525  0.086278  0  1.033255  0
H  H10  1  0.50849520  0.29346187  0.04752208  1  0  0.075686  0  0.968807  0  0  0.08775  0  1.032374  0  0  0.089583  0  1.031288  0  0  0.096544  0.08642  0  1.033052  0
H  H11  1  0.99148428  0.79347474  0.95248716  1  0  0.075791  0  0.968762  0  0  0.087808  0  1.03235  0  0  0.089643  0  1.031266  0  0  0.096628  0.08649  0  1.033036  0
H  H12  1  0.22781121  0.53047612  0.98356486  1  0  0.093899  0  0.972983  0  0  0.105743  0  1.03389  0  0  0.108793  0  1.033843  0  0  0.09393  0.103578  0  1.034088  0
H  H13  1  0.27221456  0.03046107  0.01643557  1  0  0.093898  0  0.973302  0  0  0.105745  0  1.034156  0  0  0.108787  0  1.034122  0  0  0.093952  0.103582  0  1.034354  0
H  H14  1  0.77219093  0.46953038  0.01643298  1  0  0.093918  0  0.97309  0  0  0.105749  0  1.033993  0  0  0.108795  0  1.033953  0  0  0.093926  0.103585  0  1.034194  0
H  H15  1  0.72779303  0.96954796  0.98356932  1  0  0.093852  0  0.973396  0  0  0.105706  0  1.034245  0  0  0.108751  0  1.034209  0  0  0.093908  0.103544  0  1.034443  0
H  H16  1  0.89551647  0.34806733  0.78246922  1  0  0.112514  0  0.953815  0  0  0.132356  0  1.017254  0  0  0.134576  0  1.016246  0  0  0.096865  0.130712  0  1.018069  0
H  H17  1  0.60450047  0.84806793  0.21753043  1  0  0.112464  0  0.953897  0  0  0.132303  0  1.017362  0  0  0.134513  0  1.016367  0  0  0.09688  0.130657  0  1.018183  0
H  H18  1  0.10448297  0.65192780  0.21752982  1  0  0.11252  0  0.95377  0  0  0.132351  0  1.01724  0  0  0.134567  0  1.016238  0  0  0.096874  0.130704  0  1.018056  0
H  H19  1  0.39550574  0.15192973  0.78246997  1  0  0.112474  0  0.953847  0  0  0.132313  0  1.017304  0  0  0.134534  0  1.016298  0  0  0.096851  0.130662  0  1.018124  0
H  H20  1  0.95427832  0.37581885  0.91241097  1  0  0.101169  0  0.966033  0  0  0.123456  0  1.028913  0  0  0.12502  0  1.028017  0  0  0.088477  0.122312  0  1.029558  0
H  H21  1  0.54573100  0.87582129  0.08758941  1  0  0.10115  0  0.966053  0  0  0.123461  0  1.028933  0  0  0.125028  0  1.028037  0  0  0.088483  0.122315  0  1.029577  0
H  H22  1  0.04571706  0.62417629  0.08758842  1  0  0.101172  0  0.966124  0  0  0.123507  0  1.028958  0  0  0.125072  0  1.028062  0  0  0.088501  0.122359  0  1.029607  0
H  H23  1  0.45426845  0.12418016  0.91241181  1  0  0.101164  0  0.966179  0  0  0.123483  0  1.029039  0  0  0.12505  0  1.028144  0  0  0.088496  0.122333  0  1.029688  0
H  H24  1  0.04664126  0.20643537  0.85263479  1  0  0.121252  0  0.945702  0  0  0.145535  0  1.001718  0  0  0.146214  0  1.003541  0  0  0.09663  0.14503  0  1.000496  0
H  H25  1  0.45337415  0.70643264  0.14736674  1  0  0.12122  0  0.945743  0  0  0.145576  0  1.001649  0  0  0.146258  0  1.003467  0  0  0.096641  0.14507  0  1.000425  0
H  H26  1  0.95336088  0.79356355  0.14736450  1  0  0.121218  0  0.945738  0  0  0.145532  0  1.001717  0  0  0.146212  0  1.003539  0  0  0.096625  0.145027  0  1.00049  0
H  H27  1  0.54662531  0.29357007  0.85263448  1  0  0.121203  0  0.945785  0  0  0.145552  0  1.001704  0  0  0.146233  0  1.003524  0  0  0.096625  0.145042  0  1.000486  0
H  H28  1  0.02553199  0.83805429  0.38797333  1  0  0.400608  0  0.918551  0  0  0.372887  0  0.979038  0  0  0.383046  0  0.9642  0  0  0.271315  0.365764  0  0.989428  0
H  H29  1  0.47446409  0.33804890  0.61202124  1  0  0.400597  0  0.91857  0  0  0.372916  0  0.978977  0  0  0.383069  0  0.964147  0  0  0.271318  0.365789  0  0.989371  0
H  H30  1  0.97446067  0.16194463  0.61202435  1  0  0.400589  0  0.918562  0  0  0.372876  0  0.979034  0  0  0.383035  0  0.964196  0  0  0.27133  0.365753  0  0.989423  0
H  H31  1  0.52553263  0.66194371  0.38797609  1  0  0.400597  0  0.918563  0  0  0.37288  0  0.97904  0  0  0.383038  0  0.964204  0  0  0.271318  0.365758  0  0.98943  0
H  H32  1  0.90217913  0.67373519  0.35466536  1  0  0.37579  0  0.956856  0  0  0.334749  0  1.039007  0  0  0.346663  0  1.021818  0  0  0.265729  0.326402  0  1.051021  0
H  H33  1  0.59781168  0.17373275  0.64533485  1  0  0.375738  0  0.956937  0  0  0.334692  0  1.039091  0  0  0.346606  0  1.021903  0  0  0.265705  0.32635  0  1.051099  0
H  H34  1  0.09781489  0.32626121  0.64533318  1  0  0.375739  0  0.956906  0  0  0.334701  0  1.039054  0  0  0.346615  0  1.021865  0  0  0.265719  0.326356  0  1.051065  0
H  H35  1  0.40218777  0.82626365  0.35466637  1  0  0.375725  0  0.956942  0  0  0.334676  0  1.039102  0  0  0.346591  0  1.021911  0  0  0.265694  0.326328  0  1.051118  0
C  C36  1  0.35152167  0.54254496  0.72176017  1  0  0.504856  0  3.982142  0  0  0.476534  0  4.254416  0  0  0.500561  0  4.260339  0  0  0.164847  0.460523  0  4.249779  0
C  C37  1  0.14848669  0.04254395  0.27823427  1  0  0.504653  0  3.982344  0  0  0.476349  0  4.254589  0  0  0.500379  0  4.260514  0  0  0.164744  0.460327  0  4.249965  0
C  C38  1  0.64847099  0.45745144  0.27823679  1  0  0.50481  0  3.982233  0  0  0.476431  0  4.254582  0  0  0.500456  0  4.260508  0  0  0.164795  0.460412  0  4.249959  0
C  C39  1  0.85151683  0.95745624  0.72176879  1  0  0.504669  0  3.982149  0  0  0.476248  0  4.254576  0  0  0.500275  0  4.260501  0  0  0.164722  0.460229  0  4.249949  0
C  C40  1  0.45509518  0.63888355  0.79948660  1  0  -0.3046  0  3.771609  0  0  -0.319314  0  4.028644  0  0  -0.332342  0  4.048769  0  0  -0.130983  -0.310953  0  4.015103  0
C  C41  1  0.04491894  0.13887856  0.20050252  1  0  -0.304421  0  3.771466  0  0  -0.319116  0  4.028448  0  0  -0.332151  0  4.04858  0  0  -0.13089  -0.310757  0  4.014913  0
C  C42  1  0.54489881  0.36111663  0.20050613  1  0  -0.304565  0  3.771765  0  0  -0.319293  0  4.028803  0  0  -0.332325  0  4.048931  0  0  -0.13091  -0.310938  0  4.015267  0
C  C43  1  0.95508055  0.86112416  0.79950379  1  0  -0.30436  0  3.771831  0  0  -0.319014  0  4.028871  0  0  -0.332048  0  4.049007  0  0  -0.130798  -0.310655  0  4.015334  0
C  C44  1  0.41069377  0.63521547  0.89278047  1  0  0.015399  0  3.826629  0  0  -0.000554  0  4.074203  0  0  0.007205  0  4.092259  0  0  -0.08332  -0.005155  0  4.06152  0
C  C45  1  0.08932844  0.13520249  0.10721594  1  0  0.015543  0  3.826891  0  0  -0.000357  0  4.074453  0  0  0.0074  0  4.09251  0  0  -0.083309  -0.004962  0  4.061774  0
C  C46  1  0.58930429  0.36478850  0.10721481  1  0  0.015415  0  3.826658  0  0  -0.000559  0  4.074261  0  0  0.0072  0  4.092315  0  0  -0.083394  -0.005151  0  4.061568  0
C  C47  1  0.91068049  0.86480276  0.89278690  1  0  0.01524  0  3.827217  0  0  -0.000688  0  4.074782  0  0  0.007065  0  4.092844  0  0  -0.083499  -0.005306  0  4.062118  0
C  C48  1  0.26361589  0.53802143  0.91040442  1  0  -0.246845  0  3.769738  0  0  -0.262987  0  4.018893  0  0  -0.275784  0  4.042186  0  0  -0.1226  -0.254734  0  4.003122  0
C  C49  1  0.23640590  0.03801579  0.08958765  1  0  -0.246904  0  3.770141  0  0  -0.263036  0  4.019267  0  0  -0.275831  0  4.042557  0  0  -0.122667  -0.254785  0  4.003498  0
C  C50  1  0.73638215  0.46197876  0.08958724  1  0  -0.246764  0  3.769706  0  0  -0.262929  0  4.018836  0  0  -0.275725  0  4.042128  0  0  -0.122588  -0.25468  0  4.003065  0
C  C51  1  0.76360306  0.96199450  0.91041954  1  0  -0.246734  0  3.769931  0  0  -0.262882  0  4.019065  0  0  -0.275677  0  4.042358  0  0  -0.122608  -0.254638  0  4.003303  0
C  C52  1  0.16397705  0.44895502  0.83183739  1  0  0.316266  0  3.795435  0  0  0.323611  0  4.040193  0  0  0.335241  0  4.060041  0  0  0.108721  0.31609  0  4.02636  0
C  C53  1  0.33604002  0.94895045  0.16816634  1  0  0.316204  0  3.795654  0  0  0.323524  0  4.040472  0  0  0.335159  0  4.060314  0  0  0.108674  0.316007  0  4.026632  0
C  C54  1  0.83602240  0.55104643  0.16816310  1  0  0.316022  0  3.795786  0  0  0.323478  0  4.040406  0  0  0.335109  0  4.060252  0  0  0.108708  0.315963  0  4.026563  0
C  C55  1  0.66396756  0.05105606  0.83183637  1  0  0.316008  0  3.795846  0  0  0.323374  0  4.040642  0  0  0.335002  0  4.060492  0  0  0.108722  0.315864  0  4.026791  0
C  C56  1  0.00648081  0.34027421  0.84578533  1  0  -0.361606  0  3.702262  0  0  -0.443524  0  3.935304  0  0  -0.447034  0  3.943086  0  0  -0.236222  -0.44087  0  3.929787  0
C  C57  1  0.49353565  0.84027336  0.15421623  1  0  -0.361507  0  3.702535  0  0  -0.443487  0  3.935557  0  0  -0.446992  0  3.943341  0  0  -0.236256  -0.440834  0  3.930047  0
C  C58  1  0.99351862  0.65972219  0.15421299  1  0  -0.361522  0  3.70238  0  0  -0.443538  0  3.935396  0  0  -0.447048  0  3.943182  0  0  -0.236243  -0.440885  0  3.929882  0
C  C59  1  0.50646652  0.15972936  0.84578670  1  0  -0.361465  0  3.702625  0  0  -0.443453  0  3.935615  0  0  -0.446971  0  3.943399  0  0  -0.236243  -0.440792  0  3.930105  0
N  N60  1  0.20539719  0.45225177  0.74033120  1  0  -0.5217  0  3.083743  0  0  -0.456866  0  3.320494  0  0  -0.477843  0  3.33184  0  0  -0.353122  -0.442762  0  3.312606  0
N  N61  1  0.29461179  0.95225271  0.25966742  1  0  -0.521646  0  3.084046  0  0  -0.456798  0  3.320793  0  0  -0.477778  0  3.332139  0  0  -0.353001  -0.44269  0  3.312906  0
N  N62  1  0.79459817  0.54774463  0.25966601  1  0  -0.521645  0  3.083965  0  0  -0.456818  0  3.320679  0  0  -0.477789  0  3.332019  0  0  -0.353085  -0.44271  0  3.312791  0
N  N63  1  0.70539176  0.04775127  0.74033854  1  0  -0.521606  0  3.084151  0  0  -0.456752  0  3.320946  0  0  -0.477718  0  3.332283  0  0  -0.353053  -0.442649  0  3.313058  0
O  O64  1  0.39163907  0.53845333  0.63381501  1  0  -0.782569  0  2.020977  0  0  -0.719718  0  2.252602  0  0  -0.744327  0  2.245796  0  0  -0.525336  -0.702257  0  2.256657  0
O  O65  1  0.10836516  0.03846292  0.36617905  1  0  -0.782426  0  2.020953  0  0  -0.719563  0  2.25257  0  0  -0.744174  0  2.245765  0  0  -0.525259  -0.702098  0  2.256625  0
O  O66  1  0.60835223  0.46153549  0.36618037  1  0  -0.782503  0  2.021071  0  0  -0.719615  0  2.252721  0  0  -0.744225  0  2.245915  0  0  -0.525345  -0.702152  0  2.256775  0
O  O67  1  0.89163566  0.96153601  0.63382448  1  0  -0.782399  0  2.021008  0  0  -0.719488  0  2.252668  0  0  -0.7441  0  2.245866  0  0  -0.525245  -0.702024  0  2.256716  0
O  O68  1  0.96972616  0.73730205  0.41384336  1  0  -0.964601  0  1.861628  0  0  -0.912352  0  2.054045  0  0  -0.931906  0  2.022751  0  0  -0.791103  -0.898422  0  2.075815  0
O  O69  1  0.53026983  0.23729742  0.58615439  1  0  -0.964503  0  1.861666  0  0  -0.912276  0  2.054113  0  0  -0.931828  0  2.022825  0  0  -0.791074  -0.898346  0  2.075882  0
O  O70  1  0.03026650  0.26269687  0.58615505  1  0  -0.964532  0  1.861626  0  0  -0.912301  0  2.054067  0  0  -0.931855  0  2.022773  0  0  -0.7911  -0.898371  0  2.075834  0
O  O71  1  0.46973096  0.76269772  0.41384478  1  0  -0.964533  0  1.861657  0  0  -0.912305  0  2.054144  0  0  -0.931858  0  2.022848  0  0  -0.791077  -0.898371  0  2.075917  0
