# generated using pymatgen
data_CuH4(C2O)4
_symmetry_space_group_name_H-M   'P 1'
_cell_length_a   5.18321335
_cell_length_b   11.70307620
_cell_length_c   13.13428094
_cell_angle_alpha   111.14035543
_cell_angle_beta   89.99978130
_cell_angle_gamma   89.99987827
_symmetry_Int_Tables_number   1
_chemical_formula_structural   CuH4(C2O)4
_chemical_formula_sum   'Cu4 H16 C32 O16'
_cell_volume   743.10002797
_cell_formula_units_Z   4
loop_
 _symmetry_equiv_pos_site_id
 _symmetry_equiv_pos_as_xyz
  1  'x, y, z'
loop_
 _atom_site_type_symbol
 _atom_site_label
 _atom_site_symmetry_multiplicity
 _atom_site_fract_x
 _atom_site_fract_y
 _atom_site_fract_z
 _atom_site_occupancy
 _atom_site_hle17_ddec_charge
 _atom_site_hle17_ddec_spin_density
 _atom_site_hle17_ddec_sum_bond_order
 _atom_site_hle17_magmom
 _atom_site_hse06_10hf_ddec_charge
 _atom_site_hse06_10hf_ddec_spin_density
 _atom_site_hse06_10hf_ddec_sum_bond_order
 _atom_site_hse06_10hf_magmom
 _atom_site_hse06_ddec_charge
 _atom_site_hse06_ddec_spin_density
 _atom_site_hse06_ddec_sum_bond_order
 _atom_site_hse06_magmom
 _atom_site_pbe_cm5_charge
 _atom_site_pbe_ddec_charge
 _atom_site_pbe_ddec_spin_density
 _atom_site_pbe_ddec_sum_bond_order
 _atom_site_pbe_magmom
Cu  Cu0  1  0.20757578  0.55933816  0.53700803  1  0.912112  -0.669779  1.803712  -0.48  0.909711  -0.784405  2.203059  -0.621  1.007163  -0.875641  2.125635  -0.721  0.691915  0.84379  -0.683183  2.263167  -0.529
Cu  Cu1  1  0.70757393  0.94066268  0.46299036  1  0.911915  0.669771  1.803698  0.48  0.909467  0.784393  2.203028  0.621  1.008326  0.875665  2.125118  0.721  0.691852  0.843688  0.683169  2.262998  0.529
Cu  Cu2  1  0.79243176  0.44066045  0.46298948  1  0.912022  0.66979  1.803608  0.48  0.909587  0.784412  2.202935  0.621  1.027399  0.875658  2.090806  0.721  0.691878  0.843755  0.683173  2.262946  0.529
Cu  Cu3  1  0.29242010  0.05934054  0.53701319  1  0.91215  -0.669799  1.80359  -0.48  0.90974  -0.784422  2.202903  -0.621  1.010182  -0.875686  2.123519  -0.721  0.691899  0.843715  -0.683161  2.263222  -0.529
H  H4  1  0.19345015  0.93571161  0.99210632  1  0.085372  0.000128  0.952769  0.0  0.099497  8.7e-05  1.008312  0.0  0.101655  5.7e-05  1.008429  0.0  0.100459  0.098001  0.000104  1.008375  0.0
H  H5  1  0.69342366  0.56429658  0.00789519  1  0.085376  -0.000127  0.952655  0.0  0.099423  -8.7e-05  1.008303  0.0  0.101581  -5.7e-05  1.008423  0.0  0.100456  0.09793  -0.000104  1.008346  0.0
H  H6  1  0.80658054  0.06429160  0.00789570  1  0.085364  -0.000123  0.952633  0.0  0.09944  -8.7e-05  1.008238  0.0  0.101601  -5.7e-05  1.00835  0.0  0.100449  0.09795  -0.000105  1.008296  0.0
H  H7  1  0.30655108  0.43571027  0.99210495  1  0.085403  0.000124  0.952757  0.0  0.099506  8.7e-05  1.008324  0.0  0.101666  5.7e-05  1.00844  0.0  0.100456  0.098006  0.000105  1.008386  0.0
H  H8  1  0.20879692  0.00499653  0.83295536  1  0.100054  -0.000272  0.955155  0.0  0.109116  -0.000233  1.018624  0.0  0.112049  -0.000149  1.016834  0.0  0.104441  0.10702  -0.000288  1.019968  0.0
H  H9  1  0.70876875  0.49501378  0.16705117  1  0.100052  0.00027  0.955107  0.0  0.109074  0.000233  1.018622  0.0  0.112033  0.000149  1.016766  0.0  0.104365  0.106974  0.000288  1.019969  0.0
H  H10  1  0.79123762  0.99501036  0.16705088  1  0.100067  0.000271  0.955012  0.0  0.109106  0.000233  1.018518  0.0  0.112027  0.000149  1.016747  0.0  0.104381  0.107012  0.000288  1.019861  0.0
H  H11  1  0.29121564  0.50499768  0.83295348  1  0.099994  -0.000272  0.95509  0.0  0.109074  -0.000233  1.018549  0.0  0.112004  -0.000149  1.016756  0.0  0.104384  0.106978  -0.000289  1.01989  0.0
H  H12  1  0.71450490  0.64080075  0.82341109  1  0.099293  -9.2e-05  0.93522  0.0  0.113113  -9.6e-05  0.989554  0.0  0.115277  -5.8e-05  0.989524  0.0  0.107134  0.111609  -0.000123  0.989755  0.0
H  H13  1  0.21450687  0.85919642  0.17658765  1  0.09933  9e-05  0.935184  0.0  0.113152  9.6e-05  0.989506  0.0  0.115307  5.8e-05  0.989511  0.0  0.107165  0.111649  0.000123  0.989712  0.0
H  H14  1  0.28549299  0.35919422  0.17658831  1  0.099271  9.5e-05  0.935217  0.0  0.113101  9.6e-05  0.989541  0.0  0.115268  5.8e-05  0.989483  0.0  0.107162  0.111604  0.000123  0.989736  0.0
H  H15  1  0.78549102  0.14080495  0.82341227  1  0.099309  -9.4e-05  0.935194  0.0  0.113115  -9.6e-05  0.98953  0.0  0.115278  -5.8e-05  0.989515  0.0  0.107147  0.111616  -0.000123  0.989736  0.0
H  H16  1  0.44738962  0.75261507  0.98666298  1  0.081291  -1.1e-05  0.971829  0.0  0.091126  -1e-05  1.037748  0.0  0.093068  -6e-06  1.037627  0.0  0.099029  0.089787  -1.2e-05  1.037802  0.0
H  H17  1  0.94738727  0.74738535  0.01333873  1  0.08141  1.5e-05  0.972011  0.0  0.091252  1.1e-05  1.037901  0.0  0.093203  6e-06  1.037758  0.0  0.099103  0.089912  1.2e-05  1.037963  0.0
H  H18  1  0.55261792  0.24738265  0.01333882  1  0.081251  1.3e-05  0.971716  0.0  0.091076  1.1e-05  1.037654  0.0  0.093017  6e-06  1.037539  0.0  0.099013  0.089742  1.3e-05  1.037704  0.0
H  H19  1  0.05260869  0.25261785  0.98666254  1  0.081273  -1.4e-05  0.971709  0.0  0.091108  -1.1e-05  1.037636  0.0  0.093054  -6e-06  1.037505  0.0  0.099043  0.089769  -1.3e-05  1.037694  0.0
C  C20  1  0.61377600  0.76119563  0.73842197  1  -0.024339  -0.004683  3.683442  -0.005  -0.016964  -0.002427  3.917098  -0.003  -0.021137  -0.00162  3.935016  -0.002  0.003804  -0.013803  -0.002692  3.905359  -0.003
C  C21  1  0.11376422  0.73880905  0.26158083  1  -0.024382  0.004667  3.683437  0.005  -0.017013  0.002428  3.917059  0.003  -0.021207  0.001624  3.935044  0.002  0.003762  -0.013858  0.002693  3.905325  0.003
C  C22  1  0.38622961  0.23880757  0.26157929  1  -0.024526  0.004698  3.683499  0.005  -0.017106  0.00243  3.917175  0.003  -0.021393  0.001624  3.935409  0.002  0.003776  -0.013942  0.002698  3.905447  0.003
C  C23  1  0.88622209  0.26119874  0.73842341  1  -0.024519  -0.004702  3.683311  -0.005  -0.017081  -0.002431  3.916987  -0.003  -0.021269  -0.001623  3.934922  -0.002  0.003814  -0.013927  -0.002698  3.90526  -0.003
C  C24  1  0.47131971  0.86401644  0.74116875  1  -0.057459  -0.001498  3.710731  -0.002  -0.045604  -0.000879  3.941811  -0.001  -0.054069  -0.000543  3.9619  -0.001  -0.007007  -0.039877  -0.001038  3.928646  -0.001
C  C25  1  0.97132517  0.63597753  0.25883010  1  -0.05757  0.001502  3.710743  0.002  -0.045725  0.000878  3.941821  0.001  -0.054151  0.00054  3.961834  0.001  -0.00701  -0.039997  0.001037  3.928655  0.001
C  C26  1  0.52867239  0.13597211  0.25882784  1  -0.057493  0.00148  3.710871  0.002  -0.045648  0.000876  3.941922  0.001  -0.054159  0.000539  3.962096  0.001  -0.006978  -0.039924  0.001032  3.928765  0.001
C  C27  1  0.02868623  0.36402109  0.74116818  1  -0.057327  -0.001475  3.71065  -0.002  -0.04551  -0.000874  3.941714  -0.001  -0.053933  -0.000542  3.961689  -0.001  -0.006933  -0.039776  -0.001031  3.928548  -0.001
C  C28  1  0.31015428  0.88621312  0.92076983  1  -0.077323  0.00021  3.790107  0.0  -0.093624  0.000192  4.045886  0.0  -0.097498  0.000153  4.068726  0.0  -0.091943  -0.091456  0.00023  4.030643  0.0
C  C29  1  0.81015001  0.61378664  0.07923263  1  -0.077247  -0.000189  3.790037  0.0  -0.093468  -0.000192  4.045807  0.0  -0.09735  -0.000153  4.068668  0.0  -0.091902  -0.091299  -0.000229  4.030559  0.0
C  C30  1  0.68985132  0.11378094  0.07923232  1  -0.077162  -0.00023  3.789904  0.0  -0.093408  -0.000192  4.045644  0.0  -0.097277  -0.000154  4.068451  0.0  -0.091854  -0.091246  -0.000231  4.030408  0.0
C  C31  1  0.18984981  0.38621656  0.92076787  1  -0.07731  0.000245  3.78993  0.0  -0.093587  0.000195  4.045704  0.0  -0.097456  0.000152  4.068533  0.0  -0.09187  -0.091417  0.000233  4.030453  0.0
C  C32  1  0.31917219  0.92580362  0.83290601  1  -0.054378  -0.000347  3.718107  0.0  -0.079847  0.00015  3.968876  0.001  -0.077616  0.000194  3.986848  0.0  -0.079074  -0.081081  3.6e-05  3.95681  0.0
C  C33  1  0.81916918  0.57419794  0.16709473  1  -0.05428  0.000341  3.718179  0.0  -0.07971  -0.000149  3.968913  -0.001  -0.0775  -0.000192  3.986804  0.0  -0.078996  -0.080945  -3.6e-05  3.956843  0.0
C  C34  1  0.68082956  0.07419500  0.16709379  1  -0.05437  0.000365  3.718164  0.0  -0.07982  -0.000148  3.968911  -0.001  -0.077596  -0.000191  3.986868  0.0  -0.079027  -0.081053  -3.5e-05  3.956849  0.0
C  C35  1  0.18083256  0.42580343  0.83290443  1  -0.054275  -0.000371  3.718043  0.0  -0.079759  0.000148  3.968807  0.001  -0.077522  0.000195  3.986735  0.0  -0.079026  -0.080991  3.4e-05  3.956723  0.0
C  C36  1  0.60457095  0.72173884  0.82713540  1  -0.081408  -0.001284  3.718703  -0.001  -0.104808  -0.000504  3.970177  -0.001  -0.107218  -0.00023  3.990527  0.0  -0.083642  -0.103642  -0.000663  3.956759  -0.001
C  C37  1  0.10455984  0.77826130  0.17286978  1  -0.081464  0.001322  3.718695  0.001  -0.104861  0.000504  3.970187  0.001  -0.107296  0.000227  3.990637  0.0  -0.0837  -0.103692  0.000663  3.956772  0.001
C  C38  1  0.39544044  0.27825706  0.17286811  1  -0.081322  0.001282  3.718743  0.001  -0.104741  0.000505  3.970236  0.001  -0.107152  0.000227  3.99055  0.0  -0.083656  -0.103569  0.000661  3.956807  0.001
C  C39  1  0.89543033  0.22174284  0.82713635  1  -0.081442  -0.001264  3.71885  -0.001  -0.104815  -0.000502  3.970297  -0.001  -0.107219  -0.000228  3.990686  0.0  -0.083673  -0.10365  -0.000659  3.956887  -0.001
C  C40  1  0.45349998  0.78397937  0.91796625  1  -0.061997  -9.3e-05  3.7741  0.0  -0.077766  -7.6e-05  4.028682  0.0  -0.077929  -2.4e-05  4.049922  0.0  -0.087175  -0.077315  -0.000158  4.014246  0.0
C  C41  1  0.95348748  0.71602103  0.08203240  1  -0.062157  5.5e-05  3.774185  0.0  -0.077951  7.6e-05  4.028782  0.0  -0.078116  2.5e-05  4.050036  0.0  -0.08725  -0.077508  0.000158  4.014357  0.0
C  C42  1  0.54651141  0.21601742  0.08203297  1  -0.062049  9.5e-05  3.773739  0.0  -0.077808  7.6e-05  4.028318  0.0  -0.077968  2.6e-05  4.049519  0.0  -0.087213  -0.07736  0.000159  4.013889  0.0
C  C43  1  0.04649884  0.28398033  0.91796523  1  -0.062025  -0.000108  3.773813  0.0  -0.077809  -7.7e-05  4.028401  0.0  -0.077966  -2.4e-05  4.04963  0.0  -0.087289  -0.077358  -0.000159  4.013971  0.0
C  C44  1  0.76400972  0.68103558  0.64125313  1  0.680531  0.003855  3.835915  0.005  0.641907  0.0017  4.132698  0.003  0.686402  0.001684  4.120655  0.003  0.229753  0.611541  0.001619  4.140336  0.003
C  C45  1  0.26400819  0.81896242  0.35874732  1  0.680605  -0.003871  3.835979  -0.005  0.642059  -0.0017  4.132629  -0.003  0.686677  -0.001685  4.119443  -0.003  0.229755  0.611699  -0.00162  4.140271  -0.003
C  C46  1  0.23598817  0.31895846  0.35874445  1  0.680906  -0.00387  3.835619  -0.005  0.642149  -0.001701  4.132578  -0.003  0.686514  -0.001686  4.121658  -0.003  0.229823  0.611778  -0.001623  4.140252  -0.003
C  C47  1  0.73597426  0.18104263  0.64125758  1  0.680823  0.003871  3.83556  0.005  0.641962  0.001699  4.132678  0.003  0.686745  0.001683  4.119452  0.003  0.229701  0.611601  0.001621  4.140326  0.003
C  C48  1  0.47591758  0.90933002  0.64839429  1  0.641889  0.000846  3.858156  0.001  0.60343  0.000213  4.155764  0.001  0.645066  0.000302  4.149288  0.001  0.217686  0.575277  0.000122  4.159502  0.001
C  C49  1  0.97590693  0.59066576  0.35160285  1  0.641761  -0.000843  3.858244  -0.001  0.603332  -0.000214  4.155803  -0.001  0.644706  -0.0003  4.150816  -0.001  0.217618  0.575176  -0.000123  4.159548  -0.001
C  C50  1  0.52408031  0.09066768  0.35160445  1  0.641738  -0.000827  3.858413  -0.001  0.603333  -0.000214  4.155931  -0.001  0.644958  -0.000301  4.149455  -0.001  0.217593  0.57519  -0.000121  4.159668  -0.001
C  C51  1  0.02408132  0.40932643  0.64839034  1  0.641673  0.00084  3.858338  0.001  0.603275  0.000213  4.15581  0.001  0.644674  0.000302  4.150729  0.001  0.217595  0.575122  0.000119  4.159556  0.001
O  O52  1  0.29666181  0.98363743  0.64821004  1  -0.552426  -0.086606  2.100616  -0.114  -0.528703  -0.057686  2.37541  -0.084  -0.573117  -0.045772  2.36962  -0.07  -0.305072  -0.499913  -0.06076  2.379875  -0.085
O  O53  1  0.79664765  0.51636601  0.35179362  1  -0.552222  0.0866  2.100634  0.114  -0.528548  0.057686  2.375455  0.084  -0.575585  0.045773  2.367976  0.07  -0.30499  -0.499795  0.060757  2.379896  0.085
O  O54  1  0.70335537  0.01636762  0.35179486  1  -0.552258  0.086609  2.100534  0.114  -0.52859  0.057692  2.375352  0.084  -0.572318  0.045776  2.369346  0.07  -0.305001  -0.499839  0.060758  2.379786  0.085
O  O55  1  0.20334638  0.48363535  0.64820477  1  -0.552376  -0.086612  2.10058  -0.114  -0.528684  -0.057689  2.375365  -0.084  -0.572891  -0.045775  2.37039  -0.07  -0.305032  -0.499911  -0.060759  2.379806  -0.085
O  O56  1  0.65995828  0.87261980  0.57952274  1  -0.552097  0.072041  2.062084  0.094  -0.527107  0.048418  2.33173  0.07  -0.569096  0.038929  2.322011  0.059  -0.302685  -0.498886  0.050905  2.338411  0.071
O  O57  1  0.15996093  0.62737287  0.42047161  1  -0.552153  -0.072052  2.062074  -0.095  -0.52715  -0.048423  2.331686  -0.07  -0.569695  -0.038934  2.323099  -0.059  -0.302708  -0.498899  -0.050912  2.338356  -0.071
O  O58  1  0.34003575  0.12737424  0.42047408  1  -0.552114  -0.072059  2.062208  -0.095  -0.527117  -0.048419  2.331804  -0.07  -0.569863  -0.038931  2.322407  -0.059  -0.30267  -0.498851  -0.05091  2.338503  -0.071
O  O59  1  0.84004082  0.37261841  0.57952205  1  -0.552035  0.072044  2.062126  0.094  -0.527009  0.048419  2.33168  0.07  -0.572508  0.03893  2.320262  0.059  -0.30265  -0.498788  0.050907  2.338382  0.071
O  O60  1  0.63418347  0.59600550  0.57028049  1  -0.607055  0.060675  2.176791  0.079  -0.584091  0.042197  2.476151  0.059  -0.634819  0.03463  2.462082  0.051  -0.310808  -0.550705  0.044207  2.484649  0.06
O  O61  1  0.13419049  0.90399550  0.42972567  1  -0.607126  -0.060677  2.176781  -0.079  -0.584217  -0.042196  2.476162  -0.059  -0.632115  -0.034628  2.463285  -0.051  -0.310864  -0.550823  -0.044208  2.484693  -0.06
O  O62  1  0.36580670  0.40399405  0.42972189  1  -0.607205  -0.060668  2.176655  -0.078  -0.584227  -0.042192  2.476116  -0.059  -0.635171  -0.034633  2.46367  -0.051  -0.310869  -0.550836  -0.044195  2.484638  -0.06
O  O63  1  0.86581319  0.09600774  0.57028474  1  -0.607164  0.060675  2.176491  0.079  -0.584122  0.042199  2.475913  0.059  -0.632148  0.034631  2.463414  0.051  -0.310816  -0.550722  0.044202  2.484426  0.06
O  O64  1  0.00618828  0.69347442  0.64295041  1  -0.531999  -0.091591  2.083308  -0.121  -0.509319  -0.059574  2.352057  -0.087  -0.553176  -0.047408  2.345303  -0.073  -0.286809  -0.480311  -0.06172  2.357385  -0.087
O  O65  1  0.50618232  0.80652398  0.35703837  1  -0.531956  0.091597  2.08336  0.121  -0.509274  0.059573  2.35203  0.087  -0.552761  0.047409  2.344521  0.073  -0.286725  -0.480292  0.061719  2.357356  0.087
O  O66  1  0.99381732  0.30651866  0.35703773  1  -0.532129  0.091602  2.083261  0.121  -0.509357  0.059575  2.352011  0.087  -0.556195  0.047407  2.343032  0.073  -0.28678  -0.480368  0.061719  2.357363  0.087
O  O67  1  0.49380978  0.19347918  0.64295298  1  -0.532099  -0.091578  2.083468  -0.121  -0.509285  -0.059561  2.352279  -0.087  -0.553442  -0.047398  2.34493  -0.073  -0.286716  -0.480262  -0.06171  2.357644  -0.087
