# generated using pymatgen
data_H12PbC18(NO)4
_symmetry_space_group_name_H-M   'P 1'
_cell_length_a   7.11780102
_cell_length_b   8.62373115
_cell_length_c   13.83601303
_cell_angle_alpha   100.42715361
_cell_angle_beta   99.72363942
_cell_angle_gamma   100.81779441
_symmetry_Int_Tables_number   1
_chemical_formula_structural   H12PbC18(NO)4
_chemical_formula_sum   'H24 Pb2 C36 N8 O8'
_cell_volume   802.11903820
_cell_formula_units_Z   2
loop_
 _symmetry_equiv_pos_site_id
 _symmetry_equiv_pos_as_xyz
  1  'x, y, z'
loop_
 _atom_site_type_symbol
 _atom_site_label
 _atom_site_symmetry_multiplicity
 _atom_site_fract_x
 _atom_site_fract_y
 _atom_site_fract_z
 _atom_site_occupancy
 _atom_site_hle17_bader_spin_density
 _atom_site_hle17_ddec_charge
 _atom_site_hle17_ddec_spin_density
 _atom_site_hle17_ddec_sum_bond_order
 _atom_site_hle17_magmom
 _atom_site_hse06_10hf_bader_spin_density
 _atom_site_hse06_10hf_ddec_charge
 _atom_site_hse06_10hf_ddec_spin_density
 _atom_site_hse06_10hf_ddec_sum_bond_order
 _atom_site_hse06_10hf_magmom
 _atom_site_hse06_bader_spin_density
 _atom_site_hse06_ddec_charge
 _atom_site_hse06_ddec_spin_density
 _atom_site_hse06_ddec_sum_bond_order
 _atom_site_hse06_magmom
 _atom_site_pbe_bader_spin_density
 _atom_site_pbe_cm5_charge
 _atom_site_pbe_ddec_charge
 _atom_site_pbe_ddec_spin_density
 _atom_site_pbe_ddec_sum_bond_order
 _atom_site_pbe_magmom
H  H0  1  0.98697725  0.78603404  0.16351133  1  0  0.095203  0  0.938542  0  0  0.104901  0  0.999723  0  0  0.107046  0  0.998042  0  0  0.123991  0.103264  0  1.000996  0
H  H1  1  0.01304688  0.21399609  0.83650345  1  0  0.095146  0  0.938491  0  0  0.104921  0  0.999648  0  0  0.107069  0  0.997959  0  0  0.124002  0.103266  0  1.000931  0
H  H2  1  0.89119084  0.92816440  0.31734577  1  0  0.119344  0  0.940212  0  0  0.125101  0  1.005849  0  0  0.129189  0  1.003349  0  0  0.112113  0.122136  0  1.007819  0
H  H3  1  0.10875080  0.07175823  0.68267542  1  0  0.119283  0  0.940106  0  0  0.125162  0  1.005591  0  0  0.12925  0  1.003093  0  0  0.112175  0.122201  0  1.007551  0
H  H4  1  0.09841698  0.93792780  0.48786923  1  0  0.099136  0  0.963555  0  0  0.108021  0  1.029117  0  0  0.111301  0  1.025828  0  0  0.108191  0.105623  0  1.031501  0
H  H5  1  0.90151025  0.06194887  0.51215204  1  0  0.099138  0  0.963774  0  0  0.107904  0  1.029505  0  0  0.111146  0  1.026269  0  0  0.108215  0.105578  0  1.031788  0
H  H6  1  0.86337731  0.57769671  0.50427851  1  0  0.102567  0  0.946505  0  0  0.111053  0  1.012272  0  0  0.114583  0  1.008858  0  0  0.109382  0.108509  0  1.014696  0
H  H7  1  0.13660619  0.42224793  0.49571796  1  0  0.102627  0  0.94632  0  0  0.111133  0  1.012024  0  0  0.114632  0  1.008648  0  0  0.109401  0.108587  0  1.014449  0
H  H8  1  0.92519621  0.43487315  0.33736549  1  0  0.121212  0  0.932659  0  0  0.12894  0  0.994403  0  0  0.133097  0  0.991917  0  0  0.111907  0.125922  0  0.99637  0
H  H9  1  0.07479036  0.56509458  0.66262659  1  0  0.121092  0  0.932835  0  0  0.128909  0  0.994484  0  0  0.133068  0  0.991996  0  0  0.111922  0.12589  0  0.996447  0
H  H10  1  0.69318670  0.43099186  0.18000797  1  0  0.089215  0  0.956821  0  0  0.097561  0  1.022613  0  0  0.099744  0  1.02051  0  0  0.122601  0.095945  0  1.02408  0
H  H11  1  0.30684921  0.56904647  0.81998280  1  0  0.089337  0  0.956785  0  0  0.09755  0  1.022673  0  0  0.099731  0  1.020577  0  0  0.122575  0.095915  0  1.024185  0
H  H12  1  0.46568803  0.96424215  0.76070495  1  0  0.10097  0  0.960642  0  0  0.105698  0  1.027247  0  0  0.109495  0  1.024133  0  0  0.117528  0.102768  0  1.02978  0
H  H13  1  0.53431507  0.03570683  0.23930467  1  0  0.100982  0  0.960955  0  0  0.105679  0  1.027592  0  0  0.1095  0  1.024461  0  0  0.117464  0.102747  0  1.030128  0
H  H14  1  0.73103133  0.80140236  0.76702181  1  0  0.097379  0  0.944642  0  0  0.104145  0  1.007782  0  0  0.107096  0  1.006058  0  0  0.11848  0.101921  0  1.009182  0
H  H15  1  0.26902341  0.19859643  0.23297719  1  0  0.097141  0  0.94467  0  0  0.104072  0  1.007649  0  0  0.107029  0  1.005911  0  0  0.118426  0.10184  0  1.009064  0
H  H16  1  0.10946158  0.92650384  0.82598890  1  0  0.093462  0  0.936379  0  0  0.109339  0  0.997905  0  0  0.111527  0  0.99692  0  0  0.095089  0.107827  0  0.998647  0
H  H17  1  0.89057448  0.07353449  0.17399610  1  0  0.093391  0  0.936286  0  0  0.109439  0  0.997728  0  0  0.111626  0  0.996743  0  0  0.095125  0.10793  0  0.998465  0
H  H18  1  0.30907531  0.84568331  0.86794947  1  0  0.100096  0  0.948423  0  0  0.114614  0  1.01446  0  0  0.116597  0  1.013848  0  0  0.099817  0.113221  0  1.014971  0
H  H19  1  0.69094464  0.15434571  0.13204817  1  0  0.100025  0  0.948173  0  0  0.114628  0  1.014237  0  0  0.116609  0  1.013625  0  0  0.099779  0.113233  0  1.014752  0
H  H20  1  0.13802398  0.07853196  0.00551870  1  0  0.101413  0  0.968479  0  0  0.119409  0  1.026617  0  0  0.120874  0  1.026543  0  0  0.098481  0.118365  0  1.026695  0
H  H21  1  0.86198572  0.92148758  0.99448344  1  0  0.101411  0  0.968492  0  0  0.119348  0  1.026616  0  0  0.120817  0  1.026547  0  0  0.098473  0.118305  0  1.026699  0
H  H22  1  0.33584448  0.99587118  0.04612567  1  0  0.110476  0  0.938326  0  0  0.125422  0  0.999597  0  0  0.12765  0  0.99865  0  0  0.100877  0.123824  0  1.00035  0
H  H23  1  0.66419811  0.00417428  0.95385928  1  0  0.110397  0  0.938597  0  0  0.125364  0  0.999716  0  0  0.127586  0  0.998783  0  0  0.100934  0.12377  0  1.000467  0
Pb  Pb24  1  0.28877892  0.55028340  0.08387670  1  0  1.232516  0  1.48823  0  0  1.033956  0  1.88514  0  0  1.095912  0  1.844064  0  0  0.613415  0.988519  0  1.915188  0
Pb  Pb25  1  0.71118896  0.44977998  0.91611842  1  0  1.232469  0  1.488101  0  0  1.033959  0  1.884997  0  0  1.095914  0  1.843919  0  0  0.613443  0.988498  0  1.915094  0
C  C26  1  0.06808388  0.79214785  0.23897923  1  0  0.139187  0  3.679743  0  0  0.106866  0  3.933723  0  0  0.11427  0  3.951882  0  0  0.065127  0.102108  0  3.921265  0
C  C27  1  0.93192171  0.20785962  0.76103564  1  0  0.139236  0  3.679653  0  0  0.10681  0  3.933708  0  0  0.114213  0  3.951871  0  0  0.065017  0.102075  0  3.921252  0
C  C28  1  0.01710830  0.87285100  0.32484556  1  0  -0.112142  0  3.721667  0  0  -0.126081  0  3.980588  0  0  -0.132777  0  4.001653  0  0  -0.078828  -0.121825  0  3.966518  0
C  C29  1  0.98285199  0.12709429  0.67517194  1  0  -0.112229  0  3.721429  0  0  -0.126211  0  3.980443  0  0  -0.132905  0  4.001497  0  0  -0.07897  -0.121956  0  3.966384  0
C  C30  1  0.12890676  0.87803721  0.41795080  1  0  -0.031405  0  3.695038  0  0  -0.059495  0  3.947662  0  0  -0.056756  0  3.965503  0  0  -0.063513  -0.060995  0  3.935482  0
C  C31  1  0.87104520  0.12188147  0.58206587  1  0  -0.031269  0  3.695192  0  0  -0.059434  0  3.947929  0  0  -0.056656  0  3.965813  0  0  -0.063443  -0.060987  0  3.935704  0
C  C32  1  0.28850078  0.80347097  0.42470591  1  0  -0.042385  0  3.754975  0  0  -0.031837  0  3.990681  0  0  -0.036261  0  4.014861  0  0  -0.00137  -0.029077  0  3.974517  0
C  C33  1  0.71147925  0.19647743  0.57530437  1  0  -0.042139  0  3.754901  0  0  -0.03138  0  3.990298  0  0  -0.035861  0  4.014545  0  0  -0.001166  -0.028582  0  3.974098  0
C  C34  1  0.32812437  0.72286644  0.33440533  1  0  0.155546  0  3.732121  0  0  0.143097  0  3.978183  0  0  0.14901  0  3.998198  0  0  0.131938  0.139169  0  3.964541  0
C  C35  1  0.67188653  0.27712990  0.66560086  1  0  0.155235  0  3.732763  0  0  0.142894  0  3.978643  0  0  0.148826  0  3.998675  0  0  0.131844  0.138955  0  3.964986  0
C  C36  1  0.49208803  0.64350212  0.33813182  1  0  0.157567  0  3.731048  0  0  0.145553  0  3.976411  0  0  0.151777  0  3.996078  0  0  0.133733  0.1414  0  3.963025  0
C  C37  1  0.50793354  0.35650490  0.66186787  1  0  0.157653  0  3.731049  0  0  0.145443  0  3.976703  0  0  0.151663  0  3.996379  0  0  0.133695  0.141292  0  3.963311  0
C  C38  1  0.61231114  0.64882424  0.43175212  1  0  -0.033119  0  3.746809  0  0  -0.024192  0  3.983186  0  0  -0.028657  0  4.006953  0  0  0.00358  -0.02143  0  3.967322  0
C  C39  1  0.38769862  0.35115871  0.56824670  1  0  -0.033119  0  3.746649  0  0  -0.024166  0  3.983013  0  0  -0.028622  0  4.006777  0  0  0.003649  -0.021405  0  3.96715  0
C  C40  1  0.77033514  0.57204496  0.43204691  1  0  -0.034865  0  3.694956  0  0  -0.062384  0  3.948765  0  0  -0.059665  0  3.966756  0  0  -0.063136  -0.063872  0  3.936421  0
C  C41  1  0.22965943  0.42792133  0.56795009  1  0  -0.035027  0  3.694728  0  0  -0.062447  0  3.948452  0  0  -0.059703  0  3.96645  0  0  -0.063155  -0.063932  0  3.936106  0
C  C42  1  0.80342826  0.49410337  0.34199622  1  0  -0.110483  0  3.715026  0  0  -0.123976  0  3.971618  0  0  -0.130976  0  3.99338  0  0  -0.078864  -0.119511  0  3.957053  0
C  C43  1  0.19656811  0.50587751  0.65799750  1  0  -0.11033  0  3.715344  0  0  -0.123963  0  3.971906  0  0  -0.130965  0  3.993665  0  0  -0.078921  -0.119493  0  3.957337  0
C  C44  1  0.67562091  0.49316093  0.25271342  1  0  0.14191  0  3.686213  0  0  0.107828  0  3.941824  0  0  0.115631  0  3.95998  0  0  0.063392  0.102811  0  3.929373  0
C  C45  1  0.32440395  0.50686063  0.74728024  1  0  0.14158  0  3.686425  0  0  0.107701  0  3.942039  0  0  0.115502  0  3.960201  0  0  0.063353  0.102681  0  3.929579  0
C  C46  1  0.41229737  0.80928656  0.52086484  1  0  0.119355  0  3.790206  0  0  0.115052  0  4.038066  0  0  0.117182  0  4.060164  0  0  0.116232  0.113505  0  4.023242  0
C  C47  1  0.58769317  0.19066765  0.47914129  1  0  0.119366  0  3.790367  0  0  0.115019  0  4.03818  0  0  0.117176  0  4.060287  0  0  0.116095  0.113455  0  4.023355  0
C  C48  1  0.57018655  0.73078916  0.52434853  1  0  0.11789  0  3.794298  0  0  0.116245  0  4.040354  0  0  0.118508  0  4.062428  0  0  0.115961  0.11464  0  4.025545  0
C  C49  1  0.42982074  0.26918166  0.47565377  1  0  0.117743  0  3.794417  0  0  0.116102  0  4.040447  0  0  0.118347  0  4.062538  0  0  0.11587  0.114497  0  4.025639  0
C  C50  1  0.49128079  0.89291411  0.69222547  1  0  0.07594  0  3.677172  0  0  0.051761  0  3.939826  0  0  0.053853  0  3.95614  0  0  0.053921  0.050388  0  3.928908  0
C  C51  1  0.50872363  0.10704338  0.30778088  1  0  0.076087  0  3.67736  0  0  0.051846  0  3.94008  0  0  0.053917  0  3.956382  0  0  0.054105  0.050473  0  3.929162  0
C  C52  1  0.64239647  0.80743085  0.69574647  1  0  0.085595  0  3.683802  0  0  0.061002  0  3.947694  0  0  0.063498  0  3.964346  0  0  0.058022  0.059318  0  3.936486  0
C  C53  1  0.35763446  0.19255152  0.30425571  1  0  0.085797  0  3.683703  0  0  0.061121  0  3.947543  0  0  0.063613  0  3.964203  0  0  0.058037  0.059438  0  3.936336  0
C  C54  1  0.05019404  0.74447666  0.91013166  1  0  0.682906  0  3.882035  0  0  0.638309  0  4.180531  0  0  0.671664  0  4.174759  0  0  0.20209  0.615681  0  4.183311  0
C  C55  1  0.94980494  0.25557123  0.08985526  1  0  0.683424  0  3.880916  0  0  0.638796  0  4.179527  0  0  0.672181  0  4.173705  0  0  0.202496  0.616143  0  4.18234  0
C  C56  1  0.18511498  0.89054808  0.89142626  1  0  -0.236296  0  3.690788  0  0  -0.279002  0  3.945846  0  0  -0.283428  0  3.952785  0  0  -0.172331  -0.276  0  3.940997  0
C  C57  1  0.81490359  0.10948951  0.10856280  1  0  -0.236204  0  3.690145  0  0  -0.279388  0  3.945851  0  0  -0.283809  0  3.952755  0  0  -0.172398  -0.276377  0  3.94102  0
C  C58  1  0.26024042  0.03306861  0.98111561  1  0  -0.247549  0  3.680899  0  0  -0.287723  0  3.930521  0  0  -0.292392  0  3.938141  0  0  -0.173844  -0.284459  0  3.925196  0
C  C59  1  0.73977539  0.96697394  0.01887447  1  0  -0.247542  0  3.681389  0  0  -0.28753  0  3.931055  0  0  -0.292184  0  3.938623  0  0  -0.17389  -0.284296  0  3.925776  0
C  C60  1  0.39511149  0.17823376  0.96208490  1  0  0.694514  0  3.863799  0  0  0.64951  0  4.160323  0  0  0.68274  0  4.155405  0  0  0.204355  0.626943  0  4.162483  0
C  C61  1  0.60486444  0.82183184  0.03790254  1  0  0.694402  0  3.864038  0  0  0.649385  0  4.160497  0  0  0.682617  0  4.155575  0  0  0.204364  0.626828  0  4.16266  0
N  N62  1  0.21808209  0.71956173  0.24393701  1  0  -0.326317  0  3.190997  0  0  -0.256508  0  3.440419  0  0  -0.275707  0  3.461254  0  0  -0.281051  -0.243273  0  3.425931  0
N  N63  1  0.78194248  0.28046473  0.75607162  1  0  -0.326349  0  3.191549  0  0  -0.256528  0  3.440907  0  0  -0.27572  0  3.461734  0  0  -0.281008  -0.24329  0  3.426402  0
N  N64  1  0.52532759  0.56497382  0.25107737  1  0  -0.325712  0  3.195991  0  0  -0.253816  0  3.442781  0  0  -0.273427  0  3.463623  0  0  -0.281489  -0.240339  0  3.42833  0
N  N65  1  0.47470490  0.43505851  0.74891747  1  0  -0.325319  0  3.195805  0  0  -0.253497  0  3.442701  0  0  -0.273109  0  3.46355  0  0  -0.281412  -0.240014  0  3.428239  0
N  N66  1  0.68299862  0.72850235  0.61283090  1  0  -0.289274  0  3.049579  0  0  -0.263203  0  3.319243  0  0  -0.270718  0  3.333789  0  0  -0.299073  -0.257883  0  3.309315  0
N  N67  1  0.31702924  0.27148377  0.38716924  1  0  -0.289154  0  3.049429  0  0  -0.263106  0  3.319125  0  0  -0.270611  0  3.333672  0  0  -0.298996  -0.257785  0  3.309194  0
N  N68  1  0.37575705  0.89252722  0.60578289  1  0  -0.2987  0  3.047628  0  0  -0.269726  0  3.316633  0  0  -0.277824  0  3.331933  0  0  -0.301528  -0.263938  0  3.306128  0
N  N69  1  0.62422782  0.10741372  0.39422631  1  0  -0.298897  0  3.047824  0  0  -0.269887  0  3.316793  0  0  -0.277989  0  3.332101  0  0  -0.301566  -0.264101  0  3.306303  0
O  O70  1  0.05837332  0.72424100  0.00018313  1  0  -0.717828  0  1.983454  0  0  -0.643621  0  2.220181  0  0  -0.675211  0  2.214431  0  0  -0.324151  -0.621163  0  2.223351  0
O  O71  1  0.94160031  0.27581734  0.99980546  1  0  -0.718021  0  1.983235  0  0  -0.643813  0  2.220066  0  0  -0.675418  0  2.214301  0  0  -0.324353  -0.62134  0  2.223236  0
O  O72  1  0.93591526  0.64735389  0.83342232  1  0  -0.649516  0  1.92431  0  0  -0.595098  0  2.160224  0  0  -0.62218  0  2.152625  0  0  -0.318392  -0.575827  0  2.164635  0
O  O73  1  0.06409040  0.35269259  0.16656579  1  0  -0.649776  0  1.923849  0  0  -0.595283  0  2.159757  0  0  -0.622379  0  2.152142  0  0  -0.318556  -0.576006  0  2.164184  0
O  O74  1  0.46184655  0.30131108  0.03597005  1  0  -0.73198  0  1.983902  0  0  -0.660221  0  2.226198  0  0  -0.692295  0  2.220491  0  0  -0.328375  -0.637311  0  2.229288  0
O  O75  1  0.53812718  0.69875213  0.96401837  1  0  -0.732152  0  1.983799  0  0  -0.660414  0  2.226125  0  0  -0.692488  0  2.220411  0  0  -0.328502  -0.63748  0  2.229159  0
O  O76  1  0.43641925  0.17326180  0.87584798  1  0  -0.645743  0  1.924082  0  0  -0.586495  0  2.154671  0  0  -0.613958  0  2.147807  0  0  -0.314272  -0.566918  0  2.158536  0
O  O77  1  0.56352137  0.82681817  0.12413197  1  0  -0.645516  0  1.9244  0  0  -0.586146  0  2.154816  0  0  -0.613623  0  2.147971  0  0  -0.314134  -0.566538  0  2.158598  0
