# generated using pymatgen
data_ZnH14C18NO5
_symmetry_space_group_name_H-M   'P 1'
_cell_length_a   19.15831082
_cell_length_b   19.16159476
_cell_length_c   29.19286080
_cell_angle_alpha   109.15202952
_cell_angle_beta   109.14854199
_cell_angle_gamma   90.00369466
_symmetry_Int_Tables_number   1
_chemical_formula_structural   ZnH14C18NO5
_chemical_formula_sum   'Zn8 H112 C144 N8 O40'
_cell_volume   9493.64371114
_cell_formula_units_Z   8
loop_
 _symmetry_equiv_pos_site_id
 _symmetry_equiv_pos_as_xyz
  1  'x, y, z'
loop_
 _atom_site_type_symbol
 _atom_site_label
 _atom_site_symmetry_multiplicity
 _atom_site_fract_x
 _atom_site_fract_y
 _atom_site_fract_z
 _atom_site_occupancy
 _atom_site_pbe_bader_charge
 _atom_site_pbe_bader_spin_density
 _atom_site_pbe_cm5_charge
 _atom_site_pbe_ddec_charge
 _atom_site_pbe_ddec_spin_density
 _atom_site_pbe_ddec_sum_bond_order
 _atom_site_pbe_magmom
Zn  Zn0  1  0.49075713  0.07137022  0.99563191  1  1.283995  0  0.672132  0.822245  0  2.356711  0
Zn  Zn1  1  0.92423943  0.99077590  0.49560664  1  1.283951  0  0.672217  0.821789  0  2.358395  0
Zn  Zn2  1  0.57132848  0.00482521  0.49560133  1  1.282307  0  0.672276  0.822159  0  2.357399  0
Zn  Zn3  1  0.50480336  0.42423972  0.99561479  1  1.28323  0  0.672376  0.822368  0  2.356745  0
Zn  Zn4  1  0.50924126  0.92863236  0.00436416  1  1.283999  0  0.672147  0.822269  0  2.356689  0
Zn  Zn5  1  0.07576065  0.00922531  0.50439384  1  1.284158  0  0.672285  0.821838  0  2.358278  0
Zn  Zn6  1  0.42867450  0.99517620  0.50439925  1  1.282276  0  0.672303  0.822206  0  2.357449  0
Zn  Zn7  1  0.49519472  0.57575838  0.00438537  1  1.283261  0  0.67234  0.822275  0  2.356766  0
H  H8  1  0.63619346  0.84495576  0.90167945  1  0.09011  0  0.10561  0.108809  0  1.000384  0
H  H9  1  0.05697391  0.13610592  0.40169225  1  0.089918  0  0.105578  0.109048  0  1.000549  0
H  H10  1  0.34478631  0.76563275  0.40169109  1  0.08817  0  0.105808  0.109699  0  1.000554  0
H  H11  1  0.26546967  0.55691494  0.90172734  1  0.087871  0  0.105406  0.108683  0  1.000769  0
H  H12  1  0.36380139  0.15504418  0.09831863  1  0.090024  0  0.10559  0.10875  0  1.000402  0
H  H13  1  0.94302950  0.86389542  0.59830819  1  0.089955  0  0.105609  0.109062  0  1.000494  0
H  H14  1  0.65522185  0.23436660  0.59831184  1  0.088032  0  0.105812  0.109619  0  1.0006  0
H  H15  1  0.73453009  0.44308252  0.09827393  1  0.087835  0  0.105353  0.108651  0  1.000867  0
H  H16  1  0.68803333  0.81081417  0.82934344  1  0.103652  0  0.112112  0.116708  0  0.983502  0
H  H17  1  0.01895048  0.18790889  0.32935037  1  0.104211  0  0.112165  0.116674  0  0.98437  0
H  H18  1  0.31064603  0.64144191  0.32940644  1  0.094535  0  0.111929  0.116308  0  0.983887  0
H  H19  1  0.14133849  0.51881755  0.82936563  1  0.110054  0  0.112305  0.116851  0  0.983415  0
H  H20  1  0.31196600  0.18918643  0.17065575  1  0.103617  0  0.112104  0.116681  0  0.983499  0
H  H21  1  0.98104780  0.81209241  0.67064888  1  0.104257  0  0.11218  0.116692  0  0.984341  0
H  H22  1  0.68935673  0.35855969  0.67059558  1  0.094519  0  0.111943  0.116327  0  0.983895  0
H  H23  1  0.85866247  0.48118647  0.17063627  1  0.11004  0  0.11231  0.116878  0  0.98334  0
H  H24  1  0.62071633  0.01020686  0.79903686  1  0.056014  0  0.102412  0.100298  0  1.008371  0
H  H25  1  0.78913922  0.12063205  0.29894942  1  0.070532  0  0.102495  0.100875  0  1.00717  0
H  H26  1  0.50999709  0.67836156  0.29897178  1  0.060034  0  0.102676  0.100764  0  1.008081  0
H  H27  1  0.17835342  0.28908446  0.79897542  1  0.065071  0  0.102596  0.10103  0  1.007485  0
H  H28  1  0.37928325  0.98979485  0.20096258  1  0.056119  0  0.102394  0.100273  0  1.008385  0
H  H29  1  0.21086016  0.87936880  0.70105202  1  0.070479  0  0.102525  0.100924  0  1.007085  0
H  H30  1  0.49000432  0.32163433  0.70102725  1  0.060269  0  0.10271  0.100766  0  1.008086  0
H  H31  1  0.82164306  0.71091693  0.20102261  1  0.064709  0  0.102584  0.101046  0  1.007363  0
H  H32  1  0.57390642  0.04579311  0.87306848  1  0.06417  0  0.101275  0.102564  0  1.014023  0
H  H33  1  0.82743619  0.07384438  0.37300248  1  0.072236  0  0.101445  0.103239  0  1.013797  0
H  H34  1  0.54561225  0.79917670  0.37299005  1  0.078951  0  0.101146  0.102707  0  1.012567  0
H  H35  1  0.29914779  0.32744332  0.87303464  1  0.064612  0  0.101295  0.102957  0  1.012623  0
H  H36  1  0.42609420  0.95420858  0.12693198  1  0.06421  0  0.101262  0.102551  0  1.014048  0
H  H37  1  0.17256682  0.92615598  0.62699868  1  0.071942  0  0.101445  0.103192  0  1.013848  0
H  H38  1  0.45439264  0.20081883  0.62700965  1  0.078967  0  0.101136  0.10267  0  1.012748  0
H  H39  1  0.70084881  0.67255357  0.12696296  1  0.064495  0  0.101297  0.102946  0  1.012622  0
H  H40  1  0.69178828  0.94869585  0.62628064  1  0.050813  0  0.101689  0.102033  0  1.02073  0
H  H41  1  0.67766451  0.19192740  0.12637869  1  0.084635  0  0.101371  0.101547  0  1.019893  0
H  H42  1  0.44839303  0.43447674  0.12626459  1  0.081028  0  0.101435  0.101863  0  1.019753  0
H  H43  1  0.93455063  0.17752510  0.62642533  1  0.086148  0  0.101572  0.101234  0  1.020367  0
H  H44  1  0.30821290  0.05130528  0.37372038  1  0.050841  0  0.101682  0.101992  0  1.020719  0
H  H45  1  0.32233586  0.80807589  0.87362097  1  0.084724  0  0.101387  0.101578  0  1.019946  0
H  H46  1  0.55160768  0.56552150  0.87373486  1  0.08105  0  0.101417  0.101813  0  1.019691  0
H  H47  1  0.06544650  0.82247493  0.37357609  1  0.086453  0  0.101567  0.101281  0  1.02035  0
H  H48  1  0.75216167  0.91648805  0.70610804  1  0.084547  0  0.109555  0.112538  0  0.988794  0
H  H49  1  0.78976018  0.25218906  0.20615026  1  0.082422  0  0.109446  0.112604  0  0.98898  0
H  H50  1  0.41632882  0.45400660  0.20613348  1  0.082025  0  0.109343  0.112246  0  0.989836  0
H  H51  1  0.95404271  0.28959644  0.70618884  1  0.087409  0  0.109592  0.112567  0  0.98861  0
H  H52  1  0.24783814  0.08351273  0.29389327  1  0.084541  0  0.109549  0.112532  0  0.9888  0
H  H53  1  0.21023842  0.74781291  0.79385041  1  0.082438  0  0.109457  0.112611  0  0.98901  0
H  H54  1  0.58367167  0.54598949  0.79386630  1  0.082125  0  0.109313  0.112166  0  0.989945  0
H  H55  1  0.04595459  0.71040242  0.29381220  1  0.087552  0  0.109527  0.112466  0  0.988686  0
H  H56  1  0.53825443  0.89459093  0.72142306  1  0.069087  0  0.103226  0.101546  0  1.006021  0
H  H57  1  0.82677616  0.03823012  0.22136618  1  0.048863  0  0.10301  0.101905  0  1.005488  0
H  H58  1  0.39459603  0.68318284  0.22144745  1  0.084086  0  0.103046  0.101718  0  1.00692  0
H  H59  1  0.18317774  0.32678828  0.72138962  1  0.045487  0  0.103219  0.101804  0  1.00566  0
H  H60  1  0.46174496  0.10541028  0.27857673  1  0.069089  0  0.103217  0.101496  0  1.006097  0
H  H61  1  0.17321928  0.96176857  0.77863138  1  0.048847  0  0.103052  0.101987  0  1.005505  0
H  H62  1  0.60540410  0.31681393  0.77855307  1  0.083995  0  0.103019  0.101688  0  1.006988  0
H  H63  1  0.81681840  0.67321239  0.27861137  1  0.045396  0  0.103302  0.101893  0  1.00574  0
H  H64  1  0.47830156  0.92234119  0.64034781  1  0.096148  0  0.103546  0.10657  0  1.002745  0
H  H65  1  0.71786524  0.97841698  0.14036810  1  0.070554  0  0.103274  0.106079  0  1.002958  0
H  H66  1  0.42236837  0.66206544  0.14039352  1  0.083563  0  0.103364  0.10646  0  1.003277  0
H  H67  1  0.16207056  0.21789766  0.64037452  1  0.080582  0  0.103262  0.106114  0  1.003212  0
H  H68  1  0.52169822  0.07766064  0.35965293  1  0.096115  0  0.103576  0.106616  0  1.002737  0
H  H69  1  0.28213146  0.02158422  0.85962849  1  0.07042  0  0.103265  0.106138  0  1.003023  0
H  H70  1  0.57763178  0.33793300  0.85960703  1  0.083551  0  0.103358  0.106439  0  1.003239  0
H  H71  1  0.83792610  0.78210146  0.35962809  1  0.080436  0  0.103277  0.106151  0  1.003291  0
H  H72  1  0.41177220  0.15051491  0.92114167  1  0.074986  0  0.112891  0.101897  0  0.971238  0
H  H73  1  0.77061540  0.91181822  0.42111822  1  0.095284  0  0.112773  0.101789  0  0.971568  0
H  H74  1  0.65046686  0.00947038  0.42114503  1  0.075712  0  0.112766  0.101879  0  0.972443  0
H  H75  1  0.50944089  0.27067704  0.92115725  1  0.090159  0  0.112843  0.101787  0  0.972175  0
H  H76  1  0.58822724  0.84948693  0.07885873  1  0.074964  0  0.112881  0.1019  0  0.971225  0
H  H77  1  0.22938332  0.08817962  0.57888037  1  0.095308  0  0.11278  0.101815  0  0.9717  0
H  H78  1  0.34953307  0.99053095  0.57885640  1  0.075728  0  0.112752  0.101637  0  0.97235  0
H  H79  1  0.49055813  0.72932486  0.07884328  1  0.090139  0  0.112828  0.102006  0  0.972251  0
H  H80  1  0.50414846  0.14666407  0.92123758  1  0.079337  0  0.112307  0.099747  0  0.979923  0
H  H81  1  0.77460066  0.00418100  0.42122184  1  0.071118  0  0.11248  0.099921  0  0.979257  0
H  H82  1  0.64661846  0.91721319  0.42125099  1  0.089518  0  0.112223  0.099669  0  0.98009  0
H  H83  1  0.41715386  0.27462677  0.92124164  1  0.079356  0  0.112171  0.099114  0  0.98034  0
H  H84  1  0.49584979  0.85333790  0.07876275  1  0.079269  0  0.112305  0.099734  0  0.979859  0
H  H85  1  0.22539787  0.99581869  0.57877821  1  0.071067  0  0.112464  0.099915  0  0.979271  0
H  H86  1  0.35337948  0.08278775  0.57874957  1  0.089492  0  0.112196  0.09967  0  0.980008  0
H  H87  1  0.58284508  0.72537519  0.07875937  1  0.079388  0  0.112148  0.099119  0  0.980339  0
H  H88  1  0.59102626  0.21560552  0.06042892  1  0.060463  0  0.110497  0.097513  0  0.997481  0
H  H89  1  0.84484942  0.09102573  0.56040661  1  0.100735  0  0.110897  0.097951  0  0.997158  0
H  H90  1  0.71558871  0.96952166  0.56043584  1  0.060031  0  0.110413  0.097402  0  0.997645  0
H  H91  1  0.46941400  0.34483042  0.06042588  1  0.098745  0  0.111067  0.098366  0  0.996654  0
H  H92  1  0.40897306  0.78439576  0.93957135  1  0.060402  0  0.110524  0.097566  0  0.997415  0
H  H93  1  0.15514935  0.90897507  0.43959368  1  0.100733  0  0.110879  0.097979  0  0.997199  0
H  H94  1  0.28441083  0.03047907  0.43956465  1  0.060048  0  0.110415  0.0974  0  0.997675  0
H  H95  1  0.53058653  0.65517201  0.93957613  1  0.098806  0  0.111073  0.098288  0  0.996621  0
H  H96  1  0.60701953  0.18454811  0.00114350  1  0.071742  0  0.116209  0.106154  0  0.956146  0
H  H97  1  0.81665065  0.10703792  0.50112776  1  0.072704  0  0.11624  0.106483  0  0.956485  0
H  H98  1  0.68446342  0.89422519  0.50116254  1  0.07861  0  0.116182  0.106831  0  0.956127  0
H  H99  1  0.39413354  0.31662950  0.00114594  1  0.083641  0  0.116199  0.106852  0  0.955817  0
H  H100  1  0.39297993  0.81545304  0.99885581  1  0.071727  0  0.116185  0.106177  0  0.956125  0
H  H101  1  0.18334812  0.89296288  0.49887253  1  0.072701  0  0.116282  0.106569  0  0.956496  0
H  H102  1  0.31553555  0.10577610  0.49883739  1  0.078592  0  0.116164  0.106824  0  0.956115  0
H  H103  1  0.60586609  0.68337246  0.99885575  1  0.083451  0  0.116225  0.106858  0  0.955824  0
H  H104  1  0.38961479  0.19323922  0.00234513  1  0.0822  0  0.11674  0.104976  0  0.954068  0
H  H105  1  0.80905485  0.88964904  0.50231332  1  0.05125  0  0.116524  0.104929  0  0.952607  0
H  H106  1  0.69325870  0.11277856  0.50232721  1  0.089314  0  0.116597  0.105097  0  0.951885  0
H  H107  1  0.61273604  0.30913194  0.00235336  1  0.061282  0  0.116749  0.105269  0  0.952838  0
H  H108  1  0.61038551  0.80676377  0.99765667  1  0.082187  0  0.116765  0.104973  0  0.953996  0
H  H109  1  0.19094367  0.11035066  0.49768673  1  0.051248  0  0.116512  0.104926  0  0.952589  0
H  H110  1  0.30674007  0.88722224  0.49767308  1  0.089297  0  0.11657  0.105066  0  0.951893  0
H  H111  1  0.38726298  0.69086996  0.99764717  1  0.061313  0  0.116754  0.105235  0  0.952931  0
H  H112  1  0.46592552  0.22161374  0.06110833  1  0.083766  0  0.114645  0.103019  0  0.965374  0
H  H113  1  0.83950269  0.96592483  0.56107850  1  0.088089  0  0.114258  0.10213  0  0.96627  0
H  H114  1  0.72160264  0.09528521  0.56110534  1  0.086034  0  0.114398  0.102833  0  0.966043  0
H  H115  1  0.59522945  0.33954236  0.06113024  1  0.084869  0  0.114473  0.102777  0  0.966695  0
H  H116  1  0.53407483  0.77838753  0.93889296  1  0.083675  0  0.114591  0.102889  0  0.96539  0
H  H117  1  0.16049714  0.03407527  0.43892173  1  0.088084  0  0.114285  0.102193  0  0.966275  0
H  H118  1  0.27839697  0.90471545  0.43889467  1  0.086033  0  0.114412  0.102844  0  0.96603  0
H  H119  1  0.40476991  0.66045953  0.93887063  1  0.084909  0  0.114461  0.103018  0  0.966861  0
C  C120  1  0.63366803  0.88070012  0.87898076  1  -0.006064  0  -0.080732  -0.089997  0  3.973166  0
C  C121  1  0.99854876  0.13358648  0.37897685  1  -0.030629  0  -0.081062  -0.091406  0  3.972098  0
C  C122  1  0.38056589  0.74541134  0.37902659  1  -0.056092  0  -0.081013  -0.092329  0  3.973784  0
C  C123  1  0.24527622  0.49848693  0.87904852  1  -0.090859  0  -0.080982  -0.09222  0  3.973647  0
C  C124  1  0.36632940  0.11929897  0.12101766  1  -0.005907  0  -0.080634  -0.089785  0  3.973131  0
C  C125  1  0.00145447  0.86641368  0.62102288  1  -0.030405  0  -0.081068  -0.091336  0  3.972131  0
C  C126  1  0.61943988  0.25458935  0.62097564  1  -0.056211  0  -0.080958  -0.093041  0  3.973243  0
C  C127  1  0.75472124  0.50151076  0.12095214  1  -0.090952  0  -0.080886  -0.092161  0  3.973424  0
C  C128  1  0.66177905  0.86155587  0.83878827  1  -0.035374  0  -0.076832  -0.097368  0  3.960316  0
C  C129  1  0.97758675  0.16166460  0.33875830  1  0.000182  0  -0.077251  -0.097003  0  3.961371  0
C  C130  1  0.36140909  0.67709748  0.33884365  1  0.004326  0  -0.076473  -0.094878  0  3.960199  0
C  C131  1  0.17698795  0.47749340  0.83883148  1  -0.023934  0  -0.076754  -0.096474  0  3.95859  0
C  C132  1  0.33821852  0.13844612  0.16121138  1  -0.035315  0  -0.076845  -0.097367  0  3.960248  0
C  C133  1  0.02241389  0.83833641  0.66124108  1  -9e-05  0  -0.077288  -0.097038  0  3.961562  0
C  C134  1  0.63859405  0.32290072  0.66115819  1  0.004341  0  -0.076492  -0.09497  0  3.960691  0
C  C135  1  0.82300966  0.52250884  0.16117043  1  -0.024024  0  -0.076786  -0.095722  0  3.959222  0
C  C136  1  0.65607557  0.90740875  0.80910882  1  -0.09176  0  -0.013176  0.00314  0  3.97798  0
C  C137  1  0.90206415  0.15595677  0.30905214  1  -0.106409  0  -0.012503  0.001294  0  3.977994  0
C  C138  1  0.40721064  0.65311358  0.30912236  1  -0.044766  0  -0.013075  0.00051  0  3.979595  0
C  C139  1  0.15306138  0.40198244  0.80908174  1  -0.063163  0  -0.013177  0.00316  0  3.9733  0
C  C140  1  0.34392490  0.09259343  0.19089094  1  -0.091969  0  -0.013184  0.003126  0  3.977936  0
C  C141  1  0.09793474  0.84404224  0.69094717  1  -0.106338  0  -0.012485  0.001221  0  3.978066  0
C  C142  1  0.59279114  0.34688360  0.69087869  1  -0.044599  0  -0.013051  0.000545  0  3.979617  0
C  C143  1  0.84693520  0.59801982  0.19091914  1  -0.063252  0  -0.013195  0.000525  0  3.976718  0
C  C144  1  0.62407524  0.97387034  0.82144832  1  -0.014854  0  -0.086906  -0.118035  0  4.005178  0
C  C145  1  0.84787212  0.12396449  0.32137164  1  -0.066624  0  -0.087311  -0.118211  0  4.004391  0
C  C146  1  0.47367248  0.69741762  0.32139569  1  -0.063398  0  -0.086697  -0.116761  0  4.004338  0
C  C147  1  0.19738087  0.34781071  0.82140238  1  -0.05491  0  -0.08675  -0.118665  0  4.00389  0
C  C148  1  0.37592451  0.02613254  0.17855184  1  -0.014788  0  -0.086858  -0.117951  0  4.00516  0
C  C149  1  0.15212902  0.87603602  0.67862878  1  -0.066588  0  -0.087302  -0.118096  0  4.004237  0
C  C150  1  0.52633035  0.30257652  0.67860420  1  -0.063786  0  -0.086832  -0.116971  0  4.004663  0
C  C151  1  0.80261746  0.65218887  0.17859637  1  -0.054757  0  -0.086706  -0.117802  0  4.004404  0
C  C152  1  0.59806329  0.99400102  0.86267163  1  0.00089  0  -0.085662  -0.09195  0  3.991976  0
C  C153  1  0.86886671  0.09797326  0.36260759  1  -0.00853  0  -0.085532  -0.092711  0  3.991176  0
C  C154  1  0.49380555  0.76464718  0.36260931  1  0.030651  0  -0.085862  -0.093116  0  3.991228  0
C  C155  1  0.26458655  0.36885041  0.86265575  1  0.042182  0  -0.085843  -0.093478  0  3.988041  0
C  C156  1  0.40193629  0.00600069  0.13732781  1  0.000692  0  -0.085694  -0.092021  0  3.991971  0
C  C157  1  0.13113578  0.90202593  0.63739251  1  -0.008351  0  -0.085542  -0.092722  0  3.99143  0
C  C158  1  0.50619825  0.23534738  0.63739043  1  0.030602  0  -0.085725  -0.093796  0  3.990766  0
C  C159  1  0.73541037  0.63114716  0.13734327  1  0.042442  0  -0.08585  -0.093493  0  3.987877  0
C  C160  1  0.58158414  0.93790638  0.62882877  1  0.017306  0  -0.012133  -0.020412  0  3.950491  0
C  C161  1  0.69088273  0.08169322  0.12886035  1  0.008041  0  -0.012679  -0.021981  0  3.949284  0
C  C162  1  0.43775561  0.54723818  0.12879833  1  -0.034482  0  -0.013074  -0.019139  0  3.944504  0
C  C163  1  0.04727413  0.19084321  0.62885607  1  0.026352  0  -0.012579  -0.019248  0  3.944927  0
C  C164  1  0.41841806  0.06209344  0.37117159  1  0.01732  0  -0.012174  -0.020617  0  3.950517  0
C  C165  1  0.30911583  0.91830820  0.87113534  1  0.008492  0  -0.012551  -0.022032  0  3.949417  0
C  C166  1  0.56224602  0.45275950  0.87120202  1  -0.034313  0  -0.013006  -0.021993  0  3.948457  0
C  C167  1  0.95272193  0.80915751  0.37114541  1  0.025949  0  -0.012517  -0.019173  0  3.944926  0
C  C168  1  0.65885835  0.93623794  0.64736439  1  0.003077  0  -0.08413  -0.093006  0  3.980277  0
C  C169  1  0.71117055  0.15895357  0.14743857  1  -0.021011  0  -0.082942  -0.09088  0  3.978582  0
C  C170  1  0.43597539  0.48851241  0.14732839  1  -0.104426  0  -0.083664  -0.093062  0  3.976957  0
C  C171  1  0.98857256  0.21107322  0.64743140  1  -0.058188  0  -0.083171  -0.090552  0  3.977336  0
C  C172  1  0.34114286  0.06376251  0.35263555  1  0.00311  0  -0.084099  -0.092871  0  3.9801  0
C  C173  1  0.28882883  0.84104802  0.85255957  1  -0.021004  0  -0.083006  -0.090881  0  3.978762  0
C  C174  1  0.56402430  0.51148548  0.85267169  1  -0.104555  0  -0.083601  -0.092073  0  3.977494  0
C  C175  1  0.01142365  0.78892738  0.35256912  1  -0.058451  0  -0.08319  -0.090732  0  3.977414  0
C  C176  1  0.69238271  0.91905454  0.69168763  1  -0.039405  0  -0.078714  -0.095724  0  3.967147  0
C  C177  1  0.77270890  0.19242965  0.19173910  1  -0.044701  0  -0.079298  -0.098017  0  3.967056  0
C  C178  1  0.41885738  0.49933959  0.19169172  1  0.003707  0  -0.078389  -0.096271  0  3.967296  0
C  C179  1  0.99939206  0.27257873  0.69175942  1  -0.019195  0  -0.07918  -0.097853  0  3.967569  0
C  C180  1  0.30761670  0.08094563  0.30831274  1  -0.039361  0  -0.078699  -0.095713  0  3.967223  0
C  C181  1  0.22728943  0.80756992  0.80825965  1  -0.045001  0  -0.079331  -0.098097  0  3.966942  0
C  C182  1  0.58114329  0.50065766  0.80830879  1  0.002771  0  -0.078375  -0.096103  0  3.967023  0
C  C183  1  0.00060445  0.72742088  0.30824249  1  -0.019293  0  -0.079079  -0.097582  0  3.967551  0
C  C184  1  0.64942435  0.90518124  0.71924271  1  -0.008247  0  -0.013722  -0.000905  0  3.974543  0
C  C185  1  0.81419167  0.14944336  0.21924769  1  -0.075236  0  -0.013651  0.002067  0  3.970621  0
C  C186  1  0.40501115  0.56983558  0.21925826  1  -0.005283  0  -0.013652  0.001678  0  3.970971  0
C  C187  1  0.06985125  0.31408662  0.71925674  1  -0.051071  0  -0.013917  0.001271  0  3.969373  0
C  C188  1  0.35057452  0.09481845  0.28075768  1  -0.008326  0  -0.0137  -0.000828  0  3.974632  0
C  C189  1  0.18580707  0.85055615  0.78075092  1  -0.074851  0  -0.013627  0.002208  0  3.97059  0
C  C190  1  0.59499105  0.43016153  0.78074265  1  -0.004523  0  -0.013681  0.001609  0  3.971022  0
C  C191  1  0.93014630  0.68591334  0.28074454  1  -0.051568  0  -0.013951  0.001225  0  3.969108  0
C  C192  1  0.57206716  0.90664297  0.70068702  1  -0.123398  0  -0.084999  -0.113415  0  3.992956  0
C  C193  1  0.79404600  0.07210971  0.20067134  1  -0.045059  0  -0.084798  -0.115004  0  3.991233  0
C  C194  1  0.40655122  0.62861176  0.20069309  1  -0.078297  0  -0.084985  -0.115068  0  3.992331  0
C  C195  1  0.12863078  0.29399377  0.70068303  1  -0.032851  0  -0.084892  -0.11463  0  3.989889  0
C  C196  1  0.42793168  0.09335777  0.29931280  1  -0.12349  0  -0.085047  -0.113396  0  3.993043  0
C  C197  1  0.20595055  0.92788927  0.79932511  1  -0.045668  0  -0.084897  -0.115224  0  3.991407  0
C  C198  1  0.59345086  0.37138480  0.79930770  1  -0.078441  0  -0.085039  -0.115107  0  3.992254  0
C  C199  1  0.87136487  0.70600703  0.29931858  1  -0.032582  0  -0.085011  -0.114837  0  3.990004  0
C  C200  1  0.53836808  0.92208583  0.65551891  1  -0.025006  0  -0.084477  -0.093276  0  3.982111  0
C  C201  1  0.73335964  0.03847029  0.15553713  1  0.009358  0  -0.084419  -0.092327  0  3.980598  0
C  C202  1  0.42202428  0.61715236  0.15552601  1  0.0153  0  -0.083777  -0.092894  0  3.979386  0
C  C203  1  0.11717258  0.23334705  0.65553679  1  -0.049685  0  -0.084204  -0.093349  0  3.980097  0
C  C204  1  0.46163291  0.07791517  0.34448081  1  -0.024893  0  -0.084525  -0.09334  0  3.982107  0
C  C205  1  0.26663720  0.96153078  0.84445851  1  0.00951  0  -0.08443  -0.092361  0  3.98083  0
C  C206  1  0.57797646  0.38284483  0.84447402  1  0.015199  0  -0.083751  -0.091937  0  3.980146  0
C  C207  1  0.88282410  0.76665139  0.34446474  1  -0.048949  0  -0.084241  -0.09339  0  3.980145  0
C  C208  1  0.68741692  0.88602993  0.76646154  1  0.959221  0  0.161146  0.347608  0  3.989761  0
C  C209  1  0.88070562  0.18733568  0.26641051  1  0.953644  0  0.160902  0.346672  0  3.98884  0
C  C210  1  0.38585064  0.57911996  0.26649462  1  0.944167  0  0.16011  0.346105  0  3.989916  0
C  C211  1  0.07910810  0.38065713  0.76639187  1  0.949494  0  0.160553  0.346037  0  3.987638  0
C  C212  1  0.31258215  0.11397025  0.23353849  1  0.959274  0  0.161124  0.347527  0  3.989748  0
C  C213  1  0.11929283  0.81266445  0.73358837  1  0.95375  0  0.160861  0.346554  0  3.988962  0
C  C214  1  0.61414906  0.42087725  0.73350438  1  0.94436  0  0.16014  0.34622  0  3.989966  0
C  C215  1  0.92088835  0.61934458  0.23360889  1  0.949704  0  0.160895  0.347266  0  3.987887  0
C  C216  1  0.46846905  0.17985513  0.94044407  1  0.234466  0  -0.067776  -0.09025  0  3.816681  0
C  C217  1  0.76059200  0.96852193  0.44043767  1  0.219136  0  -0.067979  -0.090277  0  3.817478  0
C  C218  1  0.67982745  0.97209357  0.44045347  1  0.202697  0  -0.067756  -0.090275  0  3.819079  0
C  C219  1  0.47203721  0.26063160  0.94045685  1  0.197089  0  -0.067772  -0.089416  0  3.817282  0
C  C220  1  0.53153051  0.82014725  0.05955644  1  0.234514  0  -0.067772  -0.090214  0  3.816756  0
C  C221  1  0.23940749  0.03147818  0.55956222  1  0.219077  0  -0.067951  -0.090287  0  3.817552  0
C  C222  1  0.32017287  0.02790640  0.55954614  1  0.20284  0  -0.067758  -0.089934  0  3.818645  0
C  C223  1  0.52796126  0.73936982  0.05954370  1  0.197089  0  -0.06778  -0.089876  0  3.817734  0
C  C224  1  0.57235194  0.21788373  0.02129735  1  0.237232  0  -0.068436  -0.090351  0  3.820572  0
C  C225  1  0.80343715  0.07238625  0.52127713  1  0.192334  0  -0.068236  -0.090794  0  3.821948  0
C  C226  1  0.71784375  0.94901594  0.52129412  1  0.232539  0  -0.068079  -0.090992  0  3.822474  0
C  C227  1  0.44893979  0.30343046  0.02129261  1  0.193263  0  -0.068575  -0.091922  0  3.821988  0
C  C228  1  0.42764668  0.78211757  0.97870224  1  0.237058  0  -0.068446  -0.09043  0  3.820629  0
C  C229  1  0.19656204  0.92761448  0.47872302  1  0.192342  0  -0.068252  -0.090956  0  3.822193  0
C  C230  1  0.28215627  0.05098465  0.47870576  1  0.232533  0  -0.06807  -0.091019  0  3.82248  0
C  C231  1  0.55106199  0.69657177  0.97870899  1  0.193196  0  -0.068538  -0.091754  0  3.821829  0
C  C232  1  0.44613619  0.22304741  0.02168768  1  0.209706  0  -0.067107  -0.088353  0  3.823423  0
C  C233  1  0.79862741  0.94616807  0.52166629  1  0.248512  0  -0.066039  -0.08612  0  3.820646  0
C  C234  1  0.72304763  0.07561206  0.52168313  1  0.195528  0  -0.066889  -0.088321  0  3.821887  0
C  C235  1  0.57557150  0.29868117  0.02171844  1  0.2346  0  -0.066859  -0.088557  0  3.823471  0
C  C236  1  0.55386505  0.77695433  0.97831394  1  0.20998  0  -0.067098  -0.088183  0  3.823189  0
C  C237  1  0.20137249  0.05383197  0.47833346  1  0.248589  0  -0.066053  -0.086187  0  3.820651  0
C  C238  1  0.27695233  0.92438859  0.47831723  1  0.195578  0  -0.066853  -0.088274  0  3.821882  0
C  C239  1  0.42442782  0.70132012  0.97828183  1  0.23484  0  -0.066878  -0.088946  0  3.824095  0
C  C240  1  0.56992628  0.96760774  0.93385370  1  1.563168  0  0.217801  0.59439  0  4.165361  0
C  C241  1  0.96641333  0.06991749  0.43386444  1  1.57201  0  0.217055  0.591597  0  4.170011  0
C  C242  1  0.46750326  0.86399995  0.43382480  1  1.570701  0  0.216845  0.59197  0  4.168868  0
C  C243  1  0.36393151  0.46642379  0.93388104  1  1.567978  0  0.217145  0.592126  0  4.169469  0
C  C244  1  0.43007145  0.03239615  0.06614336  1  1.563496  0  0.217778  0.594351  0  4.165448  0
C  C245  1  0.03359486  0.93008155  0.56613577  1  1.572327  0  0.217254  0.591921  0  4.169619  0
C  C246  1  0.53251027  0.13599857  0.56617682  1  1.569351  0  0.217119  0.591779  0  4.168678  0
C  C247  1  0.63606453  0.53356788  0.06611876  1  1.568469  0  0.217268  0.592032  0  4.169736  0
C  C248  1  0.60169837  0.94714562  0.89125692  1  -0.05163  0  -0.013489  -0.024122  0  3.958143  0
C  C249  1  0.94431352  0.10162764  0.39123015  1  -0.012688  0  -0.013074  -0.021674  0  3.954063  0
C  C250  1  0.44697190  0.78966465  0.39121523  1  -0.08152  0  -0.013587  -0.02274  0  3.958164  0
C  C251  1  0.28956371  0.44429809  0.89127052  1  -0.013737  0  -0.013262  -0.020259  0  3.952398  0
C  C252  1  0.39830072  0.05285659  0.10874148  1  -0.051512  0  -0.013523  -0.024197  0  3.958227  0
C  C253  1  0.05569018  0.89837073  0.60876894  1  -0.012472  0  -0.013137  -0.02183  0  3.954374  0
C  C254  1  0.55303564  0.21033465  0.60878655  1  -0.080857  0  -0.013681  -0.020108  0  3.954585  0
C  C255  1  0.71043328  0.55569905  0.10872967  1  -0.013769  0  -0.013228  -0.020064  0  3.952243  0
C  C256  1  0.54592120  0.95721245  0.58110553  1  1.573542  0  0.214804  0.589172  0  4.172241  0
C  C257  1  0.62383125  0.04608851  0.08111750  1  1.573993  0  0.215406  0.590543  0  4.169796  0
C  C258  1  0.45715460  0.53516556  0.08108332  1  1.562657  0  0.214593  0.588094  0  4.172873  0
C  C259  1  0.03517186  0.12379084  0.58113427  1  1.572363  0  0.214793  0.588584  0  4.170201  0
C  C260  1  0.45408553  0.04279136  0.41889600  1  1.573492  0  0.214808  0.589289  0  4.172049  0
C  C261  1  0.37616884  0.95391312  0.91887694  1  1.573559  0  0.21563  0.591335  0  4.169038  0
C  C262  1  0.54284567  0.46483109  0.91891624  1  1.562654  0  0.214673  0.589186  0  4.172661  0
C  C263  1  0.96482825  0.87620895  0.41886843  1  1.572275  0  0.214844  0.588764  0  4.170245  0
N  N264  1  0.49453076  0.18024095  0.99454048  1  -0.991644  0  -0.33942  -0.103916  0  3.451653  0
N  N265  1  0.81430039  0.99455933  0.49451795  1  -0.99852  0  -0.339809  -0.104911  0  3.452929  0
N  N266  1  0.68022193  0.00009241  0.49454743  1  -0.966699  0  -0.33966  -0.105146  0  3.454204  0
N  N267  1  0.50003293  0.31432303  0.99454841  1  -0.980768  0  -0.339311  -0.104205  0  3.453669  0
N  N268  1  0.50546889  0.81976033  0.00546014  1  -0.991422  0  -0.339355  -0.103823  0  3.451673  0
N  N269  1  0.18569939  0.00544016  0.50548168  1  -0.998507  0  -0.339798  -0.104922  0  3.453006  0
N  N270  1  0.31977886  0.99990810  0.50545265  1  -0.966818  0  -0.339683  -0.105151  0  3.454113  0
N  N271  1  0.49996678  0.68567886  0.00545280  1  -0.981131  0  -0.339272  -0.104098  0  3.45369  0
O  O272  1  0.74351525  0.85357197  0.77021993  1  -1.074192  0  -0.267266  -0.397264  0  2.035571  0
O  O273  1  0.91690182  0.24342850  0.27014837  1  -1.069265  0  -0.266872  -0.396132  0  2.036323  0
O  O274  1  0.35339043  0.52681396  0.27029500  1  -1.064486  0  -0.266439  -0.396262  0  2.036764  0
O  O275  1  0.02679226  0.41698002  0.77006289  1  -1.0714  0  -0.266662  -0.396631  0  2.037387  0
O  O276  1  0.25648200  0.14642627  0.22978051  1  -1.074245  0  -0.267244  -0.397243  0  2.03556  0
O  O277  1  0.08309527  0.75657060  0.72984972  1  -1.069332  0  -0.26688  -0.396094  0  2.036306  0
O  O278  1  0.64660765  0.47318451  0.72970351  1  -1.064333  0  -0.266468  -0.396338  0  2.036842  0
O  O279  1  0.97320198  0.58302184  0.22993679  1  -1.071222  0  -0.267004  -0.396986  0  2.037236  0
O  O280  1  0.54866835  0.03206087  0.94612065  1  -1.167955  0  -0.31635  -0.555664  0  2.351952  0
O  O281  1  0.91417945  0.04862430  0.44609010  1  -1.167026  0  -0.316553  -0.555257  0  2.353382  0
O  O282  1  0.53198759  0.89747030  0.44606838  1  -1.165891  0  -0.316101  -0.554916  0  2.352741  0
O  O283  1  0.39743914  0.41421725  0.94613635  1  -1.172754  0  -0.316599  -0.555973  0  2.353989  0
O  O284  1  0.45133063  0.96794318  0.05387435  1  -1.167999  0  -0.316377  -0.55566  0  2.351894  0
O  O285  1  0.08582515  0.95136882  0.55390769  1  -1.167297  0  -0.316645  -0.555352  0  2.353315  0
O  O286  1  0.46802675  0.10252642  0.55393293  1  -1.166375  0  -0.316368  -0.555429  0  2.353122  0
O  O287  1  0.60255325  0.58577091  0.05386260  1  -1.17278  0  -0.316635  -0.555851  0  2.354108  0
O  O288  1  0.56559326  0.91878667  0.95401041  1  -1.165139  0  -0.314728  -0.549841  0  2.344687  0
O  O289  1  0.03539227  0.06569994  0.45411510  1  -1.166055  0  -0.314288  -0.548228  0  2.346533  0
O  O290  1  0.41876593  0.88848961  0.45406162  1  -1.169962  0  -0.314404  -0.548725  0  2.345036  0
O  O291  1  0.38845115  0.53537814  0.95408858  1  -1.167822  0  -0.314259  -0.548748  0  2.345993  0
O  O292  1  0.43440443  0.08121858  0.04598881  1  -1.165573  0  -0.314658  -0.549767  0  2.344591  0
O  O293  1  0.96461493  0.93430442  0.54588688  1  -1.166319  0  -0.314357  -0.548401  0  2.346355  0
O  O294  1  0.58124965  0.11151227  0.54594257  1  -1.168512  0  -0.314417  -0.548963  0  2.345612  0
O  O295  1  0.61155359  0.46461246  0.04591153  1  -1.168169  0  -0.314404  -0.548828  0  2.346091  0
O  O296  1  0.47583696  0.95971540  0.56652285  1  -1.175045  0  -0.318135  -0.546239  0  2.303973  0
O  O297  1  0.60679211  0.97599526  0.06646918  1  -1.174302  0  -0.318398  -0.547103  0  2.303705  0
O  O298  1  0.45967778  0.59064282  0.06648718  1  -1.163689  0  -0.317871  -0.546324  0  2.30412  0
O  O299  1  0.09064934  0.10669836  0.56652432  1  -1.165247  0  -0.318016  -0.546174  0  2.303808  0
O  O300  1  0.52416766  0.04029214  0.43347989  1  -1.175185  0  -0.318086  -0.546249  0  2.303959  0
O  O301  1  0.39320991  0.02400991  0.93352440  1  -1.174308  0  -0.318472  -0.547404  0  2.303329  0
O  O302  1  0.54032058  0.40935066  0.93351160  1  -1.163857  0  -0.317977  -0.54646  0  2.303462  0
O  O303  1  0.90934974  0.89329567  0.43348012  1  -1.16526  0  -0.318021  -0.546277  0  2.303645  0
O  O304  1  0.58898607  0.97041229  0.55892247  1  -1.177092  0  -0.314427  -0.560324  0  2.360314  0
O  O305  1  0.58843853  0.08919776  0.05900043  1  -1.179094  0  -0.314701  -0.560606  0  2.360338  0
O  O306  1  0.47041408  0.46993794  0.05894753  1  -1.176613  0  -0.314183  -0.559789  0  2.362576  0
O  O307  1  0.96993274  0.08840865  0.55899625  1  -1.17817  0  -0.314562  -0.560553  0  2.361875  0
O  O308  1  0.41101866  0.02958841  0.44107874  1  -1.176939  0  -0.31443  -0.560295  0  2.360103  0
O  O309  1  0.41156158  0.91080824  0.94099348  1  -1.178805  0  -0.314778  -0.561  0  2.36039  0
O  O310  1  0.52959156  0.53005714  0.94105403  1  -1.176403  0  -0.314199  -0.559779  0  2.362105  0
O  O311  1  0.03006322  0.91159355  0.44100348  1  -1.17813  0  -0.314612  -0.560604  0  2.36204  0
