# generated using pymatgen
data_FeHC6O7
_symmetry_space_group_name_H-M   'P 1'
_cell_length_a   6.83933837
_cell_length_b   15.25925115
_cell_length_c   15.21930087
_cell_angle_alpha   117.36763171
_cell_angle_beta   98.92619449
_cell_angle_gamma   98.50281978
_symmetry_Int_Tables_number   1
_chemical_formula_structural   FeHC6O7
_chemical_formula_sum   'Fe6 H6 C36 O42'
_cell_volume   1349.28779812
_cell_formula_units_Z   6
loop_
 _symmetry_equiv_pos_site_id
 _symmetry_equiv_pos_as_xyz
  1  'x, y, z'
loop_
 _atom_site_type_symbol
 _atom_site_label
 _atom_site_symmetry_multiplicity
 _atom_site_fract_x
 _atom_site_fract_y
 _atom_site_fract_z
 _atom_site_occupancy
 _atom_site_pbe_bader_charge
 _atom_site_pbe_bader_spin_density
 _atom_site_pbe_cm5_charge
 _atom_site_pbe_ddec_charge
 _atom_site_pbe_ddec_spin_density
 _atom_site_pbe_ddec_sum_bond_order
 _atom_site_pbe_magmom
Fe  Fe0  1  0.48192136  0.27136776  0.59998619  1  1.390975  -3.613444  0.671117  0.941813  -3.827095  2.581396  -3.575
Fe  Fe1  1  0.21107812  0.32711621  0.72751267  1  1.395226  -3.610649  0.671114  0.941776  -3.824098  2.583477  -3.573
Fe  Fe2  1  0.88236040  0.39814161  0.67114148  1  1.389405  -3.611744  0.67039  0.939143  -3.823687  2.584701  -3.574
Fe  Fe3  1  0.53287655  0.73677823  0.41005084  1  1.41322  -3.589867  0.679017  0.977845  -3.797194  2.506658  -3.557
Fe  Fe4  1  0.79904227  0.67544037  0.26597174  1  1.398267  3.564908  0.663795  0.950477  3.784022  2.520098  3.533
Fe  Fe5  1  0.11957989  0.59280732  0.32590823  1  1.427829  3.626374  0.687066  0.986068  3.859283  2.524721  3.593
H  H6  1  0.81797074  0.44716158  0.47021321  1  0.090214  0.000203  0.105125  0.128947  0.000105  1.021564  0.0
H  H7  1  0.37296789  0.02331158  0.55277987  1  0.081637  -0.0008  0.104643  0.127629  5.6e-05  1.023118  0.0
H  H8  1  0.35082083  0.52919642  0.97698458  1  0.086376  -1.3e-05  0.10433  0.12765  7e-05  1.022592  0.0
H  H9  1  0.18163929  0.55391237  0.52916594  1  0.124813  -0.000453  0.104629  0.127521  -0.000172  1.023311  0.0
H  H10  1  0.62858828  0.97648447  0.44650576  1  0.075302  -0.000381  0.104723  0.127872  7.9e-05  1.022762  0.0
H  H11  1  0.65424573  0.47026075  0.02356919  1  0.103377  -0.000176  0.104843  0.127414  -8.8e-05  1.022012  0.0
C  C12  1  0.23607790  0.42533633  0.59361298  1  1.464145  0.013028  0.222967  0.62672  0.005337  4.07932  0.008
C  C13  1  0.81117803  0.16786466  0.57390062  1  1.490697  0.011577  0.223033  0.625882  0.004622  4.080253  0.007
C  C14  1  0.64370158  0.40430004  0.83105315  1  1.452912  0.009208  0.223465  0.627051  0.003573  4.077919  0.006
C  C15  1  0.75868001  0.57226096  0.40150319  1  1.496603  0.022418  0.223539  0.627051  0.011564  4.090162  0.014
C  C16  1  0.18879063  0.83097616  0.42914789  1  1.500484  -0.010017  0.225131  0.631472  -0.004461  4.081754  -0.006
C  C17  1  0.35928250  0.60023061  0.17111842  1  1.482848  -0.017981  0.22104  0.624043  -0.008623  4.087694  -0.012
C  C18  1  0.37474974  0.46083918  0.54564999  1  -0.030415  -0.011722  -0.033599  -0.148268  -0.004491  3.966098  -0.01
C  C19  1  0.91511478  0.08502903  0.53882143  1  0.007714  -0.014991  -0.033671  -0.147922  -0.006042  3.969248  -0.011
C  C20  1  0.83098743  0.45276819  0.91436928  1  0.005164  -0.024403  -0.034141  -0.14923  -0.010281  3.969848  -0.018
C  C21  1  0.62375737  0.53918995  0.45286670  1  -0.029041  0.018015  -0.031857  -0.141678  0.008437  3.974498  0.011
C  C22  1  0.08642678  0.91483889  0.46147947  1  -0.076251  -0.000779  -0.032839  -0.145296  -0.000571  3.973506  0.001
C  C23  1  0.17379345  0.54726626  0.08600133  1  -0.003574  0.011266  -0.032987  -0.14342  0.004231  3.972997  0.009
C  C24  1  0.55882247  0.42861535  0.52843693  1  0.619838  0.005888  0.07394  0.311078  0.001668  4.074367  0.004
C  C25  1  0.13179245  0.09976993  0.57092421  1  0.58986  -0.002929  0.073661  0.311105  -0.002343  4.074801  -0.001
C  C26  1  0.03281373  0.46990521  0.89976667  1  0.603317  0.008744  0.073886  0.311487  0.003106  4.07202  0.007
C  C27  1  0.44065668  0.57177121  0.47062054  1  0.600723  -0.007535  0.06821  0.294634  -0.003445  4.081449  -0.005
C  C28  1  0.87031701  0.90033382  0.42916241  1  0.559667  -0.008023  0.06768  0.295464  -0.004181  4.087784  -0.006
C  C29  1  0.97235485  0.52906176  0.10011358  1  0.567159  -0.012477  0.068808  0.298381  -0.004728  4.088636  -0.009
C  C30  1  0.67703618  0.47013434  0.48289425  1  -0.01456  -0.013042  -0.108755  -0.218453  -0.00582  3.978252  -0.01
C  C31  1  0.20884277  0.01328011  0.52980709  1  0.054843  -0.027908  -0.107883  -0.216502  -0.012562  3.97646  -0.017
C  C32  1  0.19699863  0.51623883  0.98697227  1  -0.019141  -0.032815  -0.109813  -0.221113  -0.014815  3.977637  -0.021
C  C33  1  0.32283501  0.53112086  0.51664339  1  -0.06057  0.006988  -0.108513  -0.21829  0.002987  3.984085  0.004
C  C34  1  0.79287719  0.98655246  0.46927021  1  0.003493  0.011398  -0.109185  -0.220356  0.00536  3.984335  0.007
C  C35  1  0.80810080  0.48260314  0.01338341  1  -0.041223  0.031533  -0.109362  -0.218968  0.0142  3.985032  0.02
C  C36  1  0.21692992  0.08997055  0.34669415  1  2.156267  -0.003591  0.378516  0.73113  -0.001679  4.085826  -0.003
C  C37  1  0.12349248  0.25674316  0.91134054  1  2.133963  -0.003498  0.378332  0.730348  -0.001647  4.086425  -0.003
C  C38  1  0.87067956  0.65043016  0.74153469  1  2.131296  -0.003546  0.37721  0.730783  -0.001666  4.086663  -0.003
C  C39  1  0.78459149  0.91202177  0.65597698  1  2.152193  -0.004611  0.383467  0.739762  -0.002263  4.074932  -0.004
C  C40  1  0.87342375  0.74345615  0.08803706  1  2.135458  0.004669  0.382386  0.737732  0.002353  4.073788  0.004
C  C41  1  0.12969432  0.34607528  0.25612607  1  2.138861  0.00457  0.382044  0.738134  0.002272  4.077937  0.004
C  C42  1  0.29331228  0.78852362  0.65966029  1  2.138466  4e-05  0.363667  0.71811  6.1e-05  4.12516  0.0
C  C43  1  0.50370786  0.87082264  0.21101311  1  2.127517  -9e-05  0.364018  0.718035  -6.8e-05  4.123004  0.0
C  C44  1  0.63030757  0.34190289  0.13026916  1  2.120947  -5e-06  0.363361  0.717077  -0.000195  4.121985  0.0
C  C45  1  0.70611929  0.21216015  0.34139244  1  2.128535  2.5e-05  0.36335  0.719229  0.000209  4.122496  0.0
C  C46  1  0.49191881  0.12942650  0.78998741  1  2.130101  -1.6e-05  0.362822  0.719452  0.000176  4.122487  0.0
C  C47  1  0.36131625  0.65721565  0.86881922  1  2.12495  6e-06  0.363133  0.719429  0.000175  4.126452  0.0
O  O48  1  0.27108456  0.35418833  0.61340182  1  -1.182184  -0.122757  -0.331199  -0.580387  -0.061232  2.642713  -0.098
O  O49  1  0.91711644  0.25809229  0.64489334  1  -1.191468  -0.12358  -0.331365  -0.579762  -0.061348  2.64524  -0.099
O  O50  1  0.65821133  0.38394357  0.74000853  1  -1.178554  -0.126194  -0.332323  -0.580865  -0.062621  2.646174  -0.101
O  O51  1  0.71566166  0.63790649  0.37569628  1  -1.173018  -0.004475  -0.317793  -0.574663  -0.003622  2.614366  -0.006
O  O52  1  0.07976114  0.73972033  0.36483796  1  -1.186991  0.113622  -0.321894  -0.580111  0.056861  2.617857  0.089
O  O53  1  0.34040298  0.62738477  0.26252476  1  -1.176639  0.014889  -0.318189  -0.577061  0.007426  2.596712  0.015
O  O54  1  0.08345028  0.46207811  0.61583316  1  -1.16075  -0.066554  -0.309413  -0.544916  -0.031839  2.331342  -0.047
O  O55  1  0.62130111  0.15338580  0.53690494  1  -1.167585  -0.068723  -0.310273  -0.545358  -0.032802  2.3308  -0.049
O  O56  1  0.46887060  0.38220603  0.84577706  1  -1.159939  -0.07182  -0.310467  -0.544459  -0.034114  2.331908  -0.051
O  O57  1  0.91325107  0.53561151  0.38219372  1  -1.170265  0.070124  -0.318124  -0.560052  0.032983  2.332116  0.046
O  O58  1  0.38061612  0.84817867  0.46494204  1  -1.173141  -0.060292  -0.316394  -0.557647  -0.029041  2.341834  -0.037
O  O59  1  0.53413204  0.61968109  0.15464565  1  -1.168556  0.061558  -0.320524  -0.558626  0.029858  2.338067  0.039
O  O60  1  0.62681227  0.36200502  0.55213372  1  -1.165222  -0.145775  -0.357312  -0.581033  -0.071339  2.536965  -0.119
O  O61  1  0.26592935  0.18951408  0.63732693  1  -1.166013  -0.149936  -0.358789  -0.583777  -0.073321  2.537039  -0.123
O  O62  1  0.07619169  0.44553655  0.80941636  1  -1.165083  -0.146693  -0.358038  -0.582791  -0.071758  2.540462  -0.12
O  O63  1  0.37336996  0.63797979  0.44501389  1  -1.165328  -0.026565  -0.359284  -0.581049  -0.012104  2.51685  -0.025
O  O64  1  0.73696657  0.80945908  0.36357379  1  -1.168759  0.012726  -0.358671  -0.579453  0.006069  2.525855  0.015
O  O65  1  0.92988671  0.55452620  0.19109354  1  -1.168614  0.152963  -0.360222  -0.584066  0.07492  2.54212  0.117
O  O66  1  0.17402708  0.00689588  0.27684211  1  -1.071512  -0.002997  -0.169478  -0.345268  -0.001298  2.170523  -0.002
O  O67  1  0.15993950  0.26983262  0.99504297  1  -1.060753  -0.002899  -0.169385  -0.345157  -0.00128  2.171515  -0.002
O  O68  1  0.90247102  0.72070301  0.72844987  1  -1.053923  -0.003084  -0.169407  -0.346335  -0.001306  2.171334  -0.003
O  O69  1  0.82694885  0.99512887  0.72562710  1  -1.066093  -0.003783  -0.164592  -0.340723  -0.001571  2.167262  -0.003
O  O70  1  0.83185572  0.72994527  0.00430498  1  -1.051022  0.003693  -0.164612  -0.340835  0.001622  2.167553  0.003
O  O71  1  0.10269684  0.27518619  0.26836785  1  -1.054587  0.003598  -0.165882  -0.341882  0.001589  2.167723  0.003
O  O72  1  0.26025580  0.17373313  0.41592235  1  -1.093878  -0.016596  -0.156767  -0.340634  -0.007491  2.325087  -0.006
O  O73  1  0.08741181  0.24238446  0.82698248  1  -1.081708  -0.016607  -0.156424  -0.339897  -0.007451  2.323956  -0.006
O  O74  1  0.84015744  0.58064896  0.75575614  1  -1.085941  -0.016295  -0.155452  -0.338927  -0.007347  2.324746  -0.006
O  O75  1  0.74149181  0.82817010  0.58670993  1  -1.094875  -0.019026  -0.158482  -0.353918  -0.0092  2.351089  -0.007
O  O76  1  0.91510993  0.75802339  0.17248106  1  -1.093365  0.019578  -0.158026  -0.350416  0.009172  2.351711  0.007
O  O77  1  0.15590082  0.41670354  0.24293621  1  -1.091603  0.019207  -0.156432  -0.350679  0.009095  2.348525  0.007
O  O78  1  0.14927284  0.78758885  0.60571028  1  -1.069993  -0.000193  -0.164799  -0.334075  2.8e-05  2.22536  0.0
O  O79  1  0.36080492  0.82028307  0.21421265  1  -1.05999  -1e-05  -0.165634  -0.334761  -0.000295  2.22507  0.0
O  O80  1  0.53979599  0.39641512  0.18082882  1  -1.064777  0.000129  -0.164752  -0.333902  -0.000213  2.223501  0.0
O  O81  1  0.85003784  0.21289742  0.39527874  1  -1.062075  -0.000148  -0.165692  -0.33656  0.000391  2.222839  0.0
O  O82  1  0.63660457  0.18270494  0.79144364  1  -1.06937  -0.000235  -0.16631  -0.337563  0.000336  2.220057  0.0
O  O83  1  0.45264543  0.60457879  0.81683077  1  -1.063465  -0.0001  -0.166109  -0.336834  0.000399  2.223941  0.0
O  O84  1  0.43733705  0.79033441  0.71465658  1  -1.078107  0.00015  -0.186814  -0.365893  9e-05  2.157096  0.0
O  O85  1  0.64555059  0.92168240  0.20698284  1  -1.077944  -5.2e-05  -0.186777  -0.36561  -5e-05  2.156545  0.0
O  O86  1  0.71955688  0.28629967  0.07948950  1  -1.066235  0.000158  -0.186166  -0.365075  7e-06  2.157815  0.0
O  O87  1  0.56258504  0.21046527  0.28621230  1  -1.07685  2.4e-05  -0.185766  -0.365358  7.1e-05  2.157622  0.0
O  O88  1  0.34845683  0.07583138  0.78949044  1  -1.071652  -0.000197  -0.185793  -0.365629  -4e-06  2.15866  0.0
O  O89  1  0.27149292  0.71116169  0.92106936  1  -1.072062  -0.000189  -0.186028  -0.366243  -1e-05  2.159546  0.0
