# generated using pymatgen
data_CoH8C13NO5
_symmetry_space_group_name_H-M   'P 1'
_cell_length_a   12.36622391
_cell_length_b   12.37422050
_cell_length_c   13.60034118
_cell_angle_alpha   115.51210317
_cell_angle_beta   116.67847290
_cell_angle_gamma   91.84780144
_symmetry_Int_Tables_number   1
_chemical_formula_structural   CoH8C13NO5
_chemical_formula_sum   'Co4 H32 C52 N4 O20'
_cell_volume   1611.25003387
_cell_formula_units_Z   4
loop_
 _symmetry_equiv_pos_site_id
 _symmetry_equiv_pos_as_xyz
  1  'x, y, z'
loop_
 _atom_site_type_symbol
 _atom_site_label
 _atom_site_symmetry_multiplicity
 _atom_site_fract_x
 _atom_site_fract_y
 _atom_site_fract_z
 _atom_site_occupancy
 _atom_site_pbe_bader_charge
 _atom_site_pbe_bader_spin_density
 _atom_site_pbe_cm5_charge
 _atom_site_pbe_ddec_charge
 _atom_site_pbe_ddec_spin_density
 _atom_site_pbe_ddec_sum_bond_order
 _atom_site_pbe_magmom
Co  Co0  1  0.55468426  0.30469989  0.24983216  1  1.382301  2.583614  0.683056  1.073562  2.792416  2.460322  2.57
Co  Co1  1  0.44531168  0.69531074  0.75015881  1  1.382698  2.583027  0.683441  1.07363  2.791952  2.463137  2.57
Co  Co2  1  0.49996079  0.99986967  0.99991374  1  1.379603  2.623227  0.670978  1.073999  2.840944  2.355046  2.607
Co  Co3  1  0.49995272  0.50003683  0.50008030  1  1.377483  2.62543  0.67234  1.076233  2.843627  2.355026  2.609
H  H4  1  0.89409716  0.14182483  0.15429536  1  0.058883  0.000312  0.088096  0.083148  0.000122  1.090867  0.0
H  H5  1  0.11926122  0.26153304  0.26089564  1  0.070009  0.00054  0.0938  0.095938  0.000215  1.02872  0.0
H  H6  1  0.12601314  0.45871764  0.61256475  1  0.1061  0.000258  0.108936  0.119511  5.5e-05  0.992952  0.0
H  H7  1  0.89887218  0.34406791  0.50354005  1  0.051167  0.000348  0.10233  0.104516  9.5e-05  1.00553  0.0
H  H8  1  0.27103809  0.20504293  0.01006928  1  0.185869  -3.5e-05  0.144819  0.145414  -0.000239  0.976058  0.0
H  H9  1  0.04630147  0.15114143  0.94892254  1  0.074017  -0.000218  0.116589  0.122822  -0.000321  0.989048  0.0
H  H10  1  0.13228235  0.89379456  0.09371796  1  0.067416  -0.000116  0.11597  0.122265  -0.000272  0.991957  0.0
H  H11  1  0.35266598  0.95827275  0.14479718  1  0.18527  0.000123  0.136826  0.13102  -5.2e-05  1.000321  0.0
H  H12  1  0.48802883  0.73956400  0.34595824  1  0.090845  0.000251  0.088222  0.083459  9.3e-05  1.091089  0.0
H  H13  1  0.50107057  0.85814662  0.23935990  1  0.062441  0.000481  0.093899  0.095871  0.000184  1.029984  0.0
H  H14  1  0.34624338  0.51368475  0.88751650  1  0.126367  0.000254  0.109207  0.119709  5.5e-05  0.993888  0.0
H  H15  1  0.34057651  0.39553558  0.99647788  1  0.045389  0.000355  0.102082  0.104459  0.000101  1.003817  0.0
H  H16  1  0.69521575  0.26048001  0.48960575  1  0.194808  -2.4e-05  0.145197  0.145194  -0.000226  0.977684  0.0
H  H17  1  0.70233778  0.09688527  0.55065428  1  0.074959  -0.000226  0.11703  0.122666  -0.000324  0.989751  0.0
H  H18  1  0.30024065  0.03891180  0.40665331  1  0.063175  -0.000116  0.116214  0.12214  -0.000267  0.992671  0.0
H  H19  1  0.31378099  0.20815673  0.35569206  1  0.174876  0.000116  0.136731  0.13039  -6.6e-05  1.001378  0.0
H  H20  1  0.10591484  0.85816631  0.84570102  1  0.058275  0.000313  0.088095  0.083144  0.000122  1.091008  0.0
H  H21  1  0.88075745  0.73848535  0.73911979  1  0.07029  0.000538  0.093783  0.095936  0.000215  1.028631  0.0
H  H22  1  0.87398294  0.54129800  0.38744864  1  0.106492  0.000258  0.10896  0.119615  5.6e-05  0.992702  0.0
H  H23  1  0.10113472  0.65591980  0.49645492  1  0.05122  0.000349  0.102331  0.104535  9.5e-05  1.005491  0.0
H  H24  1  0.72897102  0.79493643  0.98991294  1  0.186022  -3.3e-05  0.144854  0.145363  -0.000238  0.976186  0.0
H  H25  1  0.95369612  0.84886954  0.05106821  1  0.074031  -0.000218  0.116587  0.122892  -0.000321  0.989258  0.0
H  H26  1  0.86773381  0.10621130  0.90632441  1  0.068153  -0.000115  0.115981  0.122367  -0.000272  0.992242  0.0
H  H27  1  0.64734040  0.04172626  0.85520116  1  0.185404  0.000123  0.13678  0.131054  -5.2e-05  1.000412  0.0
H  H28  1  0.51196012  0.26046086  0.65403528  1  0.090772  0.000251  0.088156  0.083479  9.3e-05  1.091074  0.0
H  H29  1  0.49894019  0.14185656  0.76061044  1  0.062643  0.00048  0.093783  0.095793  0.000184  1.030146  0.0
H  H30  1  0.65375369  0.48628500  0.11246106  1  0.12666  0.000255  0.109166  0.119712  5.5e-05  0.994092  0.0
H  H31  1  0.65941931  0.60447558  0.00353056  1  0.045192  0.000355  0.10207  0.104398  0.0001  1.003742  0.0
H  H32  1  0.30477957  0.73955697  0.51042018  1  0.194195  -2.3e-05  0.145138  0.145202  -0.000225  0.977814  0.0
H  H33  1  0.29767735  0.90313671  0.44937158  1  0.074604  -0.000226  0.117003  0.122598  -0.000325  0.990072  0.0
H  H34  1  0.69972658  0.96106622  0.59333187  1  0.063211  -0.000114  0.116237  0.122149  -0.000266  0.992719  0.0
H  H35  1  0.68620511  0.79184904  0.64432055  1  0.173726  0.000117  0.136706  0.130456  -6.6e-05  1.001468  0.0
C  C36  1  0.74449140  0.17422192  0.25345811  1  1.564964  0.007577  0.217349  0.603256  0.005324  4.151416  0.006
C  C37  1  0.88348955  0.23371522  0.32234894  1  -0.010739  0.005708  -0.016421  -0.024297  0.002624  3.94795  0.005
C  C38  1  0.94671713  0.20967657  0.25497381  1  -0.034314  0.002611  -0.097398  -0.105315  0.001161  4.001127  0.002
C  C39  1  0.07169998  0.27581094  0.31452294  1  -0.08615  -0.00059  -0.096966  -0.111433  -0.001182  3.99848  0.0
C  C40  1  0.13653954  0.36599382  0.44393747  1  -0.007502  0.010938  -0.019352  -0.032237  0.005746  3.962417  0.008
C  C41  1  0.07465029  0.38724683  0.51258207  1  0.01888  -0.001114  -0.083685  -0.093808  -0.001459  3.969992  -0.001
C  C42  1  0.94907182  0.32277115  0.45209426  1  -0.053709  0.002542  -0.085273  -0.094113  0.001234  3.982473  0.002
C  C43  1  0.26826576  0.44536046  0.50878021  1  1.570723  -0.0035  0.216122  0.588671  -0.004693  4.173114  -0.002
C  C44  1  0.23206029  0.13746744  0.02482064  1  0.41706  0.013808  0.059204  0.006679  0.006935  3.820992  0.011
C  C45  1  0.10890685  0.10582637  0.99362778  1  -0.003826  -0.00825  -0.07304  -0.151258  -0.009008  3.963908  -0.005
C  C46  1  0.06545502  0.01782787  0.01732233  1  0.011505  0.00605  0.001839  0.07411  0.003048  4.005662  0.004
C  C47  1  0.15637341  0.96446408  0.07393776  1  -0.018519  -0.005845  -0.077538  -0.158761  -0.006487  3.98132  -0.004
C  C48  1  0.27925254  0.99820461  0.10473155  1  0.380664  0.016383  0.048583  -0.024629  0.008423  3.865664  0.012
C  C49  1  0.42080951  0.49099654  0.24659966  1  1.561874  0.007443  0.21794  0.604814  0.0053  4.146979  0.006
C  C50  1  0.41166328  0.56108992  0.17779731  1  0.061856  0.005626  -0.016061  -0.024711  0.002575  3.94704  0.005
C  C51  1  0.45518041  0.69156926  0.24526560  1  -0.126008  0.002655  -0.097681  -0.105998  0.00115  4.00035  0.002
C  C52  1  0.46173625  0.75703972  0.18573807  1  -0.038144  -0.000409  -0.096892  -0.111468  -0.001018  3.997762  0.0
C  C53  1  0.42238662  0.69266653  0.05628348  1  -0.054094  0.011098  -0.019416  -0.031149  0.005808  3.963716  0.009
C  C54  1  0.37489837  0.56225017  0.98755761  1  -0.053321  -0.001173  -0.083306  -0.094058  -0.001526  3.973111  -0.001
C  C55  1  0.37090748  0.49711495  0.04802053  1  -0.015255  0.002547  -0.085459  -0.093802  0.001235  3.98158  0.002
C  C56  1  0.43671413  0.75963470  0.99145430  1  1.571122  -0.003605  0.215828  0.587663  -0.004677  4.172206  -0.002
C  C57  1  0.61286501  0.20694430  0.47502231  1  0.387158  0.014138  0.059145  0.006588  0.007103  3.820497  0.011
C  C58  1  0.61234610  0.11495753  0.50615015  1  0.003265  -0.008233  -0.072536  -0.149221  -0.009  3.961563  -0.005
C  C59  1  0.50059700  0.04814208  0.48268991  1  -0.00685  0.00639  0.001747  0.073165  0.003244  4.005147  0.004
C  C60  1  0.39071116  0.08262701  0.42630780  1  0.032776  -0.005489  -0.076736  -0.157183  -0.006096  3.980969  -0.003
C  C61  1  0.39376325  0.17475144  0.39565878  1  0.37805  0.016703  0.049058  -0.023375  0.008592  3.864545  0.013
C  C62  1  0.25553299  0.82572551  0.74649431  1  1.564356  0.007586  0.217492  0.603193  0.005328  4.152163  0.006
C  C63  1  0.11653890  0.76627363  0.67764239  1  -0.0072  0.005722  -0.016324  -0.023906  0.002635  3.947799  0.005
C  C64  1  0.05331770  0.79032534  0.74503330  1  -0.034356  0.002609  -0.097599  -0.105714  0.00116  4.001154  0.002
C  C65  1  0.92832903  0.72421631  0.68550194  1  -0.085899  -0.000579  -0.096765  -0.110972  -0.001172  3.998377  0.0
C  C66  1  0.86348037  0.63403553  0.55610064  1  -0.005823  0.010924  -0.01948  -0.032626  0.005742  3.962758  0.008
C  C67  1  0.92535676  0.61276135  0.48743280  1  0.019309  -0.001106  -0.083647  -0.093798  -0.00145  3.969797  -0.001
C  C68  1  0.05093537  0.67722144  0.54790108  1  -0.058213  0.002543  -0.085367  -0.094328  0.001233  3.982818  0.002
C  C69  1  0.73174204  0.55469502  0.49129353  1  1.570166  -0.003472  0.216227  0.58883  -0.004659  4.172065  -0.002
C  C70  1  0.76793949  0.86250647  0.97515782  1  0.41699  0.013838  0.059301  0.006878  0.006951  3.820526  0.011
C  C71  1  0.89109762  0.89417136  0.00636957  1  -0.00385  -0.008264  -0.073061  -0.151317  -0.009023  3.964212  -0.005
C  C72  1  0.93454136  0.98217586  0.98268563  1  0.053293  0.006103  0.001746  0.07396  0.00306  4.006152  0.004
C  C73  1  0.84362812  0.03553024  0.92606496  1  -0.019853  -0.005853  -0.07745  -0.158765  -0.006497  3.981784  -0.004
C  C74  1  0.72073987  0.00177830  0.89524993  1  0.381175  0.016418  0.048566  -0.024755  0.008443  3.865434  0.012
C  C75  1  0.57920447  0.50909014  0.75345662  1  1.563611  0.007438  0.217814  0.604295  0.005304  4.148467  0.006
C  C76  1  0.58834704  0.43895126  0.82221668  1  0.060805  0.005652  -0.015964  -0.024595  0.002588  3.947156  0.005
C  C77  1  0.54481485  0.30846178  0.75472501  1  -0.126018  0.002651  -0.097701  -0.106238  0.001149  3.999975  0.002
C  C78  1  0.53825509  0.24296688  0.81422606  1  -0.037659  -0.000397  -0.096661  -0.111246  -0.001007  3.997915  0.0
C  C79  1  0.57761164  0.30730698  0.94366940  1  -0.05262  0.011083  -0.019381  -0.03102  0.005804  3.963685  0.009
C  C80  1  0.62509676  0.43773336  0.01242102  1  -0.053603  -0.001163  -0.083283  -0.094147  -0.001515  3.973171  -0.001
C  C81  1  0.62908800  0.50289715  0.95198296  1  -0.014938  0.002543  -0.08544  -0.093666  0.001233  3.981699  0.002
C  C82  1  0.56327293  0.24028091  0.00845605  1  1.570406  -0.003557  0.215646  0.587671  -0.004635  4.171981  -0.002
C  C83  1  0.38712564  0.79308108  0.52500715  1  0.38775  0.014173  0.059171  0.006426  0.007122  3.820456  0.011
C  C84  1  0.38765313  0.88506160  0.49387196  1  0.003551  -0.008254  -0.07263  -0.149205  -0.009021  3.961729  -0.005
C  C85  1  0.49939382  0.95185889  0.51730880  1  0.024771  0.006436  0.001811  0.073553  0.003259  4.005037  0.004
C  C86  1  0.60926961  0.91737078  0.57370219  1  0.033418  -0.005498  -0.076765  -0.157231  -0.006105  3.980875  -0.003
C  C87  1  0.60623220  0.82526452  0.60437713  1  0.378525  0.016737  0.048951  -0.02357  0.00861  3.863968  0.013
N  N88  1  0.31633497  0.08556951  0.08218053  1  -0.657267  -0.012505  -0.113197  0.332999  -0.017873  3.879658  -0.015
N  N89  1  0.50368635  0.23415504  0.41802313  1  -0.653612  -0.012321  -0.113322  0.332758  -0.0177  3.877444  -0.015
N  N90  1  0.68364657  0.91438634  0.91777496  1  -0.657939  -0.012496  -0.113356  0.332899  -0.017883  3.878373  -0.015
N  N91  1  0.49629941  0.76586698  0.58201902  1  -0.653035  -0.012325  -0.113071  0.33313  -0.017709  3.876813  -0.015
O  O92  1  0.68850698  0.22472772  0.31419539  1  -1.167916  0.065578  -0.326051  -0.602286  0.033684  2.41227  0.05
O  O93  1  0.69145455  0.08329217  0.14081848  1  -1.163276  0.07339  -0.304595  -0.565171  0.037502  2.358668  0.065
O  O94  1  0.31719394  0.52567274  0.62540007  1  -1.157796  0.067682  -0.305121  -0.553086  0.034799  2.400087  0.059
O  O95  1  0.31943403  0.42649992  0.44153422  1  -1.159663  0.076947  -0.317264  -0.576056  0.040116  2.36583  0.065
O  O96  1  0.43622022  0.11860268  0.11516473  1  -0.646624  0.075851  -0.213612  -0.514258  0.042245  2.354767  0.066
O  O97  1  0.41038582  0.37429754  0.18586813  1  -1.169802  0.066179  -0.325977  -0.602957  0.033886  2.409839  0.051
O  O98  1  0.44259725  0.55063861  0.35931663  1  -1.152019  0.074126  -0.305132  -0.565626  0.037899  2.357417  0.065
O  O99  1  0.40035707  0.69198709  0.87479179  1  -1.149798  0.069221  -0.305925  -0.55388  0.0356  2.399295  0.06
O  O100  1  0.48495492  0.87793062  0.05861274  1  -1.160536  0.075799  -0.316604  -0.574595  0.039548  2.365157  0.065
O  O101  1  0.50375264  0.32094675  0.38498844  1  -0.64244  0.075787  -0.212929  -0.5133  0.042152  2.349782  0.066
O  O102  1  0.31151721  0.77521462  0.68576787  1  -1.166867  0.065638  -0.326242  -0.60239  0.033725  2.413384  0.05
O  O103  1  0.30857720  0.91663253  0.85913717  1  -1.16375  0.073561  -0.304536  -0.565072  0.037582  2.360214  0.065
O  O104  1  0.68284431  0.47437272  0.37466848  1  -1.158512  0.067668  -0.305199  -0.553174  0.034789  2.399303  0.059
O  O105  1  0.68054771  0.57358598  0.55853457  1  -1.160131  0.076752  -0.317258  -0.57612  0.040008  2.363903  0.065
O  O106  1  0.56373675  0.88128715  0.88473210  1  -0.646327  0.076046  -0.213615  -0.514139  0.042352  2.35515  0.066
O  O107  1  0.58961104  0.62576554  0.81416713  1  -1.170837  0.066169  -0.326057  -0.602746  0.033875  2.41085  0.051
O  O108  1  0.55739594  0.44945209  0.64073487  1  -1.152299  0.074293  -0.305089  -0.56529  0.037984  2.359041  0.066
O  O109  1  0.59962706  0.30795734  0.12512722  1  -1.148487  0.069204  -0.306081  -0.554326  0.035588  2.398737  0.06
O  O110  1  0.51507982  0.12196706  0.94130472  1  -1.162687  0.0756  -0.316319  -0.574268  0.039443  2.36411  0.064
O  O111  1  0.49621473  0.67910090  0.61509514  1  -0.642505  0.075923  -0.213105  -0.51352  0.042247  2.351194  0.066
