# generated using pymatgen
data_CuH10C15N8O
_symmetry_space_group_name_H-M   'P 1'
_cell_length_a   8.84431218
_cell_length_b   12.20780617
_cell_length_c   14.45245911
_cell_angle_alpha   109.22830366
_cell_angle_beta   89.99605593
_cell_angle_gamma   90.01055518
_symmetry_Int_Tables_number   1
_chemical_formula_structural   CuH10C15N8O
_chemical_formula_sum   'Cu4 H40 C60 N32 O4'
_cell_volume   1473.37661612
_cell_formula_units_Z   4
loop_
 _symmetry_equiv_pos_site_id
 _symmetry_equiv_pos_as_xyz
  1  'x, y, z'
loop_
 _atom_site_type_symbol
 _atom_site_label
 _atom_site_symmetry_multiplicity
 _atom_site_fract_x
 _atom_site_fract_y
 _atom_site_fract_z
 _atom_site_occupancy
 _atom_site_pbe_bader_charge
 _atom_site_pbe_bader_spin_density
 _atom_site_pbe_cm5_charge
 _atom_site_pbe_ddec_charge
 _atom_site_pbe_ddec_spin_density
 _atom_site_pbe_ddec_sum_bond_order
 _atom_site_pbe_magmom
Cu  Cu0  1  0.58916470  0.44159069  0.38086121  1  1.054297  -0.551769  0.755101  0.646511  -0.739823  2.449479  -0.55
Cu  Cu1  1  0.08907532  0.55840181  0.11912910  1  1.054801  -0.551706  0.754955  0.646594  -0.739736  2.448732  -0.55
Cu  Cu2  1  0.41094982  0.55842630  0.61911574  1  1.054701  0.551805  0.75518  0.64686  0.739835  2.448873  0.55
Cu  Cu3  1  0.91093517  0.44157701  0.88083944  1  1.054506  0.551724  0.754913  0.646231  0.739758  2.44926  0.55
H  H4  1  0.31467308  0.06653257  0.15530845  1  0.161164  -0.00057  0.108252  0.114842  -0.000417  1.088219  0.0
H  H5  1  0.81468512  0.93343764  0.34470449  1  0.160903  -0.000568  0.108334  0.114948  -0.000416  1.087924  0.0
H  H6  1  0.68534646  0.93347314  0.84466609  1  0.161393  0.000569  0.108347  0.114899  0.000417  1.088225  0.0
H  H7  1  0.18534006  0.06652252  0.65533849  1  0.161237  0.000568  0.108327  0.114973  0.000416  1.087866  0.0
H  H8  1  0.35583203  0.28618647  0.22518355  1  0.14919  -0.001951  0.122591  0.085477  -0.000932  1.043484  -0.002
H  H9  1  0.85580843  0.71379721  0.27488329  1  0.15043  -0.001951  0.122565  0.08518  -0.000933  1.043433  -0.002
H  H10  1  0.64429945  0.71381460  0.77473159  1  0.149075  0.001953  0.122518  0.085406  0.000933  1.043496  0.002
H  H11  1  0.14429590  0.28616842  0.72521101  1  0.149271  0.001951  0.122544  0.085395  0.000932  1.043611  0.002
H  H12  1  0.00897438  0.40169220  0.61808089  1  0.144669  -0.000439  0.116037  0.129854  -0.000299  1.024521  0.0
H  H13  1  0.50893401  0.59830548  0.88192598  1  0.144503  -0.00044  0.116062  0.129919  -0.000299  1.024447  0.0
H  H14  1  0.99101576  0.59829208  0.38193689  1  0.144573  0.00044  0.116091  0.129959  0.000299  1.024479  0.0
H  H15  1  0.49104935  0.40173323  0.11806524  1  0.144584  0.00044  0.116012  0.129903  0.000299  1.0244  0.0
H  H16  1  0.82342256  0.51505451  0.54633142  1  0.1894  -0.001871  0.127673  0.107378  -0.001088  0.996475  -0.002
H  H17  1  0.32337249  0.48491345  0.95369583  1  0.18877  -0.001873  0.127518  0.107267  -0.001087  0.99645  -0.002
H  H18  1  0.17662524  0.48493566  0.45365268  1  0.189113  0.001874  0.127604  0.107325  0.001089  0.996472  0.002
H  H19  1  0.67669115  0.51508111  0.04629917  1  0.188785  0.001873  0.127585  0.10741  0.001087  0.996542  0.002
H  H20  1  0.99159092  0.18319726  0.55072288  1  0.110744  -0.000538  0.116133  0.081627  -0.00032  1.006922  0.0
H  H21  1  0.49159660  0.81678990  0.94925982  1  0.110935  -0.000536  0.116183  0.081687  -0.000319  1.006731  0.0
H  H22  1  0.00841392  0.81678072  0.44925165  1  0.111078  0.000538  0.116162  0.081645  0.00032  1.006948  0.0
H  H23  1  0.50836980  0.18325507  0.05076910  1  0.110255  0.000538  0.116217  0.081668  0.00032  1.006876  0.0
H  H24  1  0.48840016  0.85833993  0.34728735  1  0.077996  -0.000187  0.097691  0.097205  -7.5e-05  1.022727  0.0
H  H25  1  0.98847516  0.14160893  0.15273608  1  0.078426  -0.000185  0.097776  0.097221  -7.4e-05  1.022558  0.0
H  H26  1  0.51140002  0.14165050  0.65274873  1  0.078546  0.000186  0.097681  0.097124  7.5e-05  1.022521  0.0
H  H27  1  0.01133407  0.85841248  0.84726076  1  0.077802  0.000186  0.097721  0.097119  7.4e-05  1.022384  0.0
H  H28  1  0.79730046  0.95860011  0.59074631  1  0.059607  -0.001183  0.091385  0.088442  -0.000606  1.02307  -0.001
H  H29  1  0.29738768  0.04154610  0.90923344  1  0.060305  -0.001179  0.091446  0.08849  -0.000604  1.02272  -0.001
H  H30  1  0.20261282  0.04153640  0.40922819  1  0.05976  0.001183  0.091452  0.088475  0.000606  1.022833  0.001
H  H31  1  0.70260810  0.95837244  0.09080156  1  0.059922  0.00118  0.091336  0.088309  0.000605  1.022847  0.001
H  H32  1  0.79194778  0.75632692  0.59588378  1  0.041996  0.000261  0.094724  0.109754  0.000133  1.00528  0.0
H  H33  1  0.29180678  0.24380458  0.90407070  1  0.041064  0.000261  0.094941  0.109856  0.000134  1.00521  0.0
H  H34  1  0.20825721  0.24379037  0.40405706  1  0.040942  -0.000261  0.094799  0.109773  -0.000133  1.005215  0.0
H  H35  1  0.70834730  0.75614175  0.09597539  1  0.040469  -0.00026  0.094938  0.109924  -0.000133  1.004907  0.0
H  H36  1  0.49032464  0.94042074  0.21194456  1  0.111854  -0.000409  0.120783  0.088254  -0.000232  0.980724  0.0
H  H37  1  0.99037575  0.05954283  0.28802956  1  0.111976  -0.000409  0.120855  0.088375  -0.000231  0.980513  0.0
H  H38  1  0.50964062  0.05956957  0.78806727  1  0.111695  0.000409  0.120837  0.088336  0.000231  0.980782  0.0
H  H39  1  0.00955333  0.94044561  0.71195684  1  0.11181  0.000408  0.120845  0.088507  0.000231  0.980583  0.0
H  H40  1  0.64912985  0.00895676  0.46337571  1  0.084713  -9.5e-05  0.092063  0.090676  -9.4e-05  1.070879  0.0
H  H41  1  0.14927102  0.99108952  0.03661097  1  0.084506  -9.5e-05  0.092142  0.090818  -9.5e-05  1.070767  0.0
H  H42  1  0.35058102  0.99112458  0.53665144  1  0.083411  9.5e-05  0.092284  0.091043  9.5e-05  1.070941  0.0
H  H43  1  0.85050542  0.00885826  0.96338709  1  0.083905  9.5e-05  0.092337  0.091166  9.5e-05  1.070898  0.0
C  C44  1  0.40367223  0.10449059  0.20796798  1  -0.008498  -0.00516  -0.0718  -0.165238  -0.003681  3.921454  -0.004
C  C45  1  0.90369302  0.89548011  0.29206080  1  -0.006495  -0.005154  -0.072108  -0.165714  -0.003679  3.922004  -0.004
C  C46  1  0.59635070  0.89550386  0.79200692  1  -0.008801  0.005156  -0.072046  -0.165499  0.003678  3.921812  0.004
C  C47  1  0.09631407  0.10449306  0.70798506  1  -0.007086  0.005153  -0.072012  -0.165457  0.003676  3.921537  0.004
C  C48  1  0.42530599  0.22409282  0.24612522  1  0.440807  0.001237  0.072722  0.144528  0.000391  3.871198  0.001
C  C49  1  0.92532662  0.77588260  0.25393233  1  0.438335  0.001236  0.073072  0.145421  0.000392  3.871247  0.001
C  C50  1  0.57476217  0.77590580  0.75381831  1  0.439923  -0.001245  0.072915  0.144845  -0.000395  3.871682  -0.001
C  C51  1  0.07472683  0.22408630  0.74612342  1  0.440502  -0.001241  0.072845  0.144765  -0.000393  3.871301  -0.001
C  C52  1  0.61921464  0.19450099  0.34154299  1  1.124863  0.001544  0.256117  0.274963  0.000504  3.997481  0.0
C  C53  1  0.11924713  0.80546020  0.15849420  1  1.126508  0.001546  0.256262  0.274936  0.000506  3.997867  0.0
C  C54  1  0.38081846  0.80549343  0.65842568  1  1.124086  -0.00154  0.255981  0.274667  -0.000502  3.997632  0.0
C  C55  1  0.88076788  0.19451120  0.84154425  1  1.128061  -0.001544  0.256078  0.274758  -0.000506  3.997349  0.0
C  C56  1  0.92806677  0.35844700  0.56091633  1  0.100712  -0.006494  -0.06976  -0.14889  -0.004588  3.889549  -0.005
C  C57  1  0.42803682  0.64152766  0.93909461  1  0.094722  -0.006507  -0.069912  -0.149535  -0.004584  3.889782  -0.005
C  C58  1  0.07194938  0.64153629  0.43907765  1  0.095125  0.006516  -0.069879  -0.149221  0.004591  3.889552  0.005
C  C59  1  0.57195219  0.35847730  0.06090255  1  0.095094  0.00651  -0.069913  -0.149533  0.004587  3.889493  0.005
C  C60  1  0.45126197  0.63930986  0.33672700  1  0.893802  -0.000359  0.203378  0.264303  -0.000546  4.059921  -0.001
C  C61  1  0.95117116  0.36062092  0.16325840  1  0.894735  -0.00035  0.203269  0.264903  -0.000545  4.059117  -0.001
C  C62  1  0.54877339  0.36069783  0.66329444  1  0.893353  0.000361  0.203327  0.26458  0.000547  4.060104  0.001
C  C63  1  0.04882124  0.63936994  0.83669268  1  0.894283  0.000352  0.203527  0.265091  0.000546  4.059289  0.001
C  C64  1  0.73132421  0.24859378  0.41911490  1  1.125132  0.001869  0.256117  0.275018  0.000686  4.004772  0.001
C  C65  1  0.23133928  0.75137683  0.08090919  1  1.125312  0.001873  0.256232  0.275212  0.000686  4.004916  0.001
C  C66  1  0.26870777  0.75140065  0.58085515  1  1.125595  -0.001868  0.256016  0.275069  -0.000685  4.004496  -0.001
C  C67  1  0.76866894  0.24860580  0.91912405  1  1.12514  -0.001871  0.256154  0.275156  -0.000685  4.00441  -0.001
C  C68  1  0.82948585  0.42063584  0.52221882  1  0.420481  2e-06  0.072935  0.148411  -0.00055  3.867747  0.0
C  C69  1  0.32945712  0.57933551  0.97780704  1  0.427427  3.1e-05  0.073378  0.148987  -0.000544  3.867069  0.0
C  C70  1  0.17056309  0.57935085  0.47776295  1  0.426798  -1.9e-05  0.073156  0.148477  0.000552  3.867762  0.0
C  C71  1  0.67056694  0.42067036  0.02219729  1  0.427019  -2.2e-05  0.073392  0.148734  0.000548  3.867099  0.0
C  C72  1  0.63757833  0.69221655  0.47513737  1  0.6045  0.000294  0.073108  0.299827  -0.00157  4.126199  0.003
C  C73  1  0.13740183  0.30778984  0.02480701  1  0.602298  0.000303  0.073448  0.300288  -0.001547  4.124978  0.003
C  C74  1  0.36248757  0.30783786  0.52487269  1  0.603599  -0.000289  0.073321  0.300232  0.001569  4.125265  -0.003
C  C75  1  0.86258944  0.69220553  0.97517991  1  0.602603  -0.000297  0.07334  0.300139  0.001553  4.124838  -0.003
C  C76  1  0.54998198  0.72313129  0.40435039  1  -0.00856  -0.00868  -0.034855  -0.120391  -0.005634  4.010628  -0.007
C  C77  1  0.04989469  0.27684816  0.09561718  1  -0.008695  -0.008722  -0.034801  -0.120617  -0.005664  4.009818  -0.007
C  C78  1  0.45001156  0.27690412  0.59567244  1  -0.008883  0.008666  -0.034813  -0.120609  0.005626  4.010234  0.007
C  C79  1  0.95007510  0.72313066  0.90435135  1  -0.00932  0.008702  -0.034955  -0.120863  0.00565  4.009714  0.007
C  C80  1  0.91832519  0.23760381  0.52350347  1  0.422021  0.002753  0.07408  0.146629  0.0019  3.928604  0.002
C  C81  1  0.41832182  0.76236944  0.97648189  1  0.42354  0.002758  0.074103  0.146992  0.001904  3.928073  0.002
C  C82  1  0.08167173  0.76238465  0.47648431  1  0.423342  -0.002752  0.074019  0.146666  -0.0019  3.928272  -0.002
C  C83  1  0.58167172  0.23763904  0.02352594  1  0.424176  -0.002755  0.073868  0.146629  -0.001902  3.928934  -0.002
C  C84  1  0.55683947  0.83702034  0.40174635  1  -0.074845  0.001478  -0.093182  -0.089698  0.001031  3.990061  0.001
C  C85  1  0.05686190  0.16296023  0.09826068  1  -0.075249  0.001499  -0.093042  -0.089259  0.001044  3.988889  0.001
C  C86  1  0.44304666  0.16300813  0.59827596  1  -0.075394  -0.001479  -0.093034  -0.089029  -0.00103  3.988969  -0.001
C  C87  1  0.94300499  0.83701796  0.90175265  1  -0.074072  -0.001493  -0.092978  -0.088741  -0.001039  3.988936  -0.001
C  C88  1  0.72922077  0.89247600  0.53795896  1  -0.097315  0.000418  -0.10446  -0.072982  0.000318  4.061413  0.0
C  C89  1  0.22923292  0.10761444  0.96200965  1  -0.096684  0.000441  -0.104489  -0.072938  0.000332  4.061211  0.0
C  C90  1  0.27072642  0.10762765  0.46202727  1  -0.096263  -0.000415  -0.104477  -0.07269  -0.000315  4.061439  0.0
C  C91  1  0.77074817  0.89232211  0.03799363  1  -0.095713  -0.000431  -0.104217  -0.072354  -0.000325  4.061718  0.0
C  C92  1  0.72652769  0.78016249  0.54145047  1  -0.047614  -0.015673  -0.124164  -0.229236  -0.011167  4.014374  -0.012
C  C93  1  0.22642642  0.21991714  0.95850629  1  -0.046768  -0.015693  -0.124285  -0.229124  -0.011185  4.014251  -0.012
C  C94  1  0.27355179  0.21992554  0.45852870  1  -0.046841  0.015657  -0.124142  -0.229188  0.011158  4.014607  0.012
C  C95  1  0.77361008  0.78004115  0.04150918  1  -0.047308  0.015663  -0.124335  -0.22923  0.011165  4.014718  0.012
C  C96  1  0.50048419  0.03483110  0.24034132  1  0.53081  0.002796  0.074065  0.139641  0.001889  3.938871  0.002
C  C97  1  0.00051649  0.96512734  0.25966265  1  0.530617  0.002796  0.073793  0.139282  0.001889  3.938812  0.002
C  C98  1  0.49950143  0.96515828  0.75965710  1  0.531026  -0.002797  0.073921  0.139366  -0.00189  3.938923  -0.002
C  C99  1  0.99944085  0.03485001  0.74035738  1  0.530762  -0.002797  0.073721  0.13887  -0.00189  3.939196  -0.002
C  C100  1  0.64542661  0.92153678  0.46726096  1  -0.000651  -0.00564  -0.116447  -0.126624  -0.003791  4.069321  -0.003
C  C101  1  0.14549035  0.07851160  0.03272439  1  2e-06  -0.005716  -0.116487  -0.127037  -0.003841  4.069667  -0.003
C  C102  1  0.35442446  0.07853233  0.53274623  1  0.001596  0.005624  -0.116782  -0.127788  0.003779  4.070411  0.003
C  C103  1  0.85439802  0.92145003  0.96726987  1  0.001223  0.005681  -0.116733  -0.12792  0.003817  4.070974  0.003
N  N104  1  0.53387382  0.26951820  0.31274725  1  -1.204122  -0.068141  -0.322664  -0.277098  -0.047844  3.531128  -0.06
N  N105  1  0.03389407  0.73045446  0.18731668  1  -1.206737  -0.068093  -0.32278  -0.277236  -0.047811  3.531275  -0.06
N  N106  1  0.46619547  0.73047612  0.68720202  1  -1.202803  0.068114  -0.322541  -0.276999  0.047827  3.531501  0.06
N  N107  1  0.96612886  0.26952209  0.81271419  1  -1.207136  0.068071  -0.322535  -0.276842  0.047794  3.530928  0.06
N  N108  1  0.82127333  0.18196887  0.45239632  1  -1.155934  -0.010297  -0.291883  -0.286155  -0.007027  3.259354  -0.008
N  N109  1  0.32128431  0.81800302  0.04760850  1  -1.156828  -0.010292  -0.292  -0.286496  -0.007024  3.25967  -0.008
N  N110  1  0.17872699  0.81801872  0.54759261  1  -1.157285  0.010294  -0.291843  -0.286196  0.007026  3.259277  0.008
N  N111  1  0.67871035  0.18199263  0.95243039  1  -1.157172  0.010286  -0.291888  -0.286234  0.007021  3.259871  0.008
N  N112  1  0.44505194  0.52412633  0.32394728  1  -0.708246  -0.078894  -0.270059  -0.263897  -0.05606  3.598725  -0.069
N  N113  1  0.94503089  0.47581859  0.17608032  1  -0.709311  -0.078869  -0.269782  -0.263954  -0.056036  3.598384  -0.069
N  N114  1  0.55504788  0.47587865  0.67605335  1  -0.708358  0.078893  -0.269817  -0.264313  0.056062  3.598688  0.069
N  N115  1  0.05499318  0.52417416  0.82390103  1  -0.709398  0.078847  -0.269815  -0.264196  0.056018  3.598261  0.069
N  N116  1  0.73115408  0.36531120  0.45148481  1  -1.244216  -0.076771  -0.329852  -0.26442  -0.053571  3.55943  -0.066
N  N117  1  0.23113403  0.63466115  0.04854530  1  -1.245488  -0.076789  -0.329937  -0.264311  -0.053576  3.559293  -0.066
N  N118  1  0.26890955  0.63467972  0.54847667  1  -1.245112  0.076813  -0.329803  -0.264179  0.053599  3.559072  0.067
N  N119  1  0.76888325  0.36533351  0.95146910  1  -1.245162  0.076815  -0.329863  -0.26399  0.053596  3.558988  0.067
N  N120  1  0.60847974  0.07916068  0.30714036  1  -1.195365  -0.009907  -0.287147  -0.276713  -0.006749  3.270391  -0.008
N  N121  1  0.10852304  0.92080069  0.19287103  1  -1.194654  -0.009896  -0.28709  -0.276689  -0.006741  3.270547  -0.008
N  N122  1  0.39150927  0.92082953  0.69285206  1  -1.195225  0.009899  -0.287096  -0.276498  0.006743  3.270265  0.008
N  N123  1  0.89147275  0.07917762  0.80716517  1  -1.196366  0.009887  -0.286933  -0.276284  0.006735  3.270411  0.008
N  N124  1  0.33650444  0.47838469  0.25698510  1  -0.162824  -0.003947  -0.107827  -0.091301  -0.003019  3.274626  -0.003
N  N125  1  0.83648405  0.52153566  0.24305199  1  -0.162126  -0.003932  -0.107341  -0.090552  -0.003009  3.274255  -0.003
N  N126  1  0.66358519  0.52159527  0.74303426  1  -0.162882  0.003946  -0.107539  -0.090688  0.003017  3.274345  0.003
N  N127  1  0.16356489  0.47848314  0.75694137  1  -0.161991  0.003933  -0.107337  -0.090463  0.003009  3.274612  0.003
N  N128  1  0.28013257  0.56358693  0.23033094  1  -0.18205  -0.006204  -0.117277  -0.094368  -0.004379  3.515178  -0.007
N  N129  1  0.78005122  0.43629895  0.26966301  1  -0.185132  -0.006189  -0.117784  -0.094518  -0.004368  3.51628  -0.007
N  N130  1  0.71987114  0.43638362  0.76971073  1  -0.181629  0.006201  -0.11748  -0.094372  0.004377  3.515655  0.007
N  N131  1  0.21994118  0.56370418  0.73031566  1  -0.18474  0.006173  -0.11782  -0.094557  0.004357  3.516271  0.007
N  N132  1  0.34835045  0.66480025  0.27791054  1  -0.661633  -0.005803  -0.241514  -0.296655  -0.004046  3.191881  -0.005
N  N133  1  0.84822835  0.33510044  0.22204800  1  -0.658575  -0.005811  -0.241665  -0.297355  -0.004052  3.192302  -0.005
N  N134  1  0.65161821  0.33519109  0.72213132  1  -0.661378  0.005795  -0.241752  -0.297101  0.004039  3.192298  0.005
N  N135  1  0.15173579  0.66489208  0.77789177  1  -0.658717  0.005801  -0.241685  -0.297416  0.004045  3.192571  0.005
O  O136  1  0.63632082  0.58832067  0.48433176  1  -1.097261  -0.150868  -0.342135  -0.529918  -0.100114  2.452731  -0.135
O  O137  1  0.13599436  0.41167918  0.01555483  1  -1.097073  -0.15088  -0.342641  -0.530632  -0.10013  2.452203  -0.135
O  O138  1  0.36380387  0.41173199  0.51567366  1  -1.097707  0.150858  -0.342666  -0.530544  0.100113  2.452913  0.135
O  O139  1  0.86398787  0.58829791  0.98441461  1  -1.097324  0.150987  -0.342697  -0.530661  0.100199  2.451779  0.135
