# generated using pymatgen
data_SnH16C19S2N3O4
_symmetry_space_group_name_H-M   'P 1'
_cell_length_a   11.20586638
_cell_length_b   11.65233861
_cell_length_c   19.78828936
_cell_angle_alpha   90.00021816
_cell_angle_beta   90.00027131
_cell_angle_gamma   95.96791506
_symmetry_Int_Tables_number   1
_chemical_formula_structural   SnH16C19S2N3O4
_chemical_formula_sum   'Sn4 H64 C76 S8 N12 O16'
_cell_volume   2569.84322558
_cell_formula_units_Z   4
loop_
 _symmetry_equiv_pos_site_id
 _symmetry_equiv_pos_as_xyz
  1  'x, y, z'
loop_
 _atom_site_type_symbol
 _atom_site_label
 _atom_site_symmetry_multiplicity
 _atom_site_fract_x
 _atom_site_fract_y
 _atom_site_fract_z
 _atom_site_occupancy
 _atom_site_pbe_bader_charge
 _atom_site_pbe_bader_spin_density
 _atom_site_pbe_cm5_charge
 _atom_site_pbe_ddec_charge
 _atom_site_pbe_ddec_spin_density
 _atom_site_pbe_ddec_sum_bond_order
 _atom_site_pbe_magmom
Sn  Sn0  1  0.58224570  0.28337637  0.03517342  1  1.862416  0  0.601891  1.242036  0  3.38447  0
Sn  Sn1  1  0.91774689  0.71662620  0.53517362  1  1.862468  0  0.601855  1.241959  0  3.384283  0
Sn  Sn2  1  0.41775033  0.71662391  0.96482555  1  1.86248  0  0.601841  1.241931  0  3.384319  0
Sn  Sn3  1  0.08224831  0.28337492  0.46482181  1  1.862329  0  0.601899  1.241958  0  3.384531  0
H  H4  1  0.14942773  0.96185258  0.35842843  1  0.107406  0  0.113193  0.086781  0  1.008849  0
H  H5  1  0.35056378  0.03813585  0.85842692  1  0.108114  0  0.113206  0.086798  0  1.008823  0
H  H6  1  0.85056936  0.03813911  0.64157155  1  0.108088  0  0.113194  0.0868  0  1.008786  0
H  H7  1  0.64943131  0.96185322  0.14157003  1  0.107439  0  0.113195  0.086788  0  1.008908  0
H  H8  1  0.30300182  0.67662625  0.45009364  1  0.11201  0  0.115823  0.121782  0  0.976139  0
H  H9  1  0.19701002  0.32337191  0.95009387  1  0.11196  0  0.11581  0.121848  0  0.976083  0
H  H10  1  0.69700636  0.32337001  0.54990432  1  0.112014  0  0.115819  0.121856  0  0.976041  0
H  H11  1  0.80300331  0.67662188  0.04990762  1  0.111992  0  0.115827  0.12176  0  0.976105  0
H  H12  1  0.49750270  0.74199373  0.39006958  1  0.092852  0  0.100112  0.113482  0  1.022219  0
H  H13  1  0.00250507  0.25801510  0.89006915  1  0.092923  0  0.100131  0.11355  0  1.022161  0
H  H14  1  0.50250063  0.25800844  0.60992585  1  0.092902  0  0.100126  0.113573  0  1.022136  0
H  H15  1  0.99750584  0.74199240  0.10993134  1  0.092857  0  0.100112  0.113494  0  1.022173  0
H  H16  1  0.81170083  0.52392545  0.21838590  1  0.102125  0  0.115402  0.088152  0  0.98774  0
H  H17  1  0.68829707  0.47607942  0.71838443  1  0.102019  0  0.115348  0.088067  0  0.987754  0
H  H18  1  0.18829788  0.47607489  0.78161914  1  0.102046  0  0.115368  0.088142  0  0.987691  0
H  H19  1  0.31169906  0.52393292  0.28161959  1  0.102347  0  0.115412  0.088222  0  0.987697  0
H  H20  1  0.45171095  0.58308411  0.16231797  1  0.127619  0  0.115912  0.121295  0  1.001892  0
H  H21  1  0.04828826  0.41692031  0.66232257  1  0.127725  0  0.115891  0.121239  0  1.001951  0
H  H22  1  0.54829215  0.41691547  0.83767796  1  0.12768  0  0.115916  0.121301  0  1.00191  0
H  H23  1  0.95170558  0.58308594  0.33768196  1  0.127718  0  0.115915  0.121304  0  1.001779  0
H  H24  1  0.46875279  0.75431527  0.23775624  1  0.114479  0  0.097855  0.107775  0  1.071144  0
H  H25  1  0.03124532  0.24568967  0.73775990  1  0.11459  0  0.09784  0.107804  0  1.071215  0
H  H26  1  0.53124770  0.24568511  0.76223869  1  0.114494  0  0.09782  0.107808  0  1.071132  0
H  H27  1  0.96874895  0.75432176  0.26224665  1  0.114474  0  0.097824  0.10773  0  1.071091  0
H  H28  1  0.76510870  0.42440888  0.98458283  1  0.060909  0  0.085465  0.170721  0  1.032902  0
H  H29  1  0.73488651  0.57559008  0.48459027  1  0.061098  0  0.085483  0.170696  0  1.032902  0
H  H30  1  0.23488457  0.57559048  0.01540705  1  0.061362  0  0.085468  0.170636  0  1.032874  0
H  H31  1  0.26510676  0.42440927  0.51541376  1  0.061217  0  0.085457  0.170704  0  1.032877  0
H  H32  1  0.62517402  0.46658622  0.95297359  1  0.113216  0  0.095396  0.197479  0  1.036317  0
H  H33  1  0.87481861  0.53340643  0.45297676  1  0.113572  0  0.095422  0.197483  0  1.036321  0
H  H34  1  0.37481488  0.53340357  0.04702286  1  0.113594  0  0.095365  0.197447  0  1.036393  0
H  H35  1  0.12517451  0.46659120  0.54702473  1  0.113282  0  0.095392  0.197434  0  1.036353  0
H  H36  1  0.68898639  0.34434749  0.91675717  1  0.040249  0  0.082904  0.166799  0  1.059229  0
H  H37  1  0.81100938  0.65565445  0.41676196  1  0.040148  0  0.082858  0.166756  0  1.059321  0
H  H38  1  0.31100502  0.65565097  0.08323726  1  0.040181  0  0.082818  0.166702  0  1.059298  0
H  H39  1  0.18898335  0.34434920  0.58324004  1  0.040156  0  0.082868  0.166751  0  1.059321  0
H  H40  1  0.86222804  0.27159042  0.08537823  1  0.131585  0  0.125679  0.105159  0  0.991144  0
H  H41  1  0.63776786  0.72840398  0.58537365  1  0.131571  0  0.125668  0.105111  0  0.991165  0
H  H42  1  0.13776627  0.72841068  0.91462529  1  0.13165  0  0.125698  0.105168  0  0.991094  0
H  H43  1  0.36223564  0.27158958  0.41462178  1  0.131729  0  0.125694  0.105196  0  0.991111  0
H  H44  1  0.03955772  0.16321180  0.07217626  1  0.07458  0  0.111621  0.116822  0  1.002708  0
H  H45  1  0.46043534  0.83678151  0.57217027  1  0.07458  0  0.111626  0.116777  0  1.002761  0
H  H46  1  0.96043273  0.83678577  0.92782777  1  0.074736  0  0.111645  0.11678  0  1.002799  0
H  H47  1  0.53956622  0.16321029  0.42782566  1  0.074524  0  0.11162  0.116737  0  1.002866  0
H  H48  1  0.82178319  0.92603329  0.94237719  1  0.085871  0  0.109548  0.114882  0  1.010315  0
H  H49  1  0.67821647  0.07396978  0.44237981  1  0.085808  0  0.109474  0.114836  0  1.010228  0
H  H50  1  0.17821238  0.07397215  0.05762481  1  0.085782  0  0.109535  0.114889  0  1.010291  0
H  H51  1  0.32178403  0.92603061  0.55762269  1  0.085834  0  0.109535  0.114905  0  1.010238  0
H  H52  1  0.65591353  0.04700121  0.96006877  1  0.126674  0  0.123242  0.102548  0  1.004392  0
H  H53  1  0.84408643  0.95300372  0.46007381  1  0.12661  0  0.123266  0.102579  0  1.004352  0
H  H54  1  0.34408225  0.95300682  0.03993121  1  0.126721  0  0.123237  0.102611  0  1.004345  0
H  H55  1  0.15591689  0.04699845  0.53992970  1  0.126568  0  0.123256  0.102617  0  1.004294  0
H  H56  1  0.51299044  0.06836011  0.08264965  1  0.047325  0  0.085754  0.172611  0  1.065493  0
H  H57  1  0.98701921  0.93163889  0.58264294  1  0.047266  0  0.085769  0.172608  0  1.065463  0
H  H58  1  0.48701424  0.93163692  0.91735488  1  0.047324  0  0.085754  0.172627  0  1.065446  0
H  H59  1  0.01299127  0.06836344  0.41734693  1  0.04729  0  0.085789  0.172644  0  1.065534  0
H  H60  1  0.42805376  0.17244774  0.12316756  1  0.04553  0  0.089899  0.180874  0  1.017314  0
H  H61  1  0.07195837  0.82755498  0.62316505  1  0.045355  0  0.089882  0.180857  0  1.017338  0
H  H62  1  0.57195389  0.82755281  0.87683242  1  0.045401  0  0.089903  0.180911  0  1.017279  0
H  H63  1  0.92805479  0.17244741  0.37682583  1  0.045585  0  0.089907  0.180902  0  1.017316  0
H  H64  1  0.57915595  0.15844389  0.14929987  1  0.049033  0  0.090394  0.179962  0  1.023559  0
H  H65  1  0.92085689  0.84156514  0.64929732  1  0.049043  0  0.090403  0.179981  0  1.023492  0
H  H66  1  0.42084902  0.84155660  0.85070314  1  0.049146  0  0.090408  0.180005  0  1.02357  0
H  H67  1  0.07915899  0.15844851  0.35069811  1  0.048934  0  0.090416  0.179992  0  1.023473  0
C  C68  1  0.22566799  0.91250046  0.36686528  1  0.498081  0  0.053956  0.095147  0  3.948732  0
C  C69  1  0.27433036  0.08749422  0.86686469  1  0.498229  0  0.05396  0.095092  0  3.94855  0
C  C70  1  0.77433200  0.08749389  0.63313470  1  0.498161  0  0.053957  0.095142  0  3.948698  0
C  C71  1  0.72566970  0.91250099  0.13313580  1  0.498099  0  0.053968  0.09517  0  3.94868  0
C  C72  1  0.21320574  0.81614644  0.40963035  1  0.037163  0  -0.021419  -0.097727  0  4.001006  0
C  C73  1  0.28679718  0.18384520  0.90963354  1  0.036143  0  -0.021395  -0.097542  0  4.000995  0
C  C74  1  0.78679782  0.18384799  0.59036963  1  0.03665  0  -0.021355  -0.097583  0  4.001022  0
C  C75  1  0.71320900  0.81614842  0.09036897  1  -0.034302  0  -0.02147  -0.097877  0  4.000995  0
C  C76  1  0.31171457  0.75258143  0.41760988  1  -0.063267  0  -0.063186  -0.033674  0  3.943349  0
C  C77  1  0.18829169  0.24741723  0.91760891  1  -0.063095  0  -0.063131  -0.033735  0  3.943333  0
C  C78  1  0.68828915  0.24741472  0.58239010  1  -0.06314  0  -0.063219  -0.033872  0  3.943496  0
C  C79  1  0.81171628  0.75257644  0.08239360  1  0.008284  0  -0.063177  -0.033521  0  3.943179  0
C  C80  1  0.41862362  0.78848218  0.38485635  1  -0.008627  0  -0.095615  -0.180599  0  3.995632  0
C  C81  1  0.08138062  0.21151706  0.88485551  1  -0.008678  0  -0.095686  -0.180724  0  3.995655  0
C  C82  1  0.58137941  0.21151654  0.61514212  1  -0.008691  0  -0.095677  -0.180739  0  3.995753  0
C  C83  1  0.91862800  0.78848436  0.11514498  1  -0.008165  0  -0.095654  -0.180691  0  3.995606  0
C  C84  1  0.42220225  0.88864703  0.34555089  1  0.412826  0  0.113979  0.189877  0  4.061484  0
C  C85  1  0.07779723  0.11135268  0.84554982  1  0.412785  0  0.114011  0.189858  0  4.0613  0
C  C86  1  0.57779817  0.11135249  0.65444808  1  0.412819  0  0.113943  0.18989  0  4.061337  0
C  C87  1  0.92220512  0.88864860  0.15444814  1  0.412716  0  0.114022  0.189884  0  4.061404  0
C  C88  1  0.65262183  0.72925813  0.26650074  1  0.378214  0  0.114928  0.190148  0  4.050087  0
C  C89  1  0.84737577  0.27074880  0.76650429  1  0.377313  0  0.114853  0.19017  0  4.049925  0
C  C90  1  0.34737449  0.27074560  0.73349672  1  0.378277  0  0.11488  0.190279  0  4.049809  0
C  C91  1  0.15262066  0.72926699  0.23350277  1  0.37842  0  0.114997  0.190301  0  4.049706  0
C  C92  1  0.73472728  0.57394447  0.22186771  1  0.523758  0  0.056134  0.093977  0  3.946815  0
C  C93  1  0.76526976  0.42606040  0.72186987  1  0.523709  0  0.056148  0.094003  0  3.946643  0
C  C94  1  0.26526963  0.42605583  0.77813379  1  0.524015  0  0.056155  0.093906  0  3.946832  0
C  C95  1  0.23472728  0.57395195  0.27813567  1  0.523869  0  0.05605  0.093792  0  3.946839  0
C  C96  1  0.63161101  0.54195466  0.18353223  1  -0.032278  0  -0.019938  -0.097776  0  3.991501  0
C  C97  1  0.86838643  0.45804823  0.68353525  1  -0.032511  0  -0.01991  -0.097769  0  3.991614  0
C  C98  1  0.36838666  0.45804394  0.81646876  1  -0.032139  0  -0.019928  -0.097756  0  3.991622  0
C  C99  1  0.13160845  0.54195977  0.31646978  1  -0.032279  0  -0.019968  -0.097898  0  3.991591  0
C  C100  1  0.53399794  0.60706155  0.19047365  1  -0.017142  0  -0.058707  -0.024754  0  3.920343  0
C  C101  1  0.96599875  0.39294223  0.69047578  1  -0.017082  0  -0.058741  -0.024587  0  3.920356  0
C  C102  1  0.46599973  0.39293705  0.80952633  1  -0.01724  0  -0.058708  -0.024673  0  3.920381  0
C  C103  1  0.03399821  0.60706926  0.30952976  1  -0.017293  0  -0.058623  -0.024627  0  3.920191  0
C  C104  1  0.54373674  0.70282411  0.23244405  1  0.011717  0  -0.094602  -0.183132  0  3.993501  0
C  C105  1  0.95625943  0.29717996  0.73244594  1  0.011874  0  -0.094532  -0.183266  0  3.993617  0
C  C106  1  0.45626107  0.29717621  0.76755492  1  0.011724  0  -0.09457  -0.183342  0  3.993513  0
C  C107  1  0.04373359  0.70282714  0.26755758  1  0.011806  0  -0.094621  -0.183147  0  3.993232  0
C  C108  1  0.62586368  0.44481018  0.13473507  1  1.551183  0  0.21404  0.557956  0  4.205688  0
C  C109  1  0.87413571  0.55518896  0.63473732  1  1.552317  0  0.214002  0.557927  0  4.205723  0
C  C110  1  0.37413935  0.55518854  0.86526491  1  1.551797  0  0.213963  0.557994  0  4.205802  0
C  C111  1  0.12585942  0.44481130  0.36526519  1  1.551232  0  0.214018  0.557986  0  4.205806  0
C  C112  1  0.10111578  0.78567975  0.44848597  1  1.521999  0  0.21106  0.550066  0  4.219539  0
C  C113  1  0.39889086  0.21430967  0.94848448  1  1.521979  0  0.210869  0.549621  0  4.2195  0
C  C114  1  0.89888965  0.21431558  0.55151603  1  1.521526  0  0.210987  0.54991  0  4.219317  0
C  C115  1  0.60111474  0.78567706  0.05151550  1  1.521408  0  0.21107  0.550052  0  4.219734  0
C  C116  1  0.67752697  0.39402956  0.96291885  1  -0.452652  0  -0.323962  -0.729533  0  3.718558  0
C  C117  1  0.82246961  0.60596669  0.46292306  1  -0.453101  0  -0.323942  -0.729446  0  3.718685  0
C  C118  1  0.32246855  0.60596468  0.03707506  1  -0.453403  0  -0.323828  -0.729281  0  3.718628  0
C  C119  1  0.17752351  0.39403094  0.53707793  1  -0.452847  0  -0.323917  -0.729394  0  3.718626  0
C  C120  1  0.85860180  0.19502203  0.05344511  1  0.466993  0  0.056687  0.095921  0  3.933726  0
C  C121  1  0.64139768  0.80497567  0.55344274  1  0.46703  0  0.056656  0.095975  0  3.933603  0
C  C122  1  0.14139534  0.80498086  0.94655841  1  0.467042  0  0.056619  0.095872  0  3.933677  0
C  C123  1  0.35860589  0.19501876  0.44655472  1  0.466923  0  0.056634  0.095819  0  3.933658  0
C  C124  1  0.95714924  0.13326506  0.04567340  1  -0.026392  0  -0.077802  -0.161726  0  3.941599  0
C  C125  1  0.54284824  0.86673082  0.54566939  1  -0.026585  0  -0.07777  -0.161702  0  3.941524  0
C  C126  1  0.04284582  0.86673434  0.95432860  1  -0.026844  0  -0.077771  -0.161645  0  3.941544  0
C  C127  1  0.45715347  0.13326270  0.45432655  1  -0.026412  0  -0.077743  -0.161534  0  3.941619  0
C  C128  1  0.94847543  0.03391589  0.00496334  1  0.0821  0  0.012693  0.101126  0  3.964481  0
C  C129  1  0.55152450  0.96608148  0.50496210  1  0.082261  0  0.012642  0.101081  0  3.964561  0
C  C130  1  0.05152238  0.96608444  0.99503714  1  0.038848  0  0.012657  0.101175  0  3.964438  0
C  C131  1  0.44847743  0.03391463  0.49503687  1  0.038673  0  0.012687  0.101128  0  3.964483  0
C  C132  1  0.83703397  0.00214746  0.97425614  1  -0.093646  0  -0.080641  -0.174101  0  3.964992  0
C  C133  1  0.66296561  0.99785152  0.47425726  1  -0.093595  0  -0.080518  -0.173934  0  3.964844  0
C  C134  1  0.16296048  0.99785536  0.02574485  1  -0.093656  0  -0.080674  -0.174246  0  3.965063  0
C  C135  1  0.33703549  0.00214543  0.52574322  1  -0.093689  0  -0.080643  -0.174146  0  3.965001  0
C  C136  1  0.74282170  0.06913156  0.98402803  1  0.512625  0  0.053639  0.087617  0  3.95865  0
C  C137  1  0.75717729  0.93087007  0.48403027  1  0.512712  0  0.053554  0.087502  0  3.958637  0
C  C138  1  0.25717497  0.93087648  0.01597246  1  0.512567  0  0.053609  0.087518  0  3.958816  0
C  C139  1  0.24282567  0.06912779  0.51597022  1  0.512792  0  0.053578  0.087518  0  3.95873  0
C  C140  1  0.51711384  0.15364093  0.10633700  1  -0.400283  0  -0.325515  -0.736415  0  3.732653  0
C  C141  1  0.98290011  0.84636437  0.60633564  1  -0.400075  0  -0.325462  -0.736319  0  3.732473  0
C  C142  1  0.48289567  0.84636052  0.89366349  1  -0.400268  0  -0.325475  -0.73644  0  3.732591  0
C  C143  1  0.01711520  0.15364238  0.39365929  1  -0.400263  0  -0.325539  -0.736464  0  3.732714  0
S  S144  1  0.55131870  0.95183195  0.30170500  1  0.078165  0  0.055106  0.004489  0  2.744843  0
S  S145  1  0.94867996  0.04817353  0.80170479  1  0.078256  0  0.05509  0.0045  0  2.744846  0
S  S146  1  0.44867836  0.04817007  0.69829144  1  0.078307  0  0.055116  0.004478  0  2.744856  0
S  S147  1  0.05131947  0.95183544  0.19829418  1  0.078081  0  0.055077  0.004471  0  2.744855  0
S  S148  1  0.68324365  0.84898659  0.32182909  1  0.076473  0  0.054698  0.00836  0  2.788792  0
S  S149  1  0.81675549  0.15102249  0.82183027  1  0.076347  0  0.054725  0.00836  0  2.788869  0
S  S150  1  0.31675363  0.15101802  0.67816786  1  0.076372  0  0.054723  0.008355  0  2.788796  0
S  S151  1  0.18324416  0.84898907  0.17817325  1  0.076528  0  0.05471  0.008352  0  2.788761  0
N  N152  1  0.32838279  0.94920505  0.33563689  1  -1.198552  0  -0.329883  -0.311549  0  3.347412  0
N  N153  1  0.17161631  0.05079114  0.83563543  1  -1.198625  0  -0.329922  -0.311517  0  3.347158  0
N  N154  1  0.67161852  0.05079449  0.66436259  1  -1.198593  0  -0.329832  -0.311507  0  3.347281  0
N  N155  1  0.82838397  0.94920666  0.16436404  1  -1.198546  0  -0.329851  -0.311489  0  3.347166  0
N  N156  1  0.74562955  0.66582477  0.26289613  1  -1.21252  0  -0.317436  -0.287189  0  3.330076  0
N  N157  1  0.75436400  0.33417688  0.76289553  1  -1.211675  0  -0.317356  -0.287122  0  3.329751  0
N  N158  1  0.25436454  0.33417375  0.73710789  1  -1.212744  0  -0.317397  -0.287144  0  3.330039  0
N  N159  1  0.24562938  0.66583453  0.23710950  1  -1.212989  0  -0.317459  -0.287194  0  3.33008  0
N  N160  1  0.75304245  0.16416456  0.02277123  1  -1.254328  0  -0.287907  -0.231357  0  3.459496  0
N  N161  1  0.74695593  0.83583376  0.52277124  1  -1.254382  0  -0.287849  -0.231329  0  3.459445  0
N  N162  1  0.24695408  0.83584176  0.97723026  1  -1.254111  0  -0.287793  -0.231206  0  3.459498  0
N  N163  1  0.25304861  0.16416155  0.47722925  1  -1.254155  0  -0.287832  -0.231292  0  3.459507  0
O  O164  1  0.71386864  0.38612353  0.12579600  1  -1.182597  0  -0.30377  -0.556955  0  2.124255  0
O  O165  1  0.78613214  0.61388246  0.62580117  1  -1.182613  0  -0.303797  -0.557001  0  2.124209  0
O  O166  1  0.28613289  0.61387859  0.87420095  1  -1.182578  0  -0.303776  -0.557013  0  2.124202  0
O  O167  1  0.21386804  0.38612480  0.37420083  1  -1.182502  0  -0.303812  -0.556972  0  2.124203  0
O  O168  1  0.52775584  0.42430673  0.10057734  1  -1.156603  0  -0.278318  -0.505593  0  2.208927  0
O  O169  1  0.97224041  0.57569037  0.60058040  1  -1.157646  0  -0.278266  -0.505543  0  2.20886  0
O  O170  1  0.47224436  0.57569020  0.89942112  1  -1.157396  0  -0.278251  -0.505581  0  2.208974  0
O  O171  1  0.02775547  0.42430818  0.39942210  1  -1.156813  0  -0.27823  -0.505522  0  2.209026  0
O  O172  1  0.09976765  0.70082337  0.49039349  1  -1.153838  0  -0.282322  -0.50922  0  2.184053  0
O  O173  1  0.40023833  0.29916461  0.99039523  1  -1.153553  0  -0.282229  -0.509045  0  2.183998  0
O  O174  1  0.90023630  0.29916504  0.50960396  1  -1.153605  0  -0.282279  -0.509099  0  2.184035  0
O  O175  1  0.59976616  0.70081950  0.00960576  1  -1.153776  0  -0.282332  -0.509201  0  2.184088  0
O  O176  1  0.01156568  0.84353461  0.44238130  1  -1.170828  0  -0.296035  -0.542631  0  2.144217  0
O  O177  1  0.48844276  0.15645567  0.94238042  1  -1.170925  0  -0.29591  -0.542398  0  2.144138  0
O  O178  1  0.98843871  0.15645897  0.55761818  1  -1.170898  0  -0.296024  -0.542607  0  2.144077  0
O  O179  1  0.51156552  0.84353112  0.05762208  1  -1.170757  0  -0.296006  -0.542583  0  2.144295  0
