# generated using pymatgen
data_ZnH21C22N7O4
_symmetry_space_group_name_H-M   'P 1'
_cell_length_a   23.08954397
_cell_length_b   24.09702744
_cell_length_c   24.30296369
_cell_angle_alpha   94.49465913
_cell_angle_beta   115.67507747
_cell_angle_gamma   116.17172260
_symmetry_Int_Tables_number   1
_chemical_formula_structural   ZnH21C22N7O4
_chemical_formula_sum   'Zn4 H84 C88 N28 O16'
_cell_volume   10312.62315562
_cell_formula_units_Z   4
loop_
 _symmetry_equiv_pos_site_id
 _symmetry_equiv_pos_as_xyz
  1  'x, y, z'
loop_
 _atom_site_type_symbol
 _atom_site_label
 _atom_site_symmetry_multiplicity
 _atom_site_fract_x
 _atom_site_fract_y
 _atom_site_fract_z
 _atom_site_occupancy
 _atom_site_pbe_bader_charge
 _atom_site_pbe_bader_spin_density
 _atom_site_pbe_cm5_charge
 _atom_site_pbe_ddec_charge
 _atom_site_pbe_ddec_spin_density
 _atom_site_pbe_ddec_sum_bond_order
 _atom_site_pbe_magmom
Zn  Zn0  1  0.49922395  0.04189298  0.54489685  1  1.28958  0  0.670696  0.832168  0  2.364093  0
Zn  Zn1  1  0.50480620  0.96033525  0.45639079  1  1.294715  0  0.670113  0.830983  0  2.361559  0
Zn  Zn2  1  0.49985996  0.45990772  0.95359961  1  1.297104  0  0.669728  0.82677  0  2.397746  0
Zn  Zn3  1  0.50296160  0.54118551  0.04779231  1  1.292475  0  0.669342  0.823725  0  2.404292  0
H  H4  1  0.42837247  0.32114981  0.89067337  1  0.094112  0  0.120498  0.098319  0  0.98753  0
H  H5  1  0.43213599  0.24633421  0.81784699  1  0.024248  0  0.102638  0.111777  0  1.014614  0
H  H6  1  0.39966526  0.08760510  0.68742524  1  0.064494  0  0.100248  0.120604  0  1.012881  0
H  H7  1  0.56833698  0.26099316  0.68283036  1  0.072335  0  0.095536  0.113336  0  1.031447  0
H  H8  1  0.56775249  0.30997083  0.75546142  1  0.023652  0  0.097738  0.082782  0  1.036538  0
H  H9  1  0.42964889  0.19123756  0.74235945  1  0.064828  0  0.102901  0.101129  0  0.999704  0
H  H10  1  0.57604691  0.67967492  0.11330615  1  0.126396  0  0.122899  0.103354  0  0.984371  0
H  H11  1  0.56503222  0.75346674  0.17978954  1  0.03169  0  0.104382  0.113828  0  1.010932  0
H  H12  1  0.59783997  0.91156697  0.30912152  1  0.052729  0  0.100822  0.120711  0  1.013497  0
H  H13  1  0.41923866  0.74009846  0.30609702  1  0.026255  0  0.095174  0.11297  0  1.032774  0
H  H14  1  0.43800842  0.68889602  0.25069331  1  0.030562  0  0.098256  0.083676  0  1.036896  0
H  H15  1  0.55179142  0.80923280  0.23986025  1  0.050514  0  0.102422  0.100189  0  1.00259  0
H  H16  1  0.49635745  0.42907530  0.17372053  1  0.09466  0  0.094422  0.102051  0  1.024505  0
H  H17  1  0.49380105  0.35723148  0.24072096  1  0.040003  0  0.093305  0.096096  0  1.021337  0
H  H18  1  0.48438123  0.26079552  0.37993964  1  0.027322  0  0.090284  0.100273  0  1.026709  0
H  H19  1  0.49966073  0.14039087  0.25250511  1  0.000911  0  0.087896  0.096305  0  1.041171  0
H  H20  1  0.50831862  0.20814962  0.20897217  1  -0.005666  0  0.094007  0.078458  0  1.046715  0
H  H21  1  0.48013044  0.28681974  0.28832012  1  0.039638  0  0.096821  0.094626  0  1.010319  0
H  H22  1  0.50737235  0.57387530  0.82752714  1  0.051286  0  0.094081  0.098165  0  1.026938  0
H  H23  1  0.50402778  0.64373191  0.75874347  1  0.030906  0  0.093188  0.095506  0  1.022034  0
H  H24  1  0.50404421  0.73797423  0.61619433  1  0.026054  0  0.090695  0.100199  0  1.024619  0
H  H25  1  0.49602314  0.85974009  0.74899553  1  0.008262  0  0.087871  0.097091  0  1.042901  0
H  H26  1  0.50246862  0.79880931  0.79856336  1  0.012329  0  0.093639  0.078302  0  1.047579  0
H  H27  1  0.49481149  0.70373366  0.70090008  1  0.042378  0  0.096905  0.095178  0  1.009933  0
H  H28  1  0.73902301  0.67393530  0.17544829  1  0.07103  0  0.098255  0.108008  0  1.011853  0
H  H29  1  0.87883104  0.74037382  0.24296284  1  0.035584  0  0.093849  0.096448  0  1.019494  0
H  H30  1  0.11195855  0.87801386  0.38512120  1  0.024628  0  0.091509  0.101424  0  1.022805  0
H  H31  1  0.11940350  0.75549987  0.25247410  1  0.03857  0  0.087408  0.09668  0  1.042  0
H  H32  1  0.00702640  0.71060981  0.20319952  1  -0.010939  0  0.093177  0.077491  0  1.047244  0
H  H33  1  0.99709573  0.78782218  0.30119201  1  0.044816  0  0.09711  0.095878  0  1.009978  0
H  H34  1  0.26461232  0.32976909  0.82449519  1  0.075341  0  0.0985  0.107878  0  1.011453  0
H  H35  1  0.12488999  0.25925674  0.75974694  1  0.028687  0  0.09386  0.096806  0  1.020742  0
H  H36  1  0.89459202  0.11569732  0.62183310  1  0.020572  0  0.090792  0.101669  0  1.024025  0
H  H37  1  0.88204961  0.23915944  0.74890971  1  0.003749  0  0.087446  0.095964  0  1.042506  0
H  H38  1  0.99505679  0.29299459  0.79273316  1  -0.001524  0  0.092911  0.077003  0  1.046912  0
H  H39  1  0.00774513  0.19884038  0.71336953  1  0.029616  0  0.096947  0.094855  0  1.011034  0
H  H40  1  0.56899712  0.52459275  0.89500125  1  0.514668  0  0.303418  0.323186  0  0.981543  0
H  H41  1  0.60058810  0.51610270  0.84417029  1  0.453708  0  0.310914  0.299332  0  0.949074  0
H  H42  1  0.62064271  0.40192579  0.78191840  1  0.40786  0  0.300472  0.288731  0  0.967723  0
H  H43  1  0.65799870  0.47027396  0.84077303  1  0.429389  0  0.306461  0.292477  0  0.951251  0
H  H44  1  0.57634834  0.16678773  0.56758926  1  0.505741  0  0.306645  0.318303  0  0.976649  0
H  H45  1  0.61095727  0.24269385  0.61571496  1  0.426725  0  0.316469  0.311552  0  0.922572  0
H  H46  1  0.41789714  0.98002922  0.59231196  1  0.517267  0  0.306892  0.318739  0  0.976312  0
H  H47  1  0.37482113  0.98628944  0.63268835  1  0.439782  0  0.318159  0.314192  0  0.920025  0
H  H48  1  0.42715017  0.47465094  0.10051632  1  0.502015  0  0.303479  0.323438  0  0.977898  0
H  H49  1  0.35841222  0.47626839  0.11119279  1  0.458386  0  0.311937  0.303389  0  0.941406  0
H  H50  1  0.38417557  0.59704934  0.22273716  1  0.428051  0  0.301563  0.29026  0  0.966101  0
H  H51  1  0.38650152  0.53040270  0.20081405  1  0.437841  0  0.30455  0.290223  0  0.95966  0
H  H52  1  0.40103741  0.83704389  0.40987354  1  0.506425  0  0.305322  0.316636  0  0.977701  0
H  H53  1  0.37026058  0.76069092  0.36654686  1  0.439854  0  0.314041  0.3084  0  0.92609  0
H  H54  1  0.61319984  0.01946653  0.43417172  1  0.495557  0  0.308259  0.320734  0  0.974578  0
H  H55  1  0.64503663  0.01290385  0.38329439  1  0.438594  0  0.320928  0.316712  0  0.917731  0
H  H56  1  0.49881155  0.32599037  0.00473790  1  0.486092  0  0.286416  0.293598  0  1.022764  0
H  H57  1  0.47383931  0.24814194  0.00912694  1  0.435233  0  0.294795  0.281586  0  0.969637  0
H  H58  1  0.51303414  0.19564112  0.13680213  1  0.430188  0  0.292595  0.281345  0  0.979438  0
H  H59  1  0.53936377  0.23070087  0.08813198  1  0.414601  0  0.295097  0.280796  0  0.968582  0
H  H60  1  0.50682518  0.03028078  0.34159385  1  0.512493  0  0.290169  0.30482  0  1.022678  0
H  H61  1  0.50235926  0.05052198  0.27230132  1  0.434391  0  0.304205  0.298334  0  0.949362  0
H  H62  1  0.47815028  0.16271799  0.48227141  1  0.492524  0  0.293182  0.300902  0  1.005857  0
H  H63  1  0.46773466  0.22594244  0.45982343  1  0.425201  0  0.301718  0.294131  0  0.950366  0
H  H64  1  0.48911228  0.66717417  0.99020313  1  0.476425  0  0.289075  0.298675  0  1.009286  0
H  H65  1  0.45902723  0.71815813  0.96035807  1  0.409443  0  0.296227  0.283589  0  0.966  0
H  H66  1  0.49984820  0.81141747  0.87180972  1  0.42513  0  0.293162  0.281385  0  0.980777  0
H  H67  1  0.52352634  0.80002502  0.94380118  1  0.409851  0  0.295279  0.279986  0  0.972074  0
H  H68  1  0.51458352  0.98218646  0.67487363  1  0.491483  0  0.292995  0.298845  0  1.006212  0
H  H69  1  0.51541830  0.95843235  0.74054628  1  0.403218  0  0.299849  0.291628  0  0.953367  0
H  H70  1  0.50365842  0.83457699  0.51132367  1  0.519427  0  0.289252  0.30333  0  1.02392  0
H  H71  1  0.50320157  0.76477153  0.52766819  1  0.426291  0  0.304297  0.297095  0  0.948746  0
H  H72  1  0.68748016  0.50919642  0.01546053  1  0.4825  0  0.286666  0.300704  0  1.001819  0
H  H73  1  0.77103944  0.51068037  0.04667311  1  0.429209  0  0.293321  0.280585  0  0.968396  0
H  H74  1  0.95167643  0.63932437  0.13108693  1  0.417456  0  0.292231  0.281299  0  0.980908  0
H  H75  1  0.86962133  0.59110692  0.06036200  1  0.411363  0  0.290999  0.273825  0  0.98275  0
H  H76  1  0.31868469  0.85006330  0.32654818  1  0.467818  0  0.291547  0.297476  0  1.008917  0
H  H77  1  0.23205797  0.78882014  0.26055286  1  0.404074  0  0.299158  0.290994  0  0.95464  0
H  H78  1  0.31353104  0.98198972  0.48924610  1  0.516972  0  0.289798  0.306311  0  1.021674  0
H  H79  1  0.22358685  0.96185375  0.47340239  1  0.429759  0  0.304464  0.297263  0  0.948762  0
H  H80  1  0.31438479  0.48564823  0.99169273  1  0.497107  0  0.285703  0.297155  0  1.01672  0
H  H81  1  0.22902185  0.45447993  0.98880030  1  0.416139  0  0.289391  0.274335  0  0.984241  0
H  H82  1  0.04942151  0.36184952  0.86685912  1  0.426478  0  0.291417  0.280188  0  0.979511  0
H  H83  1  0.12846942  0.43614063  0.91040787  1  0.4081  0  0.294718  0.280432  0  0.968763  0
H  H84  1  0.68036611  0.15575442  0.65957514  1  0.514562  0  0.291166  0.309994  0  1.017791  0
H  H85  1  0.76717702  0.21772321  0.72853768  1  0.413489  0  0.304073  0.298433  0  0.951311  0
H  H86  1  0.69449634  0.00753224  0.51937734  1  0.489511  0  0.292911  0.299452  0  1.006542  0
H  H87  1  0.78420050  0.02385293  0.54141450  1  0.412285  0  0.303176  0.296277  0  0.948116  0
C  C88  1  0.50230536  0.92397337  0.57412105  1  1.477819  0  0.209793  0.615658  0  4.122603  0
C  C89  1  0.35085235  0.92816143  0.42705779  1  1.423872  0  0.209771  0.616596  0  4.120195  0
C  C90  1  0.50123388  0.08307497  0.43226320  1  1.449826  0  0.20875  0.614519  0  4.121174  0
C  C91  1  0.65351022  0.06957420  0.56910032  1  1.444228  0  0.209036  0.614593  0  4.12114  0
C  C92  1  0.65014145  0.56857845  0.07039951  1  1.526506  0  0.212969  0.603131  0  4.142179  0
C  C93  1  0.50480668  0.58587295  0.93630613  1  1.505518  0  0.21693  0.610385  0  4.131954  0
C  C94  1  0.35237921  0.43320001  0.93108428  1  1.54921  0  0.209866  0.600952  0  4.146265  0
C  C95  1  0.49717459  0.41474764  0.06423661  1  1.517818  0  0.215779  0.608626  0  4.133383  0
C  C96  1  0.46406519  0.33998439  0.87032361  1  0.465579  0  0.024868  0.070713  0  4.035452  0
C  C97  1  0.46664161  0.29911373  0.82996483  1  -0.000878  0  -0.111757  -0.217182  0  4.053022  0
C  C98  1  0.51566986  0.32583083  0.80612364  1  0.0213  0  -0.0155  0.03988  0  4.061868  0
C  C99  1  0.55905174  0.39453812  0.82446557  1  0.419616  0  0.089995  0.105295  0  4.009282  0
C  C100  1  0.54876352  0.43349835  0.86263482  1  1.015446  0  0.230979  0.360873  0  4.047128  0
C  C101  1  0.52176131  0.28488046  0.76439342  1  -0.053904  0  -0.087954  -0.107613  0  3.994973  0
C  C102  1  0.47640487  0.21907223  0.73499934  1  -0.022545  0  -0.084897  -0.120815  0  3.948468  0
C  C103  1  0.43921638  0.11170846  0.67167904  1  0.005321  0  -0.129031  -0.35906  0  3.953422  0
C  C104  1  0.48386069  0.18016188  0.69226040  1  -0.069287  0  -0.007413  0.184615  0  4.136489  0
C  C105  1  0.53344643  0.20813359  0.67016606  1  -0.020957  0  -0.135832  -0.365248  0  3.971167  0
C  C106  1  0.53743802  0.16758271  0.62916126  1  0.934096  0  0.21862  0.46365  0  4.109626  0
C  C107  1  0.44547616  0.07331013  0.63045834  1  0.954897  0  0.224201  0.473812  0  4.091054  0
C  C108  1  0.53777150  0.66040151  0.13117896  1  0.40277  0  0.025328  0.066768  0  4.024868  0
C  C109  1  0.53074517  0.70067026  0.16778684  1  0.033341  0  -0.106906  -0.208154  0  4.044211  0
C  C110  1  0.48068550  0.67375900  0.19056270  1  -0.018513  0  -0.015065  0.03782  0  4.055635  0
C  C111  1  0.43866802  0.60496135  0.17318803  1  0.426745  0  0.093511  0.11422  0  4.012033  0
C  C112  1  0.44948644  0.56639266  0.13525197  1  1.069751  0  0.226975  0.354405  0  4.038148  0
C  C113  1  0.47526441  0.71449938  0.23314406  1  -0.14901  0  -0.088745  -0.108914  0  3.993398  0
C  C114  1  0.51321110  0.78081289  0.25527941  1  0.116144  0  -0.084825  -0.120768  0  3.950117  0
C  C115  1  0.55787780  0.88807880  0.32462028  1  0.031796  0  -0.12774  -0.355202  0  3.951077  0
C  C116  1  0.50906371  0.81990099  0.30087284  1  -0.02317  0  -0.00784  0.182785  0  4.137616  0
C  C117  1  0.45932763  0.79267013  0.32301064  1  -0.008493  0  -0.136824  -0.366437  0  3.972096  0
C  C118  1  0.46023691  0.83367654  0.36794138  1  0.92558  0  0.218578  0.465096  0  4.100681  0
C  C119  1  0.55638689  0.92699479  0.36971084  1  0.971542  0  0.223017  0.46877  0  4.100278  0
C  C120  1  0.49853354  0.37088414  0.10371051  1  0.000415  0  -0.040033  -0.15908  0  3.98387  0
C  C121  1  0.49652892  0.38503433  0.16016002  1  -0.086399  0  -0.109221  -0.113675  0  4.092121  0
C  C122  1  0.49511644  0.34476140  0.19738630  1  -0.024254  0  -0.11484  -0.162782  0  4.069511  0
C  C123  1  0.49771725  0.28833905  0.18161375  1  0.012747  0  -0.025564  0.019229  0  4.05599  0
C  C124  1  0.50125486  0.27422441  0.12605094  1  0.352061  0  0.082218  0.139063  0  4.002984  0
C  C125  1  0.50033997  0.31458663  0.08624360  1  0.454297  0  0.094137  0.200223  0  4.029648  0
C  C126  1  0.49877595  0.24659279  0.22151077  1  -0.063507  0  -0.095083  -0.112841  0  4.011004  0
C  C127  1  0.48972761  0.24945013  0.27292095  1  -0.005316  0  -0.093185  -0.129474  0  3.972719  0
C  C128  1  0.48880631  0.21904040  0.36691438  1  -0.002034  0  -0.135063  -0.319761  0  3.989383  0
C  C129  1  0.49209671  0.20615072  0.31146589  1  0.012866  0  -0.017286  0.159925  0  4.144143  0
C  C130  1  0.49792141  0.15249977  0.29572557  1  0.020534  0  -0.139711  -0.323714  0  3.988154  0
C  C131  1  0.50164255  0.11245251  0.33437034  1  0.436903  0  0.105279  0.336486  0  4.104909  0
C  C132  1  0.49898201  0.12543481  0.39191436  1  0.02481  0  -0.051439  -0.29598  0  3.852354  0
C  C133  1  0.49206478  0.18020753  0.40696020  1  0.384147  0  0.100098  0.327831  0  4.087584  0
C  C134  1  0.50325259  0.63019747  0.89734059  1  0.031259  0  -0.038762  -0.156639  0  3.981659  0
C  C135  1  0.50518062  0.61681572  0.84071423  1  -0.016884  0  -0.109273  -0.113971  0  4.098032  0
C  C136  1  0.50255374  0.65561182  0.80211077  1  -0.029679  0  -0.11526  -0.162562  0  4.071251  0
C  C137  1  0.49913569  0.71147252  0.81820936  1  0.036844  0  -0.025298  0.018502  0  4.057278  0
C  C138  1  0.49685318  0.72543709  0.87451599  1  0.374846  0  0.082845  0.14112  0  4.002091  0
C  C139  1  0.49745751  0.68435720  0.91364593  1  0.398248  0  0.095381  0.20028  0  4.027093  0
C  C140  1  0.49963194  0.75447812  0.77958532  1  -0.044968  0  -0.094643  -0.111831  0  4.009748  0
C  C141  1  0.49775990  0.74698477  0.72289144  1  -0.066311  0  -0.093157  -0.130292  0  3.972901  0
C  C142  1  0.50275131  0.78103528  0.63149319  1  -0.013072  0  -0.132468  -0.315134  0  3.978021  0
C  C143  1  0.49975431  0.79298342  0.68711217  1  -0.005675  0  -0.016459  0.159821  0  4.144759  0
C  C144  1  0.49918328  0.84907170  0.70629046  1  0.001012  0  -0.141471  -0.326297  0  4.000261  0
C  C145  1  0.50094220  0.89230234  0.67107791  1  0.395598  0  0.097896  0.323422  0  4.099985  0
C  C146  1  0.50296829  0.88033309  0.61317425  1  -0.004267  0  -0.052224  -0.295254  0  3.854371  0
C  C147  1  0.50520977  0.82345056  0.59470479  1  0.461049  0  0.107212  0.336298  0  4.090374  0
C  C148  1  0.73430515  0.60670172  0.10789447  1  0.027012  0  -0.035785  -0.148538  0  3.974023  0
C  C149  1  0.77295905  0.66160544  0.16320697  1  0.036465  0  -0.107624  -0.115026  0  4.089521  0
C  C150  1  0.85083532  0.69818087  0.20075483  1  -0.120048  0  -0.112878  -0.159499  0  4.067358  0
C  C151  1  0.89552494  0.68295827  0.18481975  1  0.013873  0  -0.026074  0.01829  0  4.059579  0
C  C152  1  0.85769854  0.62825705  0.12953672  1  0.398253  0  0.079902  0.137674  0  4.004258  0
C  C153  1  0.77713395  0.58931265  0.09141630  1  0.367066  0  0.092348  0.194784  0  4.026203  0
C  C154  1  0.97762397  0.72258959  0.22254776  1  -0.040233  0  -0.095011  -0.11091  0  4.010426  0
C  C155  1  0.02274129  0.77327431  0.27899419  1  0.040024  0  -0.093708  -0.132897  0  3.975297  0
C  C156  1  0.14402370  0.86552503  0.36988419  1  -0.091197  0  -0.132294  -0.314687  0  3.977204  0
C  C157  1  0.10525685  0.81178056  0.31444365  1  -0.000874  0  -0.016132  0.160373  0  4.14628  0
C  C158  1  0.14759054  0.79734056  0.29516044  1  -0.022479  0  -0.142062  -0.326049  0  3.99879  0
C  C159  1  0.22664827  0.83467290  0.33025551  1  0.376913  0  0.097451  0.323027  0  4.099054  0
C  C160  1  0.26761531  0.88951730  0.38808832  1  0.089408  0  -0.052055  -0.295556  0  3.855677  0
C  C161  1  0.22361650  0.90494520  0.40647382  1  0.470647  0  0.106215  0.335138  0  4.094125  0
C  C162  1  0.26830512  0.39452210  0.89347282  1  -0.043133  0  -0.038096  -0.150923  0  3.975762  0
C  C163  1  0.23026208  0.33994681  0.83807617  1  0.036633  0  -0.106134  -0.111728  0  4.093455  0
C  C164  1  0.15247999  0.30077751  0.80243243  1  -0.052094  0  -0.114751  -0.163075  0  4.070619  0
C  C165  1  0.10729073  0.31440074  0.81910683  1  -0.033208  0  -0.0252  0.019622  0  4.057966  0
C  C166  1  0.14444472  0.36907199  0.87415961  1  0.262888  0  0.078839  0.135945  0  4.002114  0
C  C167  1  0.22495599  0.40899883  0.91195155  1  0.483656  0  0.092219  0.197136  0  4.03734  0
C  C168  1  0.02518723  0.27507860  0.78008212  1  -0.018918  0  -0.094909  -0.112143  0  4.009877  0
C  C169  1  0.98108838  0.21914930  0.72874345  1  0.044945  0  -0.093043  -0.129243  0  3.970101  0
C  C170  1  0.86134308  0.12874921  0.63471524  1  0.044135  0  -0.135915  -0.322033  0  3.987608  0
C  C171  1  0.89860057  0.18233495  0.69007233  1  -0.03486  0  -0.017308  0.160004  0  4.146191  0
C  C172  1  0.85505553  0.19834860  0.70569934  1  -0.011111  0  -0.140018  -0.3247  0  3.992491  0
C  C173  1  0.77579456  0.16278197  0.66713853  1  0.434743  0  0.105327  0.337229  0  4.107966  0
C  C174  1  0.73660754  0.10789830  0.60960245  1  0.079579  0  -0.051026  -0.294765  0  3.852717  0
C  C175  1  0.78216002  0.09166525  0.59464797  1  0.372307  0  0.100707  0.328225  0  4.088616  0
N  N176  1  0.50447695  0.40629445  0.88680272  1  -1.267648  0  -0.340663  -0.310859  0  3.488687  0
N  N177  1  0.49392225  0.10068931  0.60915325  1  -1.248449  0  -0.346154  -0.43325  0  3.318908  0
N  N178  1  0.49718718  0.59403325  0.11438210  1  -1.275982  0  -0.337855  -0.304116  0  3.485903  0
N  N179  1  0.50789820  0.90030550  0.39114103  1  -1.275109  0  -0.345808  -0.431977  0  3.31419  0
N  N180  1  0.58670026  0.49979000  0.87646420  1  -1.243054  0  -0.579563  -0.614859  0  3.310523  0
N  N181  1  0.60937480  0.42899750  0.80502244  1  -1.178656  0  -0.599216  -0.600775  0  3.323439  0
N  N182  1  0.58754146  0.19416918  0.60923941  1  -1.236093  0  -0.583871  -0.628007  0  3.32151  0
N  N183  1  0.40080987  0.00660484  0.60879368  1  -1.262129  0  -0.580118  -0.628253  0  3.318942  0
N  N184  1  0.41325364  0.50000745  0.12326356  1  -1.288048  0  -0.58595  -0.633066  0  3.309327  0
N  N185  1  0.38580112  0.57015110  0.18985542  1  -1.217438  0  -0.600556  -0.599433  0  3.32829  0
N  N186  1  0.41434926  0.80755334  0.39210218  1  -1.24514  0  -0.58448  -0.629908  0  3.31302  0
N  N187  1  0.60245905  0.99341861  0.39206792  1  -1.251215  0  -0.578121  -0.623288  0  3.32776  0
N  N188  1  0.50452427  0.29720603  0.03298739  1  -1.252911  0  -0.609949  -0.621012  0  3.337678  0
N  N189  1  0.50327390  0.21968674  0.10472672  1  -1.205411  0  -0.61138  -0.614713  0  3.319974  0
N  N190  1  0.50907542  0.06207452  0.31633706  1  -1.295971  0  -0.604366  -0.629698  0  3.392029  0
N  N191  1  0.49002386  0.19774255  0.46118947  1  -1.254007  0  -0.606706  -0.631137  0  3.343869  0
N  N192  1  0.49470675  0.70181571  0.96779608  1  -1.212176  0  -0.609282  -0.622717  0  3.330082  0
N  N193  1  0.49119106  0.77792555  0.89477011  1  -1.197813  0  -0.611236  -0.613837  0  3.326226  0
N  N194  1  0.49844653  0.94538929  0.69309521  1  -1.246673  0  -0.611303  -0.63456  0  3.348343  0
N  N195  1  0.51114875  0.80920704  0.54263445  1  -1.285372  0  -0.599316  -0.618725  0  3.375025  0
N  N196  1  0.74521307  0.53673383  0.03777645  1  -1.238196  0  -0.612185  -0.626393  0  3.332219  0
N  N197  1  0.89523391  0.60705344  0.10952477  1  -1.196567  0  -0.612446  -0.613791  0  3.328132  0
N  N198  1  0.26330166  0.81560946  0.30817849  1  -1.214986  0  -0.61157  -0.635999  0  3.349879  0
N  N199  1  0.25654153  0.95804520  0.45831230  1  -1.295221  0  -0.600053  -0.621777  0  3.37259  0
N  N200  1  0.25665156  0.46241071  0.96439736  1  -1.263388  0  -0.61316  -0.625389  0  3.343348  0
N  N201  1  0.10644908  0.38679644  0.89694731  1  -1.192559  0  -0.612913  -0.617329  0  3.319786  0
N  N202  1  0.73785995  0.18231321  0.68549584  1  -1.275716  0  -0.605297  -0.634521  0  3.393674  0
N  N203  1  0.75081618  0.04077642  0.54046902  1  -1.257523  0  -0.606489  -0.629925  0  3.345652  0
O  O204  1  0.49887981  0.97403453  0.59189174  1  -1.186674  0  -0.323601  -0.572655  0  2.389307  0
O  O205  1  0.50459208  0.91168005  0.52295551  1  -1.176701  0  -0.316133  -0.551969  0  2.378758  0
O  O206  1  0.38828934  0.91192214  0.40936079  1  -1.192202  0  -0.323853  -0.572538  0  2.390532  0
O  O207  1  0.38520195  0.97700596  0.47816843  1  -1.183366  0  -0.316552  -0.554071  0  2.381379  0
O  O208  1  0.50335498  0.03245215  0.41527732  1  -1.179624  0  -0.316452  -0.553669  0  2.375585  0
O  O209  1  0.50091198  0.09764033  0.48455413  1  -1.187161  0  -0.322446  -0.570288  0  2.38958  0
O  O210  1  0.61472978  0.08378980  0.58592342  1  -1.179182  0  -0.317019  -0.555086  0  2.380718  0
O  O211  1  0.62053154  0.02174925  0.51680254  1  -1.19724  0  -0.322943  -0.571047  0  2.387991  0
O  O212  1  0.61506698  0.51989569  0.01883715  1  -1.179785  0  -0.315799  -0.552469  0  2.366246  0
O  O213  1  0.61688211  0.58621478  0.09150436  1  -1.167439  0  -0.320685  -0.542968  0  2.330599  0
O  O214  1  0.50364158  0.59839190  0.98793125  1  -1.167955  0  -0.309504  -0.540079  0  2.346555  0
O  O215  1  0.50695357  0.53642598  0.91612695  1  -1.181044  0  -0.318557  -0.566063  0  2.367184  0
O  O216  1  0.38703652  0.48228299  0.98222544  1  -1.176521  0  -0.318729  -0.559997  0  2.372298  0
O  O217  1  0.38609834  0.41533641  0.91084611  1  -1.166788  0  -0.320264  -0.543483  0  2.337519  0
O  O218  1  0.49953134  0.40227909  0.01322693  1  -1.175268  0  -0.311411  -0.542676  0  2.347483  0
O  O219  1  0.49363622  0.46370337  0.08325745  1  -1.191803  0  -0.319132  -0.563738  0  2.367332  0
