# generated using pymatgen
data_KHC7NClO4
_symmetry_space_group_name_H-M   'P 1'
_cell_length_a   6.90200870
_cell_length_b   7.04206413
_cell_length_c   17.24376510
_cell_angle_alpha   89.99993663
_cell_angle_beta   90.00053991
_cell_angle_gamma   100.98542143
_symmetry_Int_Tables_number   1
_chemical_formula_structural   KHC7NClO4
_chemical_formula_sum   'K4 H4 C28 N4 Cl4 O16'
_cell_volume   822.76463869
_cell_formula_units_Z   4
loop_
 _symmetry_equiv_pos_site_id
 _symmetry_equiv_pos_as_xyz
  1  'x, y, z'
loop_
 _atom_site_type_symbol
 _atom_site_label
 _atom_site_symmetry_multiplicity
 _atom_site_fract_x
 _atom_site_fract_y
 _atom_site_fract_z
 _atom_site_occupancy
 _atom_site_pbe_bader_charge
 _atom_site_pbe_bader_spin_density
 _atom_site_pbe_cm5_charge
 _atom_site_pbe_ddec_charge
 _atom_site_pbe_ddec_spin_density
 _atom_site_pbe_ddec_sum_bond_order
 _atom_site_pbe_magmom
K  K0  1  0.85404903  0.72779880  0.05850524  1  0.893528  0  0.724395  0.842042  0  0.674796  0
K  K1  1  0.14593229  0.77220838  0.55850309  1  0.893441  0  0.724469  0.841973  0  0.674907  0
K  K2  1  0.14595595  0.27217227  0.94148573  1  0.893478  0  0.724382  0.842033  0  0.674778  0
K  K3  1  0.85405914  0.22782259  0.44149021  1  0.893458  0  0.724484  0.842012  0  0.674845  0
H  H4  1  0.84078988  0.86302983  0.26113116  1  0.671279  0  0.311402  0.36325  0  0.965641  0
H  H5  1  0.15917991  0.63696355  0.76111581  1  0.671211  0  0.311221  0.362951  0  0.965713  0
H  H6  1  0.15921794  0.13696593  0.73886619  1  0.671331  0  0.311352  0.363146  0  0.965655  0
H  H7  1  0.84081907  0.36302768  0.23888270  1  0.671233  0  0.311293  0.363051  0  0.965673  0
C  C8  1  0.28518085  0.57396512  0.37653078  1  0.924245  0  0.137651  0.288482  0  4.051252  0
C  C9  1  0.71478676  0.92602872  0.87652774  1  0.92466  0  0.137713  0.288519  0  4.0516  0
C  C10  1  0.71482095  0.42606072  0.62347412  1  0.924255  0  0.137574  0.288086  0  4.051834  0
C  C11  1  0.28519740  0.07397530  0.12347252  1  0.924692  0  0.137768  0.288649  0  4.051617  0
C  C12  1  0.48113850  0.68985491  0.37717720  1  0.099109  0  -0.012847  -0.102758  0  4.03557  0
C  C13  1  0.51885420  0.81014085  0.87716584  1  0.099738  0  -0.01294  -0.102709  0  4.035729  0
C  C14  1  0.51887072  0.31015957  0.62281900  1  0.099082  0  -0.012745  -0.10265  0  4.035459  0
C  C15  1  0.48114333  0.18984442  0.12283268  1  0.099809  0  -0.012943  -0.102819  0  4.035813  0
C  C16  1  0.58495803  0.74107211  0.30991106  1  0.657875  0  0.111339  0.214845  0  4.022205  0
C  C17  1  0.41503955  0.75891519  0.80989813  1  0.656998  0  0.111341  0.214722  0  4.02257  0
C  C18  1  0.41504982  0.25891655  0.69008745  1  0.657815  0  0.111352  0.214991  0  4.022129  0
C  C19  1  0.58495361  0.24105504  0.19009923  1  0.656626  0  0.111344  0.214759  0  4.022356  0
C  C20  1  0.49303564  0.68553906  0.23184935  1  0.900509  0  0.132239  0.297959  0  4.136526  0
C  C21  1  0.50694900  0.81447931  0.73184603  1  0.899844  0  0.132268  0.298015  0  4.136726  0
C  C22  1  0.50697217  0.31446237  0.76814743  1  0.900202  0  0.132263  0.298046  0  4.136386  0
C  C23  1  0.49303811  0.18552386  0.26815481  1  0.900174  0  0.132209  0.297825  0  4.1367  0
C  C24  1  0.29691553  0.57069898  0.22927759  1  0.088433  0  -0.059274  -0.278804  0  4.133921  0
C  C25  1  0.70306474  0.92930726  0.72927099  1  0.087827  0  -0.059315  -0.278716  0  4.133678  0
C  C26  1  0.70309081  0.42929791  0.77072092  1  0.088521  0  -0.059198  -0.278748  0  4.134024  0
C  C27  1  0.29691346  0.07070982  0.27073216  1  0.088061  0  -0.059236  -0.278671  0  4.133881  0
C  C28  1  0.18743661  0.51156525  0.29761886  1  0.853735  0  0.134689  0.302778  0  4.041814  0
C  C29  1  0.81255659  0.98843009  0.79761449  1  0.854082  0  0.134655  0.302723  0  4.04159  0
C  C30  1  0.81256230  0.48844300  0.70238197  1  0.85324  0  0.134577  0.302764  0  4.041952  0
C  C31  1  0.18743351  0.01156796  0.20238809  1  0.853716  0  0.134668  0.30269  0  4.04177  0
C  C32  1  0.21616747  0.52282878  0.15521738  1  0.803652  0  0.188814  0.329069  0  4.066394  0
C  C33  1  0.78381183  0.97716382  0.65520520  1  0.805017  0  0.188786  0.328996  0  4.066539  0
C  C34  1  0.78383446  0.47716301  0.84478345  1  0.803877  0  0.18887  0.329092  0  4.066226  0
C  C35  1  0.21616049  0.02284362  0.34479621  1  0.805002  0  0.188925  0.32917  0  4.06676  0
N  N36  1  0.15237484  0.48406006  0.09302473  1  -1.202836  0  -0.40598  -0.473351  0  2.881781  0
N  N37  1  0.84762609  0.01594656  0.59302511  1  -1.203384  0  -0.40603  -0.473336  0  2.882297  0
N  N38  1  0.84763895  0.51592405  0.90697495  1  -1.203024  0  -0.406105  -0.473403  0  2.88161  0
N  N39  1  0.15234762  0.98408245  0.40697862  1  -1.203666  0  -0.4062  -0.473461  0  2.882553  0
Cl  Cl40  1  0.58481571  0.76466381  0.46524551  1  -0.180044  0  0.055358  -0.032152  0  1.764366  0
Cl  Cl41  1  0.41516023  0.73532618  0.96523713  1  -0.179998  0  0.055371  -0.032215  0  1.764008  0
Cl  Cl42  1  0.41518454  0.23537878  0.53475184  1  -0.179929  0  0.055359  -0.032139  0  1.764448  0
Cl  Cl43  1  0.58484774  0.26463410  0.03476139  1  -0.180027  0  0.055386  -0.032146  0  1.764123  0
O  O44  1  0.18882328  0.52385116  0.43632758  1  -1.101961  0  -0.361361  -0.460565  0  2.263165  0
O  O45  1  0.81115725  0.97614340  0.93631561  1  -1.102016  0  -0.361391  -0.460656  0  2.263614  0
O  O46  1  0.81116665  0.47618521  0.56367557  1  -1.101964  0  -0.361257  -0.460302  0  2.263204  0
O  O47  1  0.18884028  0.02384187  0.06368639  1  -1.102135  0  -0.361373  -0.460623  0  2.263681  0
O  O48  1  0.76436912  0.84510376  0.31241024  1  -1.159084  0  -0.302905  -0.384803  0  2.440292  0
O  O49  1  0.23562691  0.65489879  0.81241468  1  -1.159033  0  -0.302746  -0.384514  0  2.440056  0
O  O50  1  0.23564307  0.15490844  0.68758769  1  -1.159043  0  -0.302847  -0.384719  0  2.440479  0
O  O51  1  0.76437807  0.34507370  0.18758732  1  -1.158838  0  -0.302871  -0.384629  0  2.439942  0
O  O52  1  0.59231459  0.74415657  0.17319907  1  -1.115942  0  -0.344967  -0.459581  0  2.21052  0
O  O53  1  0.40769710  0.75583600  0.67319303  1  -1.115671  0  -0.344952  -0.459586  0  2.210585  0
O  O54  1  0.40771551  0.25581077  0.82679944  1  -1.11544  0  -0.345051  -0.459732  0  2.210285  0
O  O55  1  0.59230327  0.24417821  0.32680490  1  -1.115642  0  -0.345015  -0.459618  0  2.210488  0
O  O56  1  0.01514166  0.41324693  0.30093052  1  -1.132493  0  -0.308524  -0.446283  0  2.273381  0
O  O57  1  0.98486248  0.08674711  0.80091947  1  -1.132733  0  -0.308464  -0.446322  0  2.273099  0
O  O58  1  0.98485718  0.58677835  0.69906800  1  -1.132383  0  -0.308484  -0.446304  0  2.273269  0
O  O59  1  0.01514242  0.91324383  0.19907673  1  -1.132463  0  -0.308498  -0.446324  0  2.273195  0
