# generated using pymatgen
data_ZnH17C18N4O5
_symmetry_space_group_name_H-M   'P 1'
_cell_length_a   9.66696009
_cell_length_b   9.96112098
_cell_length_c   10.67221121
_cell_angle_alpha   83.47712345
_cell_angle_beta   64.47999165
_cell_angle_gamma   71.08570573
_symmetry_Int_Tables_number   1
_chemical_formula_structural   ZnH17C18N4O5
_chemical_formula_sum   'Zn2 H34 C36 N8 O10'
_cell_volume   876.91863410
_cell_formula_units_Z   2
loop_
 _symmetry_equiv_pos_site_id
 _symmetry_equiv_pos_as_xyz
  1  'x, y, z'
loop_
 _atom_site_type_symbol
 _atom_site_label
 _atom_site_symmetry_multiplicity
 _atom_site_fract_x
 _atom_site_fract_y
 _atom_site_fract_z
 _atom_site_occupancy
 _atom_site_hle17_bader_spin_density
 _atom_site_hle17_ddec_charge
 _atom_site_hle17_ddec_spin_density
 _atom_site_hle17_ddec_sum_bond_order
 _atom_site_hle17_magmom
 _atom_site_hse06_10hf_bader_spin_density
 _atom_site_hse06_10hf_ddec_charge
 _atom_site_hse06_10hf_ddec_spin_density
 _atom_site_hse06_10hf_ddec_sum_bond_order
 _atom_site_hse06_10hf_magmom
 _atom_site_hse06_bader_spin_density
 _atom_site_hse06_ddec_charge
 _atom_site_hse06_ddec_spin_density
 _atom_site_hse06_ddec_sum_bond_order
 _atom_site_hse06_magmom
 _atom_site_pbe_bader_spin_density
 _atom_site_pbe_cm5_charge
 _atom_site_pbe_ddec_charge
 _atom_site_pbe_ddec_spin_density
 _atom_site_pbe_ddec_sum_bond_order
 _atom_site_pbe_magmom
Zn  Zn0  1  0.83787860  0.18225100  0.36569373  1  0  1.0099  0  1.869127  0  0  0.819254  0  2.346511  0  0  0.865615  0  2.291929  0  0  0.699754  0.785936  0  2.385633  0
Zn  Zn1  1  0.16212199  0.81774826  0.63430564  1  0  1.009899  0  1.869171  0  0  0.819252  0  2.346556  0  0  0.865606  0  2.291978  0  0  0.699746  0.785934  0  2.38568  0
H  H2  1  0.60524989  0.49836467  0.75502956  1  0  0.087133  0  0.985241  0  0  0.096392  0  1.051741  0  0  0.09921  0  1.051148  0  0  0.096389  0.094265  0  1.052442  0
H  H3  1  0.39474727  0.50163458  0.24497022  1  0  0.087097  0  0.98523  0  0  0.096334  0  1.051762  0  0  0.099151  0  1.051169  0  0  0.096354  0.094206  0  1.052462  0
H  H4  1  0.57373621  0.33783012  0.15746095  1  0  0.088175  0  0.98989  0  0  0.097798  0  1.054588  0  0  0.100483  0  1.054004  0  0  0.09566  0.095811  0  1.055266  0
H  H5  1  0.42626400  0.66217021  0.84253847  1  0  0.088198  0  0.989882  0  0  0.097817  0  1.054586  0  0  0.100502  0  1.054001  0  0  0.095659  0.095831  0  1.055262  0
H  H6  1  0.81179680  0.13527281  0.04184040  1  0  0.113549  0  0.973719  0  0  0.120496  0  1.040211  0  0  0.124054  0  1.037766  0  0  0.105416  0.117957  0  1.041906  0
H  H7  1  0.18820531  0.86472862  0.95815629  1  0  0.113536  0  0.973766  0  0  0.120511  0  1.040227  0  0  0.124069  0  1.037786  0  0  0.105423  0.117972  0  1.041924  0
H  H8  1  0.66063121  0.01173265  0.27969223  1  0  0.111411  0  0.985186  0  0  0.115279  0  1.053664  0  0  0.119269  0  1.048809  0  0  0.135671  0.112256  0  1.057433  0
H  H9  1  0.33936710  0.98826658  0.72030991  1  0  0.111465  0  0.985161  0  0  0.115341  0  1.053615  0  0  0.119331  0  1.048762  0  0  0.135689  0.112319  0  1.057383  0
H  H10  1  0.46796535  0.39720190  0.50876678  1  0  0.099984  0  0.961251  0  0  0.112196  0  1.018156  0  0  0.114811  0  1.016848  0  0  0.11611  0.110457  0  1.019001  0
H  H11  1  0.53203487  0.60279841  0.49123452  1  0  0.099962  0  0.961265  0  0  0.11217  0  1.018177  0  0  0.114784  0  1.01687  0  0  0.11611  0.110432  0  1.01902  0
H  H12  1  0.21679752  0.32814860  0.49104459  1  0  0.144483  0  0.972137  0  0  0.151424  0  1.034047  0  0  0.155688  0  1.030605  0  0  0.126504  0.148256  0  1.036802  0
H  H13  1  0.78320117  0.67185277  0.50895625  1  0  0.144496  0  0.972115  0  0  0.151445  0  1.034018  0  0  0.15571  0  1.030574  0  0  0.126515  0.148276  0  1.036769  0
H  H14  1  0.20444784  0.13983181  0.37217386  1  0  0.116411  0  0.928686  0  0  0.131814  0  0.987357  0  0  0.133476  0  0.98658  0  0  0.122318  0.130167  0  0.98859  0
H  H15  1  0.79555161  0.86016745  0.62782596  1  0  0.11643  0  0.928678  0  0  0.131829  0  0.987348  0  0  0.133491  0  0.986572  0  0  0.122321  0.130181  0  0.988581  0
H  H16  1  0.32641080  0.97512507  0.40087692  1  0  0.083261  0  0.947207  0  0  0.095626  0  1.017081  0  0  0.096349  0  1.016698  0  0  0.109425  0.094856  0  1.017566  0
H  H17  1  0.67358751  0.02487415  0.59912523  1  0  0.083242  0  0.947244  0  0  0.095618  0  1.017091  0  0  0.096342  0  1.016706  0  0  0.109406  0.094846  0  1.017574  0
H  H18  1  0.32934960  0.99183933  0.16162373  1  0  0.065736  0  0.929828  0  0  0.076936  0  0.997982  0  0  0.077053  0  0.998273  0  0  0.103382  0.07682  0  0.99784  0
H  H19  1  0.67065252  0.00815887  0.83837702  1  0  0.065718  0  0.929788  0  0  0.076939  0  0.997961  0  0  0.077055  0  0.998252  0  0  0.103381  0.076822  0  0.997819  0
H  H20  1  0.41829228  0.13128667  0.12500246  1  0  0.066276  0  0.923758  0  0  0.078974  0  0.989681  0  0  0.07894  0  0.990089  0  0  0.105038  0.079235  0  0.988894  0
H  H21  1  0.58170984  0.86871152  0.87499830  1  0  0.066341  0  0.923708  0  0  0.079053  0  0.989632  0  0  0.07902  0  0.99004  0  0  0.105058  0.079315  0  0.988848  0
H  H22  1  0.52902470  0.75330287  0.10713212  1  0  0.048303  0  0.960648  0  0  0.059582  0  1.032368  0  0  0.059024  0  1.034178  0  0  0.093706  0.059796  0  1.031064  0
H  H23  1  0.47097780  0.24669424  0.89287047  1  0  0.048278  0  0.960682  0  0  0.059566  0  1.032409  0  0  0.059012  0  1.034216  0  0  0.093691  0.059781  0  1.031102  0
H  H24  1  0.49214964  0.78508738  0.28067994  1  0  0.060791  0  0.957254  0  0  0.072424  0  1.026493  0  0  0.073061  0  1.026146  0  0  0.098476  0.071589  0  1.027157  0
H  H25  1  0.50785400  0.21490975  0.71932127  1  0  0.060789  0  0.95729  0  0  0.072426  0  1.026532  0  0  0.073071  0  1.02618  0  0  0.098473  0.07159  0  1.027195  0
H  H26  1  0.79166394  0.75511685  0.19641008  1  0  0.095569  0  0.919169  0  0  0.109364  0  0.982404  0  0  0.109945  0  0.982804  0  0  0.119659  0.108969  0  0.982083  0
H  H27  1  0.20833894  0.24488243  0.80358934  1  0  0.095572  0  0.919175  0  0  0.109354  0  0.982409  0  0  0.109935  0  0.98281  0  0  0.119672  0.10896  0  0.982087  0
H  H28  1  0.74206783  0.60007237  0.18936466  1  0  0.083303  0  0.917862  0  0  0.101579  0  0.975556  0  0  0.101613  0  0.976332  0  0  0.115518  0.101803  0  0.974637  0
H  H29  1  0.25793657  0.39992584  0.81063521  1  0  0.083282  0  0.917888  0  0  0.101573  0  0.975561  0  0  0.101611  0  0.976336  0  0  0.115508  0.101796  0  0.974642  0
H  H30  1  0.95358101  0.85400010  0.97061720  1  0  0.114306  0  0.970234  0  0  0.116224  0  1.043969  0  0  0.119347  0  1.040244  0  0  0.136664  0.114057  0  1.04626  0
H  H31  1  0.04641920  0.14600024  0.02938128  1  0  0.114308  0  0.970241  0  0  0.116229  0  1.043971  0  0  0.119351  0  1.040247  0  0  0.136657  0.114061  0  1.046263  0
H  H32  1  0.80992991  0.50328609  0.94458847  1  0  0.111549  0  0.996683  0  0  0.119832  0  1.061633  0  0  0.120775  0  1.063792  0  0  0.116706  0.119258  0  1.059828  0
H  H33  1  0.19007145  0.49671103  0.05541269  1  0  0.11148  0  0.996674  0  0  0.119773  0  1.061623  0  0  0.120713  0  1.06378  0  0  0.116673  0.119198  0  1.059816  0
H  H34  1  0.02247938  0.55381571  0.68083140  1  0  0.119016  0  0.954653  0  0  0.127226  0  1.014126  0  0  0.130397  0  1.012042  0  0  0.120526  0.124799  0  1.015856  0
H  H35  1  0.97752121  0.44618354  0.31916891  1  0  0.119012  0  0.954655  0  0  0.127224  0  1.014126  0  0  0.130395  0  1.012042  0  0  0.120525  0.124797  0  1.015855  0
C  C36  1  0.85551552  0.29048162  0.59826091  1  0  0.677673  0  3.913063  0  0  0.624823  0  4.214816  0  0  0.659021  0  4.204835  0  0  0.210294  0.601471  0  4.22078  0
C  C37  1  0.14448544  0.70951980  0.40173623  1  0  0.677599  0  3.913203  0  0  0.624738  0  4.214961  0  0  0.658939  0  4.204983  0  0  0.210256  0.601388  0  4.220925  0
C  C38  1  0.78253243  0.30384318  0.75453745  1  0  -0.03873  0  3.721676  0  0  -0.023456  0  3.952233  0  0  -0.025215  0  3.970512  0  0  -0.0046  -0.022537  0  3.940512  0
C  C39  1  0.21746665  0.69616033  0.24546211  1  0  -0.038738  0  3.72166  0  0  -0.023468  0  3.952214  0  0  -0.025227  0  3.970492  0  0  -0.004586  -0.022549  0  3.940493  0
C  C40  1  0.64853321  0.42035238  0.82055209  1  0  -0.137959  0  3.724341  0  0  -0.163765  0  3.967744  0  0  -0.166413  0  3.986365  0  0  -0.091604  -0.162458  0  3.955645  0
C  C41  1  0.35146394  0.57964688  0.17944676  1  0  -0.137901  0  3.724283  0  0  -0.163664  0  3.967707  0  0  -0.166312  0  3.986331  0  0  -0.091558  -0.162356  0  3.955607  0
C  C42  1  0.57040184  0.43758758  0.96604772  1  0  0.041764  0  3.811493  0  0  0.055314  0  4.04836  0  0  0.057338  0  4.06828  0  0  -0.013931  0.054241  0  4.034548  0
C  C43  1  0.42959303  0.56241484  0.03395264  1  0  0.041886  0  3.811479  0  0  0.05535  0  4.048419  0  0  0.057373  0  4.068338  0  0  -0.013893  0.054278  0  4.034605  0
C  C44  1  0.63103821  0.33131158  0.04444628  1  0  -0.127175  0  3.749102  0  0  -0.149201  0  4.005792  0  0  -0.151164  0  4.023327  0  0  -0.100612  -0.147838  0  3.993887  0
C  C45  1  0.36896047  0.66868981  0.95555269  1  0  -0.127346  0  3.748965  0  0  -0.149368  0  4.005718  0  0  -0.151331  0  4.023252  0  0  -0.100674  -0.148005  0  3.993814  0
C  C46  1  0.76638161  0.21658392  0.97969235  1  0  -0.075396  0  3.751337  0  0  -0.101752  0  4.010177  0  0  -0.10099  0  4.028386  0  0  -0.087638  -0.102067  0  3.997964  0
C  C47  1  0.23361594  0.78342065  0.02030676  1  0  -0.075237  0  3.751036  0  0  -0.101612  0  4.009844  0  0  -0.100854  0  4.028056  0  0  -0.087584  -0.101929  0  3.997634  0
C  C48  1  0.84472322  0.20165921  0.83443112  1  0  -0.078048  0  3.737462  0  0  -0.063582  0  3.972172  0  0  -0.069611  0  3.992118  0  0  -0.015259  -0.060127  0  3.959192  0
C  C49  1  0.15527547  0.79834217  0.16556879  1  0  -0.07809  0  3.737417  0  0  -0.063614  0  3.972115  0  0  -0.069644  0  3.992063  0  0  -0.015281  -0.060158  0  3.959136  0
C  C50  1  0.98898932  0.07421462  0.77262344  1  0  0.634116  0  3.93652  0  0  0.582674  0  4.232158  0  0  0.616757  0  4.224525  0  0  0.200139  0.559498  0  4.236642  0
C  C51  1  0.01100899  0.92578783  0.22737557  1  0  0.634063  0  3.936575  0  0  0.582614  0  4.232204  0  0  0.616698  0  4.22457  0  0  0.200089  0.559437  0  4.236687  0
C  C52  1  0.57479538  0.10557768  0.34222625  1  0  0.164854  0  3.637948  0  0  0.09985  0  3.904161  0  0  0.113916  0  3.9153  0  0  0.139144  0.091134  0  3.896278  0
C  C53  1  0.42520293  0.89442154  0.65777589  1  0  0.164818  0  3.637891  0  0  0.099799  0  3.904102  0  0  0.113864  0  3.915241  0  0  0.139196  0.091084  0  3.89622  0
C  C54  1  0.47059669  0.30729752  0.45845015  1  0  -0.019362  0  3.776893  0  0  -0.050937  0  4.041715  0  0  -0.050046  0  4.062193  0  0  -0.011126  -0.051852  0  4.028186  0
C  C55  1  0.52940238  0.69270278  0.54155159  1  0  -0.019307  0  3.776926  0  0  -0.050875  0  4.041748  0  0  -0.049982  0  4.062227  0  0  -0.011112  -0.05179  0  4.028218  0
C  C56  1  0.34584505  0.27571319  0.45111428  1  0  -0.068838  0  3.644834  0  0  -0.107224  0  3.894718  0  0  -0.105831  0  3.913065  0  0  0.003515  -0.108051  0  3.882865  0
C  C57  1  0.65415250  0.72428817  0.54888701  1  0  -0.068885  0  3.644876  0  0  -0.107295  0  3.894771  0  0  -0.105902  0  3.913116  0  0  0.003451  -0.108118  0  3.882915  0
C  C58  1  0.32955669  0.07159520  0.34007278  1  0  -0.049858  0  3.601763  0  0  -0.116264  0  3.857159  0  0  -0.113206  0  3.867279  0  0  -0.057013  -0.117812  0  3.850182  0
C  C59  1  0.67044276  0.92840404  0.65992798  1  0  -0.049905  0  3.601797  0  0  -0.116278  0  3.85716  0  0  -0.113224  0  3.86728  0  0  -0.057012  -0.117826  0  3.85018  0
C  C60  1  0.40739473  0.03512642  0.18495074  1  0  0.072521  0  3.622772  0  0  0.014947  0  3.89668  0  0  0.022267  0  3.901704  0  0  -0.067626  0.010026  0  3.893062  0
C  C61  1  0.59260624  0.96487178  0.81504952  1  0  0.072538  0  3.622701  0  0  0.014885  0  3.896708  0  0  0.022205  0  3.901734  0  0  -0.067642  0.009964  0  3.893093  0
C  C62  1  0.57166795  0.79445467  0.17100513  1  0  0.056583  0  3.655064  0  0  -0.000771  0  3.925385  0  0  0.005488  0  3.931597  0  0  -0.075686  -0.004666  0  3.921482  0
C  C63  1  0.42833494  0.20554458  0.82899616  1  0  0.056666  0  3.654966  0  0  -0.000738  0  3.92535  0  0  0.005515  0  3.931556  0  0  -0.075673  -0.004632  0  3.921447  0
C  C64  1  0.74251971  0.70518107  0.14552936  1  0  -0.031617  0  3.645395  0  0  -0.099234  0  3.908829  0  0  -0.095546  0  3.919453  0  0  -0.050517  -0.1022  0  3.901998  0
C  C65  1  0.25748203  0.29481818  0.85447144  1  0  -0.031609  0  3.645442  0  0  -0.099197  0  3.908867  0  0  -0.095517  0  3.9195  0  0  -0.050513  -0.102163  0  3.902034  0
C  C66  1  0.94685806  0.76585006  0.92442770  1  0  0.17361  0  3.617722  0  0  0.111561  0  3.882635  0  0  0.125412  0  3.895428  0  0  0.146386  0.102412  0  3.873723  0
C  C67  1  0.05314061  0.23415134  0.07556940  1  0  0.173536  0  3.61769  0  0  0.111493  0  3.882589  0  0  0.125346  0  3.895383  0  0  0.146373  0.102345  0  3.873677  0
C  C68  1  0.87251197  0.58219113  0.90895076  1  0  -0.066462  0  3.677565  0  0  -0.10755  0  3.936142  0  0  -0.106565  0  3.957087  0  0  -0.004194  -0.108041  0  3.92117  0
C  C69  1  0.12749053  0.41780600  0.09104996  1  0  -0.066455  0  3.677649  0  0  -0.107549  0  3.936228  0  0  -0.106561  0  3.957168  0  0  -0.004175  -0.108041  0  3.921257  0
C  C70  1  0.98017738  0.60600706  0.78020137  1  0  -0.005442  0  3.751329  0  0  -0.037466  0  4.015335  0  0  -0.035256  0  4.03391  0  0  -0.004956  -0.039204  0  4.002897  0
C  C71  1  0.01982207  0.39399218  0.21979939  1  0  -0.005451  0  3.751405  0  0  -0.037485  0  4.015427  0  0  -0.035272  0  4.034  0  0  -0.004979  -0.039221  0  4.002988  0
N  N72  1  0.61297601  0.20063470  0.38951060  1  0  -0.399145  0  3.328643  0  0  -0.31739  0  3.632955  0  0  -0.33732  0  3.64445  0  0  -0.364856  -0.303493  0  3.624763  0
N  N73  1  0.38702344  0.79936454  0.61049109  1  0  -0.399127  0  3.328624  0  0  -0.317367  0  3.63293  0  0  -0.337299  0  3.644427  0  0  -0.364883  -0.30347  0  3.62474  0
N  N74  1  0.41446720  0.14777586  0.37698283  1  0  -0.044249  0  3.539452  0  0  0.052402  0  3.757121  0  0  0.037771  0  3.783598  0  0  -0.236622  0.062028  0  3.739031  0
N  N75  1  0.58553073  0.85222442  0.62301936  1  0  -0.044283  0  3.539456  0  0  0.052385  0  3.757105  0  0  0.037754  0  3.78358  0  0  -0.236619  0.062011  0  3.739015  0
N  N76  1  0.85288122  0.68398938  0.99836625  1  0  -0.055845  0  3.572602  0  0  0.03935  0  3.790604  0  0  0.024985  0  3.816401  0  0  -0.241205  0.049043  0  3.773406  0
N  N77  1  0.14712014  0.31601094  0.00163365  1  0  -0.055789  0  3.572671  0  0  0.039406  0  3.790665  0  0  0.025042  0  3.816463  0  0  -0.241179  0.049098  0  3.773466  0
N  N78  1  0.02654402  0.72033021  0.79142657  1  0  -0.400414  0  3.323499  0  0  -0.318301  0  3.626428  0  0  -0.338967  0  3.638154  0  0  -0.363504  -0.304389  0  3.619147  0
N  N79  1  0.97345732  0.27967014  0.20857053  1  0  -0.400335  0  3.323499  0  0  -0.318221  0  3.626418  0  0  -0.338889  0  3.638146  0  0  -0.363477  -0.30431  0  3.619136  0
O  O80  1  0.76278628  0.26433069  0.55166272  1  0  -0.668934  0  2.049831  0  0  -0.592998  0  2.32925  0  0  -0.621957  0  2.312531  0  0  -0.339781  -0.571847  0  2.340122  0
O  O81  1  0.23721012  0.73567709  0.44833465  1  0  -0.668898  0  2.049876  0  0  -0.592959  0  2.329316  0  0  -0.621895  0  2.312559  0  0  -0.339757  -0.571804  0  2.340189  0
O  O82  1  0.98896544  0.30864260  0.52750421  1  0  -0.610845  0  1.928313  0  0  -0.568085  0  2.150207  0  0  -0.590933  0  2.141021  0  0  -0.314508  -0.551807  0  2.156481  0
O  O83  1  0.01103820  0.69135454  0.47249606  1  0  -0.610809  0  1.92836  0  0  -0.568053  0  2.150264  0  0  -0.590904  0  2.141077  0  0  -0.314492  -0.551774  0  2.156537  0
O  O84  1  0.00567839  0.01361451  0.66393826  1  0  -0.622989  0  2.011514  0  0  -0.547045  0  2.271114  0  0  -0.575274  0  2.25757  0  0  -0.32173  -0.527031  0  2.280142  0
O  O85  1  0.99432068  0.98638582  0.33606067  1  0  -0.622948  0  2.011478  0  0  -0.547005  0  2.271083  0  0  -0.575235  0  2.257538  0  0  -0.32172  -0.526992  0  2.280111  0
O  O86  1  0.08159152  0.03014625  0.83286206  1  0  -0.625903  0  1.962917  0  0  -0.572342  0  2.194727  0  0  -0.595889  0  2.185076  0  0  -0.315089  -0.555777  0  2.200985  0
O  O87  1  0.91840793  0.96985622  0.16713558  1  0  -0.625898  0  1.962995  0  0  -0.572327  0  2.194812  0  0  -0.595878  0  2.185162  0  0  -0.315046  -0.555762  0  2.201067  0
O  O88  1  0.56794182  0.93821605  0.13769715  1  0  -0.313106  0  2.226463  0  0  -0.245992  0  2.479616  0  0  -0.261898  0  2.481819  0  0  -0.234358  -0.234959  0  2.478087  0
O  O89  1  0.43205993  0.06178320  0.86230458  1  0  -0.313164  0  2.226346  0  0  -0.246036  0  2.479561  0  0  -0.261942  0  2.481767  0  0  -0.234359  -0.235008  0  2.478035  0
