# generated using pymatgen
data_CaH28PbC32(S2O7)2
_symmetry_space_group_name_H-M   'P 1'
_cell_length_a   8.24455174
_cell_length_b   8.80538553
_cell_length_c   13.05164402
_cell_angle_alpha   106.84460872
_cell_angle_beta   105.39826261
_cell_angle_gamma   98.51173507
_symmetry_Int_Tables_number   1
_chemical_formula_structural   CaH28PbC32(S2O7)2
_chemical_formula_sum   'Ca1 H28 Pb1 C32 S4 O14'
_cell_volume   847.91737329
_cell_formula_units_Z   1
loop_
 _symmetry_equiv_pos_site_id
 _symmetry_equiv_pos_as_xyz
  1  'x, y, z'
loop_
 _atom_site_type_symbol
 _atom_site_label
 _atom_site_symmetry_multiplicity
 _atom_site_fract_x
 _atom_site_fract_y
 _atom_site_fract_z
 _atom_site_occupancy
 _atom_site_hle17_bader_spin_density
 _atom_site_hle17_ddec_charge
 _atom_site_hle17_ddec_spin_density
 _atom_site_hle17_ddec_sum_bond_order
 _atom_site_hle17_magmom
 _atom_site_hse06_10hf_bader_spin_density
 _atom_site_hse06_10hf_ddec_charge
 _atom_site_hse06_10hf_ddec_spin_density
 _atom_site_hse06_10hf_ddec_sum_bond_order
 _atom_site_hse06_10hf_magmom
 _atom_site_hse06_bader_spin_density
 _atom_site_hse06_ddec_charge
 _atom_site_hse06_ddec_spin_density
 _atom_site_hse06_ddec_sum_bond_order
 _atom_site_hse06_magmom
 _atom_site_pbe_bader_spin_density
 _atom_site_pbe_cm5_charge
 _atom_site_pbe_ddec_charge
 _atom_site_pbe_ddec_spin_density
 _atom_site_pbe_ddec_sum_bond_order
 _atom_site_pbe_magmom
Ca  Ca0  1  0.99999774  0.50001026  0.99999115  1  0  1.541419  0  1.175183  0  0  1.410776  0  1.53379  0  0  1.453075  0  1.490417  0  0  0.875119  1.378892  0  1.564288  0
H  H1  1  0.89605417  0.25721578  0.74937606  1  0  0.104484  0  0.979384  0  0  0.109418  0  1.049283  0  0  0.113689  0  1.045906  0  0  0.11249  0.106362  0  1.051715  0
H  H2  1  0.85369989  0.49191747  0.74931823  1  0  0.104445  0  0.979854  0  0  0.109424  0  1.049523  0  0  0.113646  0  1.046257  0  0  0.112753  0.10639  0  1.051929  0
H  H3  1  0.10394957  0.74279964  0.25059078  1  0  0.104609  0  0.979194  0  0  0.109445  0  1.049193  0  0  0.113706  0  1.045835  0  0  0.112527  0.106394  0  1.05161  0
H  H4  1  0.14632141  0.50809812  0.25071750  1  0  0.104494  0  0.979745  0  0  0.109515  0  1.049345  0  0  0.113747  0  1.046083  0  0  0.112795  0.106473  0  1.051737  0
H  H5  1  0.93622367  0.04330309  0.59414151  1  0  0.115239  0  0.974178  0  0  0.121889  0  1.040583  0  0  0.12579  0  1.03773  0  0  0.106735  0.119101  0  1.042623  0
H  H6  1  0.65818350  0.55055746  0.59399615  1  0  0.115205  0  0.972439  0  0  0.121459  0  1.039436  0  0  0.125232  0  1.036724  0  0  0.106509  0.118741  0  1.04141  0
H  H7  1  0.06376549  0.95671448  0.40583021  1  0  0.115311  0  0.973864  0  0  0.121988  0  1.040261  0  0  0.12589  0  1.037404  0  0  0.106781  0.119199  0  1.042304  0
H  H8  1  0.34182593  0.44949170  0.40606891  1  0  0.115192  0  0.97271  0  0  0.121437  0  1.039679  0  0  0.125207  0  1.036973  0  0  0.10657  0.118717  0  1.041667  0
H  H9  1  0.42122320  0.75385044  0.52017824  1  0  0.104691  0  0.9521  0  0  0.11416  0  1.015426  0  0  0.116707  0  1.015204  0  0  0.107357  0.112199  0  1.015823  0
H  H10  1  0.09892804  0.76700905  0.51992178  1  0  0.105689  0  0.950969  0  0  0.114497  0  1.014945  0  0  0.117087  0  1.01461  0  0  0.107436  0.112564  0  1.015331  0
H  H11  1  0.57880011  0.24613750  0.47983153  1  0  0.104664  0  0.951914  0  0  0.114086  0  1.015344  0  0  0.116633  0  1.015139  0  0  0.107305  0.112124  0  1.015744  0
H  H12  1  0.90105560  0.23302213  0.48010388  1  0  0.105745  0  0.950938  0  0  0.114548  0  1.014888  0  0  0.117184  0  1.014512  0  0  0.107451  0.112618  0  1.015274  0
H  H13  1  0.37937123  0.97709559  0.67663301  1  0  0.104291  0  0.954299  0  0  0.112236  0  1.020029  0  0  0.115899  0  1.017586  0  0  0.106305  0.109589  0  1.021838  0
H  H14  1  0.29727473  0.70001158  0.67630086  1  0  0.105026  0  0.954336  0  0  0.112405  0  1.020491  0  0  0.11609  0  1.018103  0  0  0.106429  0.109756  0  1.022292  0
H  H15  1  0.62063020  0.02292075  0.32334819  1  0  0.104541  0  0.954313  0  0  0.112346  0  1.02019  0  0  0.116013  0  1.017755  0  0  0.106298  0.109719  0  1.02198  0
H  H16  1  0.70272237  0.29995679  0.32368827  1  0  0.104992  0  0.954316  0  0  0.112404  0  1.020437  0  0  0.116099  0  1.018024  0  0  0.106419  0.109754  0  1.02224  0
H  H17  1  0.30111659  0.98640519  0.88594594  1  0  0.158963  0  0.929662  0  0  0.178124  0  0.985613  0  0  0.180283  0  0.984583  0  0  0.110503  0.176533  0  0.986422  0
H  H18  1  0.58530915  0.89964375  0.88569148  1  0  0.159443  0  0.92853  0  0  0.178765  0  0.984362  0  0  0.180921  0  0.983336  0  0  0.110526  0.177166  0  0.985187  0
H  H19  1  0.69883689  0.01358033  0.11407535  1  0  0.15896  0  0.929642  0  0  0.17819  0  0.985514  0  0  0.180353  0  0.984475  0  0  0.110468  0.176596  0  0.986332  0
H  H20  1  0.41465020  0.10034498  0.11429390  1  0  0.159204  0  0.92852  0  0  0.178484  0  0.984474  0  0  0.180641  0  0.983446  0  0  0.110364  0.176882  0  0.985307  0
H  H21  1  0.11933417  0.03813502  0.80661760  1  0  0.15963  0  0.922554  0  0  0.181281  0  0.973291  0  0  0.182645  0  0.973832  0  0  0.111798  0.180223  0  0.973052  0
H  H22  1  0.68811458  0.76867085  0.80665204  1  0  0.160566  0  0.922461  0  0  0.182171  0  0.973151  0  0  0.183519  0  0.973716  0  0  0.112082  0.18111  0  0.972915  0
H  H23  1  0.88065374  0.96188790  0.19339407  1  0  0.15969  0  0.92258  0  0  0.181345  0  0.973291  0  0  0.182689  0  0.973858  0  0  0.111795  0.180286  0  0.973051  0
H  H24  1  0.31191332  0.23136114  0.19336360  1  0  0.160427  0  0.922477  0  0  0.18207  0  0.973125  0  0  0.183403  0  0.973708  0  0  0.112011  0.181029  0  0.972866  0
H  H25  1  0.08862243  0.91676517  0.89485134  1  0  0.154098  0  0.951986  0  0  0.169224  0  1.013302  0  0  0.171417  0  1.013375  0  0  0.10516  0.167594  0  1.013347  0
H  H26  1  0.80679631  0.97811094  0.89474658  1  0  0.154104  0  0.952092  0  0  0.169641  0  1.012958  0  0  0.171832  0  1.013032  0  0  0.105268  0.16799  0  1.013021  0
H  H27  1  0.91130606  0.08326680  0.10515601  1  0  0.154165  0  0.951986  0  0  0.169304  0  1.013243  0  0  0.171496  0  1.013314  0  0  0.105157  0.167676  0  1.013288  0
H  H28  1  0.19317079  0.02192970  0.10528435  1  0  0.15406  0  0.952103  0  0  0.169603  0  1.012935  0  0  0.171793  0  1.013009  0  0  0.105252  0.16797  0  1.012976  0
Pb  Pb29  1  0.50000318  0.49998155  0.00000637  1  0  1.192426  0  1.563872  0  0  0.995334  0  1.969912  0  0  1.061746  0  1.925442  0  0  0.602404  0.946618  0  2.001728  0
C  C30  1  0.60883362  0.25431746  0.81952311  1  0  0.672045  0  3.894075  0  0  0.622276  0  4.183206  0  0  0.657689  0  4.174958  0  0  0.220727  0.5982  0  4.187766  0
C  C31  1  0.21092136  0.56519361  0.81933836  1  0  0.66975  0  3.89926  0  0  0.619697  0  4.189005  0  0  0.655084  0  4.180888  0  0  0.220071  0.595655  0  4.193449  0
C  C32  1  0.39116837  0.74569614  0.18047372  1  0  0.672108  0  3.89313  0  0  0.622293  0  4.18235  0  0  0.657711  0  4.174088  0  0  0.220705  0.598217  0  4.186904  0
C  C33  1  0.78912716  0.43469759  0.18062461  1  0  0.669911  0  3.899733  0  0  0.62002  0  4.189162  0  0  0.655404  0  4.181037  0  0  0.220086  0.595971  0  4.193612  0
C  C34  1  0.63422151  0.12867310  0.72273743  1  0  -0.049672  0  3.712731  0  0  -0.028704  0  3.945655  0  0  -0.034196  0  3.965729  0  0  -0.007085  -0.025344  0  3.93249  0
C  C35  1  0.08865470  0.59414019  0.72251837  1  0  -0.049251  0  3.711891  0  0  -0.027964  0  3.94459  0  0  -0.033407  0  3.964656  0  0  -0.007282  -0.024682  0  3.93152  0
C  C36  1  0.36577407  0.87136030  0.27724395  1  0  -0.049522  0  3.712331  0  0  -0.028532  0  3.945208  0  0  -0.034019  0  3.965274  0  0  -0.006977  -0.025212  0  3.932121  0
C  C37  1  0.91135257  0.40581843  0.27747586  1  0  -0.049018  0  3.711771  0  0  -0.027698  0  3.944299  0  0  -0.033127  0  3.96434  0  0  -0.00716  -0.024409  0  3.931225  0
C  C38  1  0.79055771  0.14876657  0.69886561  1  0  -0.057699  0  3.693697  0  0  -0.080523  0  3.944051  0  0  -0.080941  0  3.962527  0  0  -0.072617  -0.080135  0  3.931594  0
C  C39  1  0.90854003  0.55001879  0.69872717  1  0  -0.057973  0  3.695981  0  0  -0.080838  0  3.946396  0  0  -0.081261  0  3.964831  0  0  -0.073128  -0.08045  0  3.933947  0
C  C40  1  0.20942538  0.85126204  0.30110120  1  0  -0.057802  0  3.693644  0  0  -0.080554  0  3.944072  0  0  -0.08097  0  3.962543  0  0  -0.072771  -0.080158  0  3.931597  0
C  C41  1  0.09148834  0.44998970  0.30130064  1  0  -0.058012  0  3.695754  0  0  -0.080941  0  3.946101  0  0  -0.081384  0  3.964554  0  0  -0.073133  -0.080537  0  3.933633  0
C  C42  1  0.81404132  0.02809138  0.61188252  1  0  -0.084848  0  3.743284  0  0  -0.107261  0  3.991917  0  0  -0.108888  0  4.012196  0  0  -0.086804  -0.106021  0  3.978083  0
C  C43  1  0.79806726  0.58367952  0.61170205  1  0  -0.083684  0  3.741244  0  0  -0.105622  0  3.990136  0  0  -0.107117  0  4.010462  0  0  -0.085769  -0.10446  0  3.976251  0
C  C44  1  0.18595451  0.97192264  0.38808807  1  0  -0.084665  0  3.742907  0  0  -0.107078  0  3.991556  0  0  -0.108702  0  4.011832  0  0  -0.086692  -0.105838  0  3.977716  0
C  C45  1  0.20196366  0.41634955  0.38834033  1  0  -0.083727  0  3.741685  0  0  -0.105657  0  3.990561  0  0  -0.107147  0  4.010877  0  0  -0.085913  -0.104502  0  3.976684  0
C  C46  1  0.68024944  0.88708286  0.54939768  1  0  -0.107138  0  3.771297  0  0  -0.081151  0  4.013686  0  0  -0.086913  0  4.038105  0  0  -0.018864  -0.077158  0  3.997033  0
C  C47  1  0.86919216  0.66247061  0.54915644  1  0  -0.108154  0  3.772028  0  0  -0.082482  0  4.014567  0  0  -0.088321  0  4.039025  0  0  -0.019562  -0.07843  0  3.997886  0
C  C48  1  0.31975824  0.11293840  0.45058709  1  0  -0.107701  0  3.77135  0  0  -0.081774  0  4.013793  0  0  -0.087538  0  4.038209  0  0  -0.019042  -0.077778  0  3.997139  0
C  C49  1  0.13079761  0.33754468  0.45087163  1  0  -0.108422  0  3.772516  0  0  -0.082805  0  4.015074  0  0  -0.088647  0  4.039551  0  0  -0.019699  -0.078751  0  3.998386  0
C  C50  1  0.52308683  0.86492276  0.57099278  1  0  -0.073142  0  3.745504  0  0  -0.095689  0  3.993759  0  0  -0.097218  0  4.015995  0  0  -0.0831  -0.094433  0  3.978577  0
C  C51  1  0.04790273  0.70647909  0.57074772  1  0  -0.072501  0  3.743516  0  0  -0.094235  0  3.991392  0  0  -0.095724  0  4.013664  0  0  -0.082226  -0.093034  0  3.976148  0
C  C52  1  0.47691987  0.13506911  0.42899124  1  0  -0.072666  0  3.745591  0  0  -0.095113  0  3.993693  0  0  -0.09665  0  4.015923  0  0  -0.082931  -0.093872  0  3.97854  0
C  C53  1  0.95210189  0.29353516  0.42928186  1  0  -0.072506  0  3.743481  0  0  -0.094219  0  3.991341  0  0  -0.095767  0  4.013614  0  0  -0.082319  -0.093015  0  3.976093  0
C  C54  1  0.50052861  0.98764232  0.65754381  1  0  -0.063786  0  3.711344  0  0  -0.087202  0  3.961977  0  0  -0.087994  0  3.981535  0  0  -0.078538  -0.086506  0  3.948668  0
C  C55  1  0.15706247  0.67016305  0.65725649  1  0  -0.066315  0  3.711196  0  0  -0.089409  0  3.962099  0  0  -0.090321  0  3.981674  0  0  -0.079179  -0.088662  0  3.948796  0
C  C56  1  0.49946999  0.01237779  0.34243002  1  0  -0.064347  0  3.711747  0  0  -0.087666  0  3.962381  0  0  -0.088473  0  3.981954  0  0  -0.078543  -0.086976  0  3.949059  0
C  C57  1  0.84294079  0.32981500  0.34274330  1  0  -0.066225  0  3.710728  0  0  -0.089358  0  3.9615  0  0  -0.090274  0  3.98109  0  0  -0.079067  -0.088618  0  3.948205  0
C  C58  1  0.17554445  0.01435821  0.88475385  1  0  -0.419133  0  3.546445  0  0  -0.492431  0  3.792184  0  0  -0.495606  0  3.797268  0  0  -0.225438  -0.490075  0  3.788858  0
C  C59  1  0.70977358  0.87050943  0.88469602  1  0  -0.42136  0  3.54599  0  0  -0.495015  0  3.791602  0  0  -0.498216  0  3.796715  0  0  -0.225977  -0.492627  0  3.788292  0
C  C60  1  0.82441986  0.98565579  0.11525894  1  0  -0.419402  0  3.546472  0  0  -0.492786  0  3.792193  0  0  -0.495937  0  3.797265  0  0  -0.225475  -0.490431  0  3.788872  0
C  C61  1  0.29020327  0.12951455  0.11531631  1  0  -0.420858  0  3.545614  0  0  -0.494526  0  3.791308  0  0  -0.497709  0  3.796434  0  0  -0.225698  -0.49216  0  3.78795  0
S  S62  1  0.72530314  0.72561732  0.45072666  1  0  1.064207  0  5.237545  0  0  0.988058  0  5.731972  0  0  1.027015  0  5.719906  0  0  0.477087  0.960477  0  5.740825  0
S  S63  1  0.27470528  0.27437150  0.54928998  1  0  1.06439  0  5.237889  0  0  0.988369  0  5.732122  0  0  1.027301  0  5.72008  0  0  0.477274  0.960787  0  5.740981  0
S  S64  1  0.21668644  0.20132443  0.99995296  1  0  0.705192  0  3.688474  0  0  0.694899  0  4.130204  0  0  0.70867  0  4.127615  0  0  0.326493  0.685148  0  4.131756  0
S  S65  1  0.78328958  0.79869109  0.00005292  1  0  0.705469  0  3.688341  0  0  0.695194  0  4.130075  0  0  0.70897  0  4.127484  0  0  0.326635  0.685442  0  4.131615  0
O  O66  1  0.47746102  0.21763341  0.84805627  1  0  -0.627952  0  1.957166  0  0  -0.56976  0  2.188199  0  0  -0.598562  0  2.181818  0  0  -0.30052  -0.549491  0  2.191874  0
O  O67  1  0.37077006  0.63013971  0.84769402  1  0  -0.626771  0  1.961346  0  0  -0.568483  0  2.192248  0  0  -0.597313  0  2.186085  0  0  -0.300186  -0.548199  0  2.195767  0
O  O68  1  0.52253893  0.78237189  0.15192474  1  0  -0.628238  0  1.956864  0  0  -0.569992  0  2.187889  0  0  -0.598801  0  2.181509  0  0  -0.300611  -0.549718  0  2.191561  0
O  O69  1  0.62928841  0.36966930  0.15221795  1  0  -0.626827  0  1.961443  0  0  -0.568609  0  2.19229  0  0  -0.597441  0  2.186125  0  0  -0.300071  -0.548323  0  2.195813  0
O  O70  1  0.72274636  0.39187952  0.86896432  1  0  -0.745855  0  1.999685  0  0  -0.677714  0  2.246238  0  0  -0.708116  0  2.235912  0  0  -0.379025  -0.655859  0  2.252424  0
O  O71  1  0.14653922  0.47718704  0.86899281  1  0  -0.745667  0  2.002484  0  0  -0.677274  0  2.249008  0  0  -0.707708  0  2.238753  0  0  -0.378931  -0.655358  0  2.255073  0
O  O72  1  0.27723039  0.60813885  0.13102080  1  0  -0.745867  0  1.999111  0  0  -0.677748  0  2.245777  0  0  -0.708148  0  2.235444  0  0  -0.379137  -0.655891  0  2.251963  0
O  O73  1  0.85350198  0.52275614  0.13100092  1  0  -0.745842  0  2.002622  0  0  -0.67749  0  2.248971  0  0  -0.707919  0  2.238715  0  0  -0.379072  -0.655597  0  2.255091  0
O  O74  1  0.56743404  0.59681490  0.38926833  1  0  -0.564493  0  1.942276  0  0  -0.517325  0  2.183638  0  0  -0.536473  0  2.173765  0  0  -0.30525  -0.503668  0  2.18996  0
O  O75  1  0.82150280  0.79305820  0.38904122  1  0  -0.565291  0  1.944477  0  0  -0.517317  0  2.185093  0  0  -0.53655  0  2.175363  0  0  -0.304976  -0.503636  0  2.19141  0
O  O76  1  0.43259595  0.40316951  0.61073878  1  0  -0.564491  0  1.942053  0  0  -0.517434  0  2.183445  0  0  -0.536542  0  2.173538  0  0  -0.305335  -0.503779  0  2.189769  0
O  O77  1  0.17853562  0.20690433  0.61096363  1  0  -0.565311  0  1.945257  0  0  -0.517287  0  2.185758  0  0  -0.536519  0  2.176039  0  0  -0.30499  -0.50361  0  2.192079  0
O  O78  1  0.04014557  0.23570650  0.99975557  1  0  -0.693326  0  1.869615  0  0  -0.626287  0  2.119945  0  0  -0.649786  0  2.113808  0  0  -0.389982  -0.609313  0  2.123531  0
O  O79  1  0.95983035  0.76431880  0.00025151  1  0  -0.693383  0  1.869552  0  0  -0.626425  0  2.119959  0  0  -0.64993  0  2.113824  0  0  -0.390068  -0.609443  0  2.123541  0
