# generated using pymatgen
data_CdH22C24Br2(N2O3)2
_symmetry_space_group_name_H-M   'P 1'
_cell_length_a   11.38236415
_cell_length_b   11.53146248
_cell_length_c   12.00807494
_cell_angle_alpha   89.49056013
_cell_angle_beta   65.88650423
_cell_angle_gamma   68.31778797
_symmetry_Int_Tables_number   1
_chemical_formula_structural   CdH22C24Br2(N2O3)2
_chemical_formula_sum   'Cd2 H44 C48 Br4 N8 O12'
_cell_volume   1317.92227048
_cell_formula_units_Z   2
loop_
 _symmetry_equiv_pos_site_id
 _symmetry_equiv_pos_as_xyz
  1  'x, y, z'
loop_
 _atom_site_type_symbol
 _atom_site_label
 _atom_site_symmetry_multiplicity
 _atom_site_fract_x
 _atom_site_fract_y
 _atom_site_fract_z
 _atom_site_occupancy
 _atom_site_hle17_bader_spin_density
 _atom_site_hle17_ddec_charge
 _atom_site_hle17_ddec_spin_density
 _atom_site_hle17_ddec_sum_bond_order
 _atom_site_hle17_magmom
 _atom_site_hse06_10hf_bader_spin_density
 _atom_site_hse06_10hf_ddec_charge
 _atom_site_hse06_10hf_ddec_spin_density
 _atom_site_hse06_10hf_ddec_sum_bond_order
 _atom_site_hse06_10hf_magmom
 _atom_site_hse06_bader_spin_density
 _atom_site_hse06_ddec_charge
 _atom_site_hse06_ddec_spin_density
 _atom_site_hse06_ddec_sum_bond_order
 _atom_site_hse06_magmom
 _atom_site_pbe_bader_spin_density
 _atom_site_pbe_cm5_charge
 _atom_site_pbe_ddec_charge
 _atom_site_pbe_ddec_spin_density
 _atom_site_pbe_ddec_sum_bond_order
 _atom_site_pbe_magmom
Cd  Cd0  1  0.65935242  0.08917828  0.62016916  1  0  1.102967  0  1.69862  0  0  0.899346  0  2.147077  0  0  0.955069  0  2.098912  0  0  0.788746  0.859834  0  2.179734  0
Cd  Cd1  1  0.34062196  0.91081651  0.37987233  1  0  1.103069  0  1.698654  0  0  0.899471  0  2.147132  0  0  0.955193  0  2.098955  0  0  0.788777  0.859963  0  2.179815  0
H  H2  1  0.80452555  0.98850103  0.82143000  1  0  0.102267  0  0.9792  0  0  0.106675  0  1.051182  0  0  0.109965  0  1.046975  0  0  0.129899  0.104207  0  1.054155  0
H  H3  1  0.19547780  0.01150218  0.17856520  1  0  0.102237  0  0.979117  0  0  0.106633  0  1.051129  0  0  0.109925  0  1.046918  0  0  0.129861  0.104159  0  1.054112  0
H  H4  1  0.09614331  0.15313680  0.64320392  1  0  0.11079  0  0.984995  0  0  0.117068  0  1.0539  0  0  0.119301  0  1.053651  0  0  0.117725  0.115435  0  1.054177  0
H  H5  1  0.90385368  0.84687201  0.35678533  1  0  0.110752  0  0.984971  0  0  0.117094  0  1.053773  0  0  0.119327  0  1.05352  0  0  0.11775  0.11546  0  1.054043  0
H  H6  1  0.90551359  0.20436626  0.53918943  1  0  0.108921  0  0.959637  0  0  0.118528  0  1.018546  0  0  0.121424  0  1.016885  0  0  0.114248  0.116304  0  1.020041  0
H  H7  1  0.09448047  0.79563406  0.46080940  1  0  0.108953  0  0.95954  0  0  0.118559  0  1.01847  0  0  0.121479  0  1.016779  0  0  0.114254  0.11633  0  1.019972  0
H  H8  1  0.10110632  0.89877460  0.79658033  1  0  0.066952  0  0.944546  0  0  0.08051  0  1.012944  0  0  0.079891  0  1.014549  0  0  0.103754  0.080836  0  1.01191  0
H  H9  1  0.89889779  0.10122478  0.20340963  1  0  0.066942  0  0.944609  0  0  0.080436  0  1.013093  0  0  0.079813  0  1.014703  0  0  0.103705  0.080763  0  1.01206  0
H  H10  1  0.13076181  0.03774564  0.80312165  1  0  0.086236  0  0.911028  0  0  0.104088  0  0.968289  0  0  0.104696  0  0.968399  0  0  0.115102  0.103475  0  0.968486  0
H  H11  1  0.86923143  0.96226508  0.19687319  1  0  0.086309  0  0.910908  0  0  0.104202  0  0.968115  0  0  0.104823  0  0.968201  0  0  0.115115  0.103579  0  0.968318  0
H  H12  1  0.87134653  0.99822888  0.98809656  1  0  0.068278  0  0.94326  0  0  0.085937  0  1.005202  0  0  0.085975  0  1.006812  0  0  0.089222  0.085806  0  1.004182  0
H  H13  1  0.12864735  0.00177614  0.01189562  1  0  0.068193  0  0.943372  0  0  0.085838  0  1.005315  0  0  0.085873  0  1.006917  0  0  0.089166  0.085702  0  1.004302  0
H  H14  1  0.90509143  0.13502032  0.99670394  1  0  0.074675  0  0.945387  0  0  0.090623  0  1.009756  0  0  0.090846  0  1.011606  0  0  0.089273  0.09041  0  1.008589  0
H  H15  1  0.09491193  0.86498286  0.00328792  1  0  0.074715  0  0.945394  0  0  0.090618  0  1.009797  0  0  0.090839  0  1.011643  0  0  0.089273  0.090407  0  1.008622  0
H  H16  1  0.74888214  0.79763966  0.72262807  1  0  0.101849  0  0.968986  0  0  0.106088  0  1.041983  0  0  0.109638  0  1.037399  0  0  0.129046  0.103486  0  1.045178  0
H  H17  1  0.25110826  0.20235594  0.27737723  1  0  0.101818  0  0.969112  0  0  0.106086  0  1.042068  0  0  0.10964  0  1.037478  0  0  0.129056  0.103462  0  1.045286  0
H  H18  1  0.62999176  0.90000399  0.43332822  1  0  0.118078  0  0.949342  0  0  0.126847  0  1.009077  0  0  0.129655  0  1.007305  0  0  0.120466  0.124699  0  1.010697  0
H  H19  1  0.37001178  0.09998594  0.56666709  1  0  0.117965  0  0.949324  0  0  0.126714  0  1.009086  0  0  0.129519  0  1.00732  0  0  0.12043  0.12456  0  1.01071  0
H  H20  1  0.70176126  0.64115529  0.43333131  1  0  0.131357  0  0.976272  0  0  0.138983  0  1.03905  0  0  0.142896  0  1.036046  0  0  0.123538  0.136091  0  1.041378  0
H  H21  1  0.29822727  0.35884878  0.56666628  1  0  0.131332  0  0.97645  0  0  0.138937  0  1.039238  0  0  0.14286  0  1.036229  0  0  0.123497  0.136046  0  1.041564  0
H  H22  1  0.72401848  0.51403080  0.62783374  1  0  0.087771  0  0.915201  0  0  0.106368  0  0.969431  0  0  0.106413  0  0.97059  0  0  0.114015  0.1062  0  0.968779  0
H  H23  1  0.27598975  0.48596583  0.37216633  1  0  0.087833  0  0.915145  0  0  0.10646  0  0.969324  0  0  0.106507  0  0.97048  0  0  0.114051  0.106286  0  0.968678  0
H  H24  1  0.80488584  0.56970186  0.70115521  1  0  0.07087  0  0.942799  0  0  0.08563  0  1.010852  0  0  0.086489  0  1.010129  0  0  0.101946  0.084871  0  1.011553  0
H  H25  1  0.19512713  0.43030993  0.29883865  1  0  0.070849  0  0.942843  0  0  0.085571  0  1.010895  0  0  0.086427  0  1.010173  0  0  0.101925  0.084814  0  1.011589  0
H  H26  1  0.97653365  0.38018968  0.54040008  1  0  0.073809  0  0.944271  0  0  0.092999  0  1.004887  0  0  0.093136  0  1.006484  0  0  0.093844  0.092858  0  1.003855  0
H  H27  1  0.02346876  0.61981350  0.45959132  1  0  0.073788  0  0.944146  0  0  0.092989  0  1.004776  0  0  0.093129  0  1.006369  0  0  0.093837  0.092851  0  1.003742  0
H  H28  1  0.93573481  0.45834018  0.42525870  1  0  0.071822  0  0.930015  0  0  0.091017  0  0.990297  0  0  0.091962  0  0.990166  0  0  0.092437  0.090247  0  0.990467  0
H  H29  1  0.06427015  0.54166588  0.57473668  1  0  0.071788  0  0.930088  0  0  0.090998  0  0.99036  0  0  0.091936  0  0.990233  0  0  0.092436  0.090225  0  0.990538  0
H  H30  1  0.57780781  0.60307458  0.26768531  1  0  0.127798  0  0.961003  0  0  0.135523  0  1.021273  0  0  0.139399  0  1.019677  0  0  0.104944  0.132784  0  1.022576  0
H  H31  1  0.42219983  0.39692767  0.73230408  1  0  0.127815  0  0.961211  0  0  0.135595  0  1.021427  0  0  0.13947  0  1.01983  0  0  0.104958  0.132851  0  1.022734  0
H  H32  1  0.52497581  0.52061731  0.11023786  1  0  0.091755  0  0.979481  0  0  0.096727  0  1.051607  0  0  0.10059  0  1.048022  0  0  0.089931  0.093996  0  1.053973  0
H  H33  1  0.47502599  0.47939151  0.88974870  1  0  0.091839  0  0.979702  0  0  0.096813  0  1.051763  0  0  0.100667  0  1.048191  0  0  0.090003  0.094118  0  1.0541  0
H  H34  1  0.60557832  0.16175428  0.24136160  1  0  0.118372  0  0.929988  0  0  0.129266  0  0.988767  0  0  0.133299  0  0.985431  0  0  0.10832  0.126462  0  0.99102  0
H  H35  1  0.39442397  0.83825556  0.75863475  1  0  0.118502  0  0.929949  0  0  0.129382  0  0.988739  0  0  0.133427  0  0.985371  0  0  0.108367  0.126575  0  0.990997  0
H  H36  1  0.00544354  0.26433908  0.21757771  1  0  0.110257  0  0.9345  0  0  0.123099  0  0.989577  0  0  0.126936  0  0.987657  0  0  0.104473  0.120282  0  0.99123  0
H  H37  1  0.99455971  0.73566221  0.78241505  1  0  0.110207  0  0.934395  0  0  0.123087  0  0.989446  0  0  0.126906  0  0.987553  0  0  0.104425  0.120268  0  0.991105  0
H  H38  1  0.83529230  0.38438313  0.13560471  1  0  0.096491  0  0.999476  0  0  0.106828  0  1.061194  0  0  0.108275  0  1.061943  0  0  0.09718  0.105613  0  1.060966  0
H  H39  1  0.16470251  0.61562194  0.86439376  1  0  0.096588  0  0.999255  0  0  0.106874  0  1.061024  0  0  0.108306  0  1.061789  0  0  0.097149  0.105657  0  1.060791  0
H  H40  1  0.17702400  0.30876276  0.77239676  1  0  0.109287  0  0.962544  0  0  0.116366  0  1.031289  0  0  0.119844  0  1.028609  0  0  0.104104  0.113888  0  1.03317  0
H  H41  1  0.82297383  0.69125274  0.22759874  1  0  0.109256  0  0.962566  0  0  0.116346  0  1.031307  0  0  0.119832  0  1.028616  0  0  0.104059  0.113867  0  1.033183  0
H  H42  1  0.67812010  0.40150540  0.46994608  1  0  0.377722  0  0.916457  0  0  0.349953  0  0.992121  0  0  0.362271  0  0.979261  0  0  0.293841  0.341273  0  1.001064  0
H  H43  1  0.32188174  0.59850754  0.53008622  1  0  0.37785  0  0.916768  0  0  0.350045  0  0.99244  0  0  0.362357  0  0.979582  0  0  0.293956  0.341373  0  1.001386  0
H  H44  1  0.37403312  0.11559076  0.01117059  1  0  0.387926  0  0.893153  0  0  0.358856  0  0.969893  0  0  0.371731  0  0.955989  0  0  0.294066  0.349836  0  0.97943  0
H  H45  1  0.62596492  0.88441790  0.98879578  1  0  0.387908  0  0.893267  0  0  0.358871  0  0.969964  0  0  0.371747  0  0.956059  0  0  0.294065  0.349853  0  0.979498  0
C  C46  1  0.85783742  0.03992023  0.75790267  1  0  0.156121  0  3.652233  0  0  0.093786  0  3.916411  0  0  0.107957  0  3.929303  0  0  0.134719  0.084642  0  3.907403  0
C  C47  1  0.14216688  0.96007442  0.24208894  1  0  0.156097  0  3.651928  0  0  0.093767  0  3.916118  0  0  0.107939  0  3.929017  0  0  0.134691  0.084628  0  3.907115  0
C  C48  1  0.00794578  0.12762637  0.66318579  1  0  -0.068556  0  3.694165  0  0  -0.110667  0  3.959336  0  0  -0.108948  0  3.977829  0  0  -0.004298  -0.111731  0  3.946888  0
C  C49  1  0.99205832  0.87237302  0.33680501  1  0  -0.068393  0  3.694514  0  0  -0.110554  0  3.959702  0  0  -0.108833  0  3.978201  0  0  -0.004304  -0.111616  0  3.947236  0
C  C50  1  0.91428226  0.15208111  0.61277575  1  0  -0.007528  0  3.775518  0  0  -0.044338  0  4.043306  0  0  -0.042435  0  4.063969  0  0  -0.012152  -0.045591  0  4.02935  0
C  C51  1  0.08570607  0.84791912  0.38721614  1  0  -0.007697  0  3.775504  0  0  -0.044504  0  4.043287  0  0  -0.042622  0  4.063937  0  0  -0.012241  -0.045757  0  4.029334  0
C  C52  1  0.04821840  0.00178118  0.82711944  1  0  0.009153  0  3.623788  0  0  -0.05267  0  3.881139  0  0  -0.048033  0  3.892714  0  0  -0.051815  -0.055727  0  3.873432  0
C  C53  1  0.95178475  0.99822675  0.17287494  1  0  0.009164  0  3.623873  0  0  -0.052653  0  3.881212  0  0  -0.048019  0  3.892785  0  0  -0.051738  -0.055703  0  3.873482  0
C  C54  1  0.95586219  0.03188461  0.96590246  1  0  -0.127746  0  3.687004  0  0  -0.166939  0  3.945199  0  0  -0.16886  0  3.960249  0  0  -0.164146  -0.165532  0  3.934907  0
C  C55  1  0.04414183  0.96812141  0.03408745  1  0  -0.127667  0  3.686979  0  0  -0.16681  0  3.945184  0  0  -0.168707  0  3.960219  0  0  -0.164077  -0.1654  0  3.934886  0
C  C56  1  0.73001306  0.79184288  0.64151458  1  0  0.149689  0  3.673357  0  0  0.089965  0  3.936446  0  0  0.103256  0  3.950541  0  0  0.13515  0.081403  0  3.926603  0
C  C57  1  0.26997587  0.20815173  0.35848632  1  0  0.149831  0  3.672885  0  0  0.090092  0  3.935926  0  0  0.103371  0  3.950019  0  0  0.135199  0.081554  0  3.926096  0
C  C58  1  0.66824323  0.84018488  0.49160652  1  0  0.008738  0  3.744472  0  0  -0.025141  0  4.012956  0  0  -0.022069  0  4.031715  0  0  -0.004541  -0.027296  0  4.000547  0
C  C59  1  0.33176139  0.15979836  0.50838096  1  0  0.008904  0  3.74456  0  0  -0.02492  0  4.012983  0  0  -0.021855  0  4.031757  0  0  -0.004504  -0.027068  0  4.000574  0
C  C60  1  0.70537956  0.71227637  0.48884522  1  0  -0.060016  0  3.635916  0  0  -0.102863  0  3.899308  0  0  -0.102168  0  3.917329  0  0  0.000961  -0.103323  0  3.887403  0
C  C61  1  0.29461614  0.28772675  0.51114544  1  0  -0.060166  0  3.635996  0  0  -0.103028  0  3.89946  0  0  -0.102339  0  3.917463  0  0  0.001004  -0.103476  0  3.887518  0
C  C62  1  0.79963017  0.55701863  0.61301525  1  0  0.001558  0  3.624986  0  0  -0.059524  0  3.881716  0  0  -0.055243  0  3.893234  0  0  -0.050336  -0.06229  0  3.873982  0
C  C63  1  0.20038116  0.44298179  0.38698107  1  0  0.001577  0  3.624977  0  0  -0.059446  0  3.881617  0  0  -0.055157  0  3.893118  0  0  -0.050329  -0.062213  0  3.873883  0
C  C64  1  0.94458293  0.47321788  0.51158966  1  0  -0.129596  0  3.689187  0  0  -0.174161  0  3.955784  0  0  -0.175302  0  3.9692  0  0  -0.164835  -0.173195  0  3.94641  0
C  C65  1  0.05542199  0.52677969  0.48841084  1  0  -0.129511  0  3.689113  0  0  -0.174134  0  3.955746  0  0  -0.175262  0  3.969143  0  0  -0.164859  -0.173171  0  3.94638  0
C  C66  1  0.63167872  0.30324872  0.33318019  1  0  -0.209802  0  3.772622  0  0  -0.191475  0  4.019922  0  0  -0.205126  0  4.041799  0  0  -0.041521  -0.182657  0  4.005184  0
C  C67  1  0.36833249  0.69668760  0.66687285  1  0  -0.209971  0  3.772901  0  0  -0.191757  0  4.02033  0  0  -0.205437  0  4.042233  0  0  -0.041491  -0.182937  0  4.005585  0
C  C68  1  0.62597664  0.42818882  0.33905961  1  0  0.334347  0  3.799028  0  0  0.31521  0  4.065032  0  0  0.330906  0  4.078244  0  0  0.087642  0.304616  0  4.055809  0
C  C69  1  0.37402211  0.57177747  0.66095036  1  0  0.334491  0  3.799563  0  0  0.31542  0  4.065524  0  0  0.331126  0  4.078716  0  0  0.087698  0.304837  0  4.056292  0
C  C70  1  0.58451277  0.50644799  0.25998216  1  0  -0.178771  0  3.702089  0  0  -0.193528  0  3.954028  0  0  -0.200651  0  3.971113  0  0  -0.105199  -0.189068  0  3.942653  0
C  C71  1  0.41549625  0.49353829  0.74002774  1  0  -0.178693  0  3.702532  0  0  -0.193546  0  3.954462  0  0  -0.200662  0  3.971531  0  0  -0.105213  -0.189093  0  3.943102  0
C  C72  1  0.55508456  0.46000937  0.17251110  1  0  -0.092348  0  3.800816  0  0  -0.116888  0  4.056074  0  0  -0.113735  0  4.073208  0  0  -0.097427  -0.118519  0  4.044203  0
C  C73  1  0.44491846  0.53998814  0.82748264  1  0  -0.09257  0  3.801148  0  0  -0.117075  0  4.056451  0  0  -0.113922  0  4.073584  0  0  -0.097502  -0.118739  0  4.044556  0
C  C74  1  0.56623353  0.33484785  0.16391292  1  0  0.043477  0  3.760205  0  0  0.05805  0  4.037793  0  0  0.056706  0  4.060842  0  0  -0.038281  0.058608  0  4.022277  0
C  C75  1  0.43377449  0.66516208  0.83609037  1  0  0.043812  0  3.760755  0  0  0.058361  0  4.038333  0  0  0.057023  0  4.061374  0  0  -0.038218  0.058919  0  4.022821  0
C  C76  1  0.60168571  0.25756209  0.24434661  1  0  -0.093068  0  3.760939  0  0  -0.13051  0  4.02235  0  0  -0.126373  0  4.040285  0  0  -0.0936  -0.13272  0  4.009869  0
C  C77  1  0.39832412  0.74243950  0.75568191  1  0  -0.093327  0  3.761423  0  0  -0.130707  0  4.022829  0  0  -0.126569  0  4.040781  0  0  -0.093602  -0.132919  0  4.010352  0
C  C78  1  0.66362668  0.22400083  0.42348362  1  0  0.643039  0  3.915189  0  0  0.593574  0  4.201617  0  0  0.629192  0  4.194531  0  0  0.192783  0.569443  0  4.205653  0
C  C79  1  0.33639931  0.77592406  0.57654637  1  0  0.64342  0  3.914206  0  0  0.59401  0  4.200649  0  0  0.629638  0  4.19355  0  0  0.192993  0.56988  0  4.204702  0
C  C80  1  0.23473982  0.23028511  0.91461039  1  0  -0.197618  0  3.774505  0  0  -0.180355  0  4.018636  0  0  -0.194019  0  4.041069  0  0  -0.040505  -0.171691  0  4.00399  0
C  C81  1  0.76525130  0.76973035  0.08538604  1  0  -0.197424  0  3.774553  0  0  -0.1802  0  4.018659  0  0  -0.193862  0  4.041096  0  0  -0.040335  -0.171553  0  4.004021  0
C  C82  1  0.18645660  0.21544700  0.04056383  1  0  0.317526  0  3.830699  0  0  0.297463  0  4.101144  0  0  0.312587  0  4.115762  0  0  0.082203  0.287275  0  4.091159  0
C  C83  1  0.81353637  0.78456859  0.95944854  1  0  0.317579  0  3.830755  0  0  0.297652  0  4.101019  0  0  0.312776  0  4.115623  0  0  0.082257  0.28747  0  4.091036  0
C  C84  1  0.04216438  0.27286273  0.11979710  1  0  -0.191381  0  3.743094  0  0  -0.210566  0  4.006085  0  0  -0.217927  0  4.023686  0  0  -0.108402  -0.205696  0  3.994041  0
C  C85  1  0.95782724  0.72715373  0.88020745  1  0  -0.191419  0  3.742928  0  0  -0.210674  0  4.005903  0  0  -0.21802  0  4.023505  0  0  -0.108431  -0.205811  0  3.99386  0
C  C86  1  0.94703637  0.34028407  0.07417565  1  0  -0.076633  0  3.766968  0  0  -0.100944  0  4.017995  0  0  -0.097485  0  4.036808  0  0  -0.093254  -0.102739  0  4.00491  0
C  C87  1  0.05295472  0.65973143  0.92582662  1  0  -0.076821  0  3.767032  0  0  -0.101107  0  4.018072  0  0  -0.097637  0  4.036889  0  0  -0.093211  -0.102899  0  4.004978  0
C  C88  1  0.99554388  0.35147827  0.94881325  1  0  0.066114  0  3.73344  0  0  0.082315  0  4.003386  0  0  0.081307  0  4.025584  0  0  -0.030036  0.08273  0  3.988142  0
C  C89  1  0.00444393  0.64854668  0.05118766  1  0  0.066288  0  3.733512  0  0  0.08257  0  4.0033  0  0  0.081564  0  4.025498  0  0  -0.029978  0.082978  0  3.988049  0
C  C90  1  0.13777553  0.29878440  0.86957329  1  0  -0.093785  0  3.754625  0  0  -0.127061  0  4.006709  0  0  -0.123006  0  4.024507  0  0  -0.092261  -0.129498  0  3.994721  0
C  C91  1  0.86220770  0.70123576  0.13042530  1  0  -0.093958  0  3.754912  0  0  -0.127279  0  4.007015  0  0  -0.123247  0  4.024835  0  0  -0.092372  -0.129699  0  3.995012  0
C  C92  1  0.38753959  0.17479650  0.83090990  1  0  0.640278  0  3.930089  0  0  0.591547  0  4.214943  0  0  0.626753  0  4.208669  0  0  0.194945  0.567812  0  4.218222  0
C  C93  1  0.61243530  0.82522934  0.16909516  1  0  0.640534  0  3.929702  0  0  0.591788  0  4.214611  0  0  0.626999  0  4.208321  0  0  0.195008  0.568068  0  4.217881  0
Br  Br94  1  0.53259947  0.26882252  0.03988063  1  0  -0.064911  0  1.284557  0  0  -0.059519  0  1.53981  0  0  -0.063014  0  1.532185  0  0  0.033098  -0.056721  0  1.544514  0
Br  Br95  1  0.46742226  0.73117407  0.96010090  1  0  -0.064913  0  1.284886  0  0  -0.05949  0  1.540162  0  0  -0.062988  0  1.532533  0  0  0.033136  -0.056692  0  1.544861  0
Br  Br96  1  0.86236331  0.44005491  0.88718387  1  0  -0.083362  0  1.266953  0  0  -0.077344  0  1.514321  0  0  -0.082448  0  1.510803  0  0  0.030182  -0.073802  0  1.516517  0
Br  Br97  1  0.13763292  0.55996631  0.11281717  1  0  -0.083352  0  1.266812  0  0  -0.077355  0  1.514116  0  0  -0.082455  0  1.510599  0  0  0.030175  -0.073828  0  1.516314  0
N  N98  1  0.82143454  0.09699562  0.67281331  1  0  -0.402376  0  3.332145  0  0  -0.317119  0  3.622537  0  0  -0.340269  0  3.640223  0  0  -0.369366  -0.301358  0  3.609938  0
N  N99  1  0.17857754  0.90300101  0.32718277  1  0  -0.402232  0  3.331631  0  0  -0.316965  0  3.622015  0  0  -0.340115  0  3.639695  0  0  -0.369175  -0.301207  0  3.609435  0
N  N100  1  0.97117428  0.05657785  0.75427174  1  0  -0.050546  0  3.55422  0  0  0.045491  0  3.768599  0  0  0.031051  0  3.794195  0  0  -0.237941  0.05492  0  3.751297  0
N  N101  1  0.02882354  0.94342054  0.24571900  1  0  -0.050653  0  3.554202  0  0  0.045353  0  3.76865  0  0  0.03091  0  3.794243  0  0  -0.238037  0.054792  0  3.751331  0
N  N102  1  0.68436562  0.88846525  0.58689025  1  0  -0.409308  0  3.303948  0  0  -0.326931  0  3.589617  0  0  -0.349609  0  3.607268  0  0  -0.370371  -0.311291  0  3.576959  0
N  N103  1  0.31562571  0.11153898  0.41312791  1  0  -0.409316  0  3.304602  0  0  -0.326958  0  3.590265  0  0  -0.349627  0  3.607925  0  0  -0.370435  -0.311334  0  3.577613  0
N  N104  1  0.74415715  0.68340220  0.58415701  1  0  -0.062136  0  3.580374  0  0  0.033812  0  3.796187  0  0  0.018753  0  3.82448  0  0  -0.244767  0.043735  0  3.777037  0
N  N105  1  0.25583730  0.31659724  0.41585167  1  0  -0.06226  0  3.58055  0  0  0.03369  0  3.796302  0  0  0.01864  0  3.824593  0  0  -0.244772  0.043618  0  3.77714  0
O  O106  1  0.69067867  0.27131177  0.50307406  1  0  -0.649123  0  1.964858  0  0  -0.58161  0  2.189038  0  0  -0.60868  0  2.177618  0  0  -0.328043  -0.562692  0  2.196397  0
O  O107  1  0.30929674  0.72863571  0.49698268  1  0  -0.649377  0  1.964583  0  0  -0.581828  0  2.188714  0  0  -0.608927  0  2.177356  0  0  -0.328227  -0.562893  0  2.196024  0
O  O108  1  0.66111444  0.11479873  0.42403062  1  0  -0.624709  0  1.963241  0  0  -0.562554  0  2.208862  0  0  -0.590694  0  2.200119  0  0  -0.327001  -0.542927  0  2.214124  0
O  O109  1  0.33894137  0.88512202  0.57592127  1  0  -0.624813  0  1.96329  0  0  -0.562808  0  2.209202  0  0  -0.590921  0  2.200368  0  0  -0.327183  -0.543151  0  2.214417  0
O  O110  1  0.66060252  0.47321126  0.41906781  1  0  -0.521041  0  2.114479  0  0  -0.471555  0  2.332158  0  0  -0.492449  0  2.323717  0  0  -0.348658  -0.456555  0  2.337355  0
O  O111  1  0.33940126  0.52679098  0.58092473  1  0  -0.521362  0  2.114727  0  0  -0.471773  0  2.332289  0  0  -0.492677  0  2.323867  0  0  -0.348933  -0.456791  0  2.337486  0
O  O112  1  0.42692955  0.19766856  0.71982867  1  0  -0.622691  0  2.018002  0  0  -0.545322  0  2.261476  0  0  -0.574983  0  2.250645  0  0  -0.32351  -0.52453  0  2.267851  0
O  O113  1  0.57305740  0.80240113  0.28019528  1  0  -0.622945  0  2.017841  0  0  -0.545509  0  2.261299  0  0  -0.575168  0  2.250455  0  0  -0.323536  -0.524748  0  2.267733  0
O  O114  1  0.47347106  0.10763371  0.87245025  1  0  -0.623484  0  1.942077  0  0  -0.565442  0  2.16059  0  0  -0.590521  0  2.149911  0  0  -0.324767  -0.548062  0  2.167202  0
O  O115  1  0.52650917  0.89234172  0.12752845  1  0  -0.623564  0  1.942233  0  0  -0.565562  0  2.16077  0  0  -0.590638  0  2.150086  0  0  -0.324857  -0.548183  0  2.167387  0
O  O116  1  0.27668535  0.14695030  0.08595954  1  0  -0.525786  0  2.138452  0  0  -0.473558  0  2.358818  0  0  -0.494187  0  2.34785  0  0  -0.344727  -0.458908  0  2.36561  0
O  O117  1  0.72332713  0.85307758  0.91402845  1  0  -0.52577  0  2.138475  0  0  -0.473634  0  2.358807  0  0  -0.49426  0  2.347826  0  0  -0.34475  -0.458991  0  2.365612  0
