# generated using pymatgen
data_ZnH12C20INO5
_symmetry_space_group_name_H-M   'P 1'
_cell_length_a   14.86234620
_cell_length_b   16.12119752
_cell_length_c   16.18475692
_cell_angle_alpha   89.91309604
_cell_angle_beta   89.74922891
_cell_angle_gamma   89.89849486
_symmetry_Int_Tables_number   1
_chemical_formula_structural   ZnH12C20INO5
_chemical_formula_sum   'Zn2 H24 C40 I2 N2 O10'
_cell_volume   3877.80099845
_cell_formula_units_Z   2
loop_
 _symmetry_equiv_pos_site_id
 _symmetry_equiv_pos_as_xyz
  1  'x, y, z'
loop_
 _atom_site_type_symbol
 _atom_site_label
 _atom_site_symmetry_multiplicity
 _atom_site_fract_x
 _atom_site_fract_y
 _atom_site_fract_z
 _atom_site_occupancy
 _atom_site_pbe_bader_charge
 _atom_site_pbe_bader_spin_density
 _atom_site_pbe_cm5_charge
 _atom_site_pbe_ddec_charge
 _atom_site_pbe_ddec_spin_density
 _atom_site_pbe_ddec_sum_bond_order
 _atom_site_pbe_magmom
Zn  Zn0  1  0.59422758  0.49979112  0.49982106  1  1.290243  0  0.679269  0.887193  0  2.420735  0
Zn  Zn1  1  0.40574932  0.49990994  0.50023453  1  1.305773  0  0.679469  0.888128  0  2.420249  0
H  H2  1  0.41769582  0.94787133  0.62089774  1  0.063123  0  0.10141  0.088598  0  0.990885  0
H  H3  1  0.91307591  0.49756277  0.36844854  1  0.135791  0  0.12918  0.145905  0  0.955804  0
H  H4  1  0.75778490  0.60251488  0.10602548  1  0.048298  0  0.105742  0.07267  0  0.95368  0
H  H5  1  0.70257716  0.61160202  0.00899522  1  0.060331  0  0.099606  0.058358  0  0.989799  0
H  H6  1  0.83756090  0.47622671  0.05948970  1  0.039505  0  0.093427  0.089079  0  0.968789  0
H  H7  1  0.77997160  0.47697940  0.96458206  1  0.030862  0  0.091216  0.084864  0  0.984709  0
H  H8  1  0.84836047  0.61622514  0.92855319  1  0.014773  0  0.083326  0.108065  0  1.007392  0
H  H9  1  0.93395887  0.54181174  0.94843991  1  -0.018442  0  0.085071  0.112404  0  1.017278  0
H  H10  1  0.90598385  0.61701338  0.02418652  1  0.028616  0  0.086871  0.112083  0  1.005056  0
H  H11  1  0.24183382  0.60214804  0.89369181  1  0.056044  0  0.105883  0.07279  0  0.953724  0
H  H12  1  0.29693377  0.61122834  0.99075843  1  0.06326  0  0.099844  0.058597  0  0.989076  0
H  H13  1  0.58235662  0.05191287  0.37905960  1  0.076983  0  0.101614  0.089106  0  0.990524  0
H  H14  1  0.16276185  0.47569979  0.94046836  1  0.039029  0  0.093313  0.088392  0  0.969623  0
H  H15  1  0.22013159  0.47661703  0.03547262  1  0.028676  0  0.090389  0.083825  0  0.984445  0
H  H16  1  0.15082307  0.61575261  0.07090797  1  0.026403  0  0.083555  0.108446  0  1.006077  0
H  H17  1  0.06568730  0.54126408  0.05104648  1  0.010108  0  0.084796  0.112334  0  1.016272  0
H  H18  1  0.09348997  0.61645116  0.97510258  1  0.007211  0  0.086264  0.11148  0  1.00518  0
H  H19  1  0.57193997  0.05127192  0.62585937  1  0.07317  0  0.101398  0.088896  0  0.990166  0
H  H20  1  0.42809374  0.94850049  0.37412160  1  0.076787  0  0.101079  0.088587  0  0.990368  0
H  H21  1  0.34427618  0.05054088  0.49514511  1  0.070268  0  0.099465  0.086356  0  0.9931  0
H  H22  1  0.65575551  0.94922471  0.50483403  1  0.068272  0  0.099657  0.086598  0  0.993283  0
H  H23  1  0.64318100  0.50835043  0.92044274  1  0.094545  0  0.108058  0.123969  0  1.011427  0
H  H24  1  0.35686850  0.50802309  0.07956633  1  0.094676  0  0.108059  0.12399  0  1.011022  0
H  H25  1  0.08687989  0.50347208  0.63143062  1  0.131055  0  0.129499  0.146417  0  0.955669  0
C  C26  1  0.50103598  0.50169412  0.66111752  1  1.713525  0  0.216411  0.668891  0  4.237777  0
C  C27  1  0.49960194  0.50433674  0.24972608  1  -0.036511  0  -0.046287  -0.178828  0  3.954485  0
C  C28  1  0.95427665  0.50242963  0.57708644  1  -0.181572  0  -0.031297  0.019233  0  3.908493  0
C  C29  1  0.04569670  0.49905246  0.42277060  1  -0.173141  0  -0.030786  0.020547  0  3.907506  0
C  C30  1  0.90644891  0.50053580  0.50171213  1  0.118725  0  0.017956  0.045977  0  4.051843  0
C  C31  1  0.09352293  0.50056356  0.49816006  1  0.112965  0  0.017264  0.045434  0  4.050248  0
C  C32  1  0.95203567  0.49893350  0.42530030  1  0.060024  0  -0.05988  -0.112005  0  3.89805  0
C  C33  1  0.04792319  0.50233210  0.57456938  1  0.064767  0  -0.060216  -0.112127  0  3.897268  0
C  C34  1  0.81082901  0.50027097  0.50113910  1  0.846714  0  0.233139  0.285402  0  3.932319  0
C  C35  1  0.18913906  0.50022355  0.49879233  1  0.842114  0  0.23375  0.286079  0  3.932632  0
C  C36  1  0.49942540  0.66153459  0.49981041  1  1.603037  0  0.215229  0.670838  0  4.238547  0
C  C37  1  0.49896217  0.50166983  0.33892375  1  1.71456  0  0.216435  0.668386  0  4.23791  0
C  C38  1  0.50057005  0.33832094  0.50021712  1  1.609623  0  0.216769  0.672866  0  4.235134  0
C  C39  1  0.54011897  0.02743423  0.56996205  1  -0.021229  0  -0.069904  -0.076688  0  3.633444  0
C  C40  1  0.45993757  0.97234810  0.43001194  1  -0.025072  0  -0.06971  -0.07707  0  3.634251  0
C  C41  1  0.45411132  0.97193047  0.56716871  1  -0.030677  0  -0.070198  -0.076664  0  3.633425  0
C  C42  1  0.54593306  0.02785126  0.43279116  1  -0.043494  0  -0.069613  -0.076502  0  3.634107  0
C  C43  1  0.49951455  0.75116512  0.49971484  1  0.128482  0  -0.059266  -0.199388  0  4.008165  0
C  C44  1  0.50047387  0.24867000  0.50023305  1  0.133879  0  -0.058757  -0.198909  0  4.004623  0
C  C45  1  0.58666722  0.97252852  0.50269378  1  -0.035515  0  -0.072457  -0.081149  0  3.64187  0
C  C46  1  0.41337790  0.02725754  0.49728524  1  -0.035801  0  -0.071688  -0.080084  0  3.64018  0
C  C47  1  0.50084323  0.91456592  0.49990403  1  0.085062  0  0.006757  0.126915  0  3.797066  0
C  C48  1  0.50092575  0.50858395  0.08725875  1  0.135127  0  -0.006371  0.057704  0  4.114221  0
C  C49  1  0.49919709  0.08524310  0.50005586  1  0.080461  0  0.006611  0.126033  0  3.796818  0
C  C50  1  0.50015681  0.82679188  0.49975842  1  -0.352413  0  -0.042047  -0.065928  0  4.113039  0
C  C51  1  0.49988955  0.17302954  0.50020326  1  -0.354811  0  -0.041106  -0.064673  0  4.110661  0
C  C52  1  0.58304044  0.51146492  0.04223562  1  0.530549  0  0.085156  0.20312  0  4.05882  0
C  C53  1  0.41699692  0.51129648  0.95777317  1  0.528217  0  0.08441  0.202198  0  4.060332  0
C  C54  1  0.73154064  0.56698805  0.05329286  1  0.402059  0  -0.061563  0.039476  0  3.896693  0
C  C55  1  0.80726703  0.51752379  0.01302049  1  -0.036935  0  -0.170157  -0.14279  0  3.994174  0
C  C56  1  0.87780899  0.57614400  0.97649199  1  -0.016003  0  -0.245141  -0.358286  0  3.995383  0
C  C57  1  0.26821636  0.56662407  0.94654119  1  0.381613  0  -0.062081  0.038632  0  3.896554  0
C  C58  1  0.19269610  0.51708180  0.98684801  1  -0.031694  0  -0.169327  -0.140158  0  3.99345  0
C  C59  1  0.49912148  0.50861581  0.91276015  1  0.134242  0  -0.006213  0.058386  0  4.113202  0
C  C60  1  0.12173918  0.57562907  0.02301092  1  -0.02811  0  -0.244453  -0.358748  0  3.992967  0
C  C61  1  0.41900336  0.50898133  0.04375988  1  -0.026519  0  -0.098791  -0.24685  0  3.981287  0
C  C62  1  0.58104610  0.50917432  0.95625203  1  -0.026326  0  -0.099044  -0.247674  0  3.980431  0
C  C63  1  0.50084163  0.50669158  0.17446460  1  -0.329653  0  -0.03818  -0.038839  0  4.127065  0
C  C64  1  0.49917905  0.50674235  0.82555763  1  -0.32946  0  -0.038165  -0.038918  0  4.126891  0
C  C65  1  0.50038118  0.50440028  0.75030589  1  -0.035773  0  -0.046289  -0.179027  0  3.955392  0
I  I66  1  0.88628123  0.50501598  0.69012006  1  0.214986  0  0.148013  0.055266  0  1.308426  0
I  I67  1  0.11377986  0.49698770  0.30978533  1  0.213859  0  0.148116  0.055268  0  1.307368  0
N  N68  1  0.26713792  0.49990937  0.50168844  1  -1.07924  0  -0.25127  -0.245806  0  3.072516  0
N  N69  1  0.73282644  0.50003117  0.49832874  1  -1.086788  0  -0.25103  -0.245175  0  3.072275  0
O  O70  1  0.57815212  0.50004867  0.62622866  1  -1.133926  0  -0.321016  -0.555618  0  2.259223  0
O  O71  1  0.33945513  0.51606636  0.91292403  1  -1.063061  0  -0.188752  -0.208571  0  2.519432  0
O  O72  1  0.42185520  0.50015047  0.37383927  1  -1.136101  0  -0.320934  -0.555649  0  2.259271  0
O  O73  1  0.42439874  0.50127157  0.62606110  1  -1.142787  0  -0.317299  -0.546669  0  2.251033  0
O  O74  1  0.57559378  0.50115882  0.37398532  1  -1.142961  0  -0.317189  -0.546136  0  2.25107  0
O  O75  1  0.57624816  0.62619798  0.50045205  1  -1.144232  0  -0.31961  -0.55037  0  2.256466  0
O  O76  1  0.42374277  0.37367667  0.50063699  1  -1.144156  0  -0.31939  -0.550373  0  2.255405  0
O  O77  1  0.42266014  0.62635146  0.49926034  1  -1.139795  0  -0.319344  -0.549784  0  2.255894  0
O  O78  1  0.57732852  0.37353641  0.49975513  1  -1.141782  0  -0.319298  -0.549581  0  2.254569  0
O  O79  1  0.66053798  0.51639659  0.08708443  1  -1.064413  0  -0.189352  -0.208741  0  2.519416  0
