# generated using pymatgen
data_Cd5H24C22S4(N4Cl5)2
_symmetry_space_group_name_H-M   'P 1'
_cell_length_a   11.85286248
_cell_length_b   12.13391291
_cell_length_c   14.02870000
_cell_angle_alpha   90.00000000
_cell_angle_beta   99.69437294
_cell_angle_gamma   90.00000000
_symmetry_Int_Tables_number   1
_chemical_formula_structural   Cd5H24C22S4(N4Cl5)2
_chemical_formula_sum   'Cd10 H48 C44 S8 N16 Cl20'
_cell_volume   1988.81835999
_cell_formula_units_Z   2
loop_
 _symmetry_equiv_pos_site_id
 _symmetry_equiv_pos_as_xyz
  1  'x, y, z'
loop_
 _atom_site_type_symbol
 _atom_site_label
 _atom_site_symmetry_multiplicity
 _atom_site_fract_x
 _atom_site_fract_y
 _atom_site_fract_z
 _atom_site_occupancy
 _atom_site_hle17_bader_spin_density
 _atom_site_hle17_ddec_charge
 _atom_site_hle17_ddec_spin_density
 _atom_site_hle17_ddec_sum_bond_order
 _atom_site_hle17_magmom
 _atom_site_hse06_10hf_bader_spin_density
 _atom_site_hse06_10hf_ddec_charge
 _atom_site_hse06_10hf_ddec_spin_density
 _atom_site_hse06_10hf_ddec_sum_bond_order
 _atom_site_hse06_10hf_magmom
 _atom_site_hse06_bader_spin_density
 _atom_site_hse06_ddec_charge
 _atom_site_hse06_ddec_spin_density
 _atom_site_hse06_ddec_sum_bond_order
 _atom_site_hse06_magmom
 _atom_site_pbe_bader_charge
 _atom_site_pbe_bader_spin_density
 _atom_site_pbe_cm5_charge
 _atom_site_pbe_ddec_charge
 _atom_site_pbe_ddec_spin_density
 _atom_site_pbe_ddec_sum_bond_order
 _atom_site_pbe_magmom
Cd  Cd0  1  0.31636386  0.11792898  0.16748461  1  0  0.967458  0  2.025166  0  0  0.815774  0  2.484309  0  0  0.858897  0  2.44619  0  1.149903  0  0.604469  0.785347  0  2.51016  0
Cd  Cd1  1  0.81636541  0.38207378  0.66748248  1  0  0.96744  0  2.025178  0  0  0.815778  0  2.484281  0  0  0.858881  0  2.4462  0  1.149808  0  0.604448  0.785351  0  2.510132  0
Cd  Cd2  1  0.68363667  0.88207243  0.83252074  1  0  0.96747  0  2.025137  0  0  0.815805  0  2.484238  0  0  0.858908  0  2.446156  0  1.149878  0  0.604461  0.785378  0  2.510087  0
Cd  Cd3  1  0.18363769  0.61792763  0.33251896  1  0  0.967428  0  2.025161  0  0  0.815748  0  2.484311  0  0  0.858871  0  2.446188  0  1.149916  0  0.604419  0.785323  0  2.510159  0
Cd  Cd4  1  0.49999813  0.99999811  0.99999881  1  0  0.956536  0  2.002423  0  0  0.826123  0  2.450861  0  0  0.870204  0  2.411847  0  1.128697  0  0.500991  0.794865  0  2.477447  0
Cd  Cd5  1  0.00000000  0.50000029  0.50000000  1  0  0.956541  0  2.002352  0  0  0.82613  0  2.450781  0  0  0.87021  0  2.411768  0  1.128598  0  0.500981  0.79487  0  2.477369  0
Cd  Cd6  1  0.67347371  0.19540358  0.84778412  1  0  0.967593  0  1.950009  0  0  0.797443  0  2.428911  0  0  0.843592  0  2.38726  0  1.109563  0  0.592336  0.764999  0  2.457158  0
Cd  Cd7  1  0.17347302  0.30460083  0.34778495  1  0  0.967601  0  1.949972  0  0  0.797474  0  2.428821  0  0  0.843625  0  2.387168  0  1.109697  0  0.592348  0.765032  0  2.457067  0
Cd  Cd8  1  0.32652853  0.80460360  0.15221435  1  0  0.967659  0  1.949957  0  0  0.797555  0  2.428806  0  0  0.8437  0  2.387154  0  1.109855  0  0.592379  0.765115  0  2.457053  0
Cd  Cd9  1  0.82652581  0.69540140  0.65221374  1  0  0.967645  0  1.949963  0  0  0.797501  0  2.428853  0  0  0.843647  0  2.387204  0  1.109649  0  0.592344  0.765055  0  2.457103  0
H  H10  1  0.14594812  0.48969035  0.85809040  1  0  0.118615  0  0.940139  0  0  0.134953  0  0.995737  0  0  0.136741  0  0.994865  0  0.085751  0  0.095358  0.133581  0  0.996541  0
H  H11  1  0.64594710  0.01031407  0.35809218  1  0  0.118585  0  0.94016  0  0  0.134961  0  0.995722  0  0  0.13675  0  0.994845  0  0.085806  0  0.095346  0.133587  0  0.99652  0
H  H12  1  0.85405413  0.51031271  0.14191092  1  0  0.118653  0  0.940109  0  0  0.135004  0  0.995709  0  0  0.136795  0  0.994831  0  0.085855  0  0.095357  0.133631  0  0.996513  0
H  H13  1  0.35405001  0.98968981  0.64190983  1  0  0.118678  0  0.940064  0  0  0.135016  0  0.995666  0  0  0.136808  0  0.99479  0  0.08579  0  0.09537  0.133645  0  0.99647  0
H  H14  1  0.14830698  0.56142978  0.97042712  1  0  0.106188  0  0.966859  0  0  0.115375  0  1.03531  0  0  0.117018  0  1.035492  0  0.12187  0  0.08647  0.114162  0  1.035304  0
H  H15  1  0.64830682  0.93857193  0.47042760  1  0  0.106237  0  0.966817  0  0  0.115428  0  1.035279  0  0  0.117071  0  1.035462  0  0.121888  0  0.086502  0.114213  0  1.035269  0
H  H16  1  0.85169355  0.43857163  0.02957467  1  0  0.106203  0  0.966868  0  0  0.115398  0  1.035322  0  0  0.117045  0  1.035501  0  0.121882  0  0.086494  0.114184  0  1.035318  0
H  H17  1  0.35169200  0.06142783  0.52957252  1  0  0.10623  0  0.966852  0  0  0.11542  0  1.035294  0  0  0.117065  0  1.035474  0  0.121894  0  0.086484  0.114207  0  1.03529  0
H  H18  1  0.31983711  0.39175986  0.91814949  1  0  0.072873  0  0.918954  0  0  0.088044  0  0.981599  0  0  0.088263  0  0.98147  0  0.064963  0  0.101762  0.087688  0  0.981914  0
H  H19  1  0.81983523  0.10824208  0.41815115  1  0  0.072899  0  0.91897  0  0  0.088069  0  0.981592  0  0  0.088289  0  0.981464  0  0.064959  0  0.101775  0.087715  0  0.981908  0
H  H20  1  0.68016514  0.60824237  0.08185183  1  0  0.072867  0  0.918919  0  0  0.088038  0  0.981559  0  0  0.088255  0  0.981429  0  0.064908  0  0.101761  0.087683  0  0.981877  0
H  H21  1  0.18016017  0.89176015  0.58184920  1  0  0.072911  0  0.918975  0  0  0.088059  0  0.981626  0  0  0.088274  0  0.981496  0  0.064947  0  0.101765  0.087702  0  0.981944  0
H  H22  1  0.34676544  0.51479931  0.98780649  1  0  0.080343  0  0.965361  0  0  0.092408  0  1.035516  0  0  0.093338  0  1.035169  0  0.116536  0  0.103038  0.091602  0  1.035998  0
H  H23  1  0.84676442  0.98520321  0.48780756  1  0  0.080402  0  0.965329  0  0  0.092435  0  1.035492  0  0  0.093364  0  1.035146  0  0.116586  0  0.10307  0.091632  0  1.035968  0
H  H24  1  0.65323510  0.48520292  0.01219601  1  0  0.080397  0  0.965344  0  0  0.092482  0  1.035432  0  0  0.093413  0  1.035083  0  0.116574  0  0.103069  0.091673  0  1.035918  0
H  H25  1  0.15323354  0.01479902  0.51219172  1  0  0.080376  0  0.965323  0  0  0.092438  0  1.03547  0  0  0.093363  0  1.035139  0  0.116528  0  0.103045  0.091633  0  1.035943  0
H  H26  1  0.57221900  0.21521170  0.24991848  1  0  0.072396  0  0.932994  0  0  0.087234  0  0.997604  0  0  0.08743  0  0.997448  0  0.083114  0  0.096315  0.087127  0  0.99759  0
H  H27  1  0.07222001  0.28478859  0.74991884  1  0  0.072389  0  0.932982  0  0  0.087213  0  0.997598  0  0  0.087409  0  0.99744  0  0.083079  0  0.096302  0.087105  0  0.997588  0
H  H28  1  0.42778325  0.78478724  0.75008070  1  0  0.072428  0  0.932979  0  0  0.087263  0  0.997571  0  0  0.087462  0  0.997416  0  0.083146  0  0.096327  0.087156  0  0.997554  0
H  H29  1  0.92777881  0.71521034  0.25007986  1  0  0.072369  0  0.932977  0  0  0.087201  0  0.997595  0  0  0.087396  0  0.997437  0  0.083066  0  0.096296  0.087093  0  0.997587  0
H  H30  1  0.50134189  0.30863004  0.31764207  1  0  0.070739  0  0.941185  0  0  0.080982  0  1.013353  0  0  0.0816  0  1.013024  0  0.090021  0  0.092755  0.080542  0  1.01369  0
H  H31  1  0.00134376  0.19136943  0.81764184  1  0  0.070691  0  0.941211  0  0  0.080968  0  1.01334  0  0  0.081586  0  1.01301  0  0.090028  0  0.092748  0.080529  0  1.013677  0
H  H32  1  0.49866121  0.69136890  0.68235866  1  0  0.070743  0  0.941174  0  0  0.080977  0  1.013332  0  0  0.081599  0  1.013003  0  0.09009  0  0.092743  0.080537  0  1.01367  0
H  H33  1  0.99865506  0.80862951  0.18235757  1  0  0.070708  0  0.941173  0  0  0.080966  0  1.013328  0  0  0.081582  0  1.012998  0  0.090036  0  0.09274  0.080526  0  1.013666  0
H  H34  1  0.90746145  0.24268511  0.31904119  1  0  0.079116  0  0.945773  0  0  0.084041  0  1.018339  0  0  0.08688  0  1.01514  0  0.112116  0  0.10629  0.081855  0  1.020796  0
H  H35  1  0.40745819  0.25731518  0.81904094  1  0  0.079109  0  0.945731  0  0  0.084058  0  1.018269  0  0  0.086897  0  1.015069  0  0.11212  0  0.106276  0.081872  0  1.020727  0
H  H36  1  0.09253909  0.75731547  0.68095632  1  0  0.079163  0  0.945641  0  0  0.084086  0  1.018216  0  0  0.086927  0  1.015013  0  0.112062  0  0.106283  0.081901  0  1.020672  0
H  H37  1  0.59253978  0.74268458  0.18095834  1  0  0.079103  0  0.945704  0  0  0.084045  0  1.01826  0  0  0.086885  0  1.015058  0  0.112114  0  0.106281  0.081859  0  1.020716  0
H  H38  1  0.01409497  0.14643009  0.00454801  1  0  0.12536  0  0.93762  0  0  0.133577  0  0.99861  0  0  0.137115  0  0.997464  0  0.138886  0  0.104515  0.130856  0  0.999975  0
H  H39  1  0.51409566  0.35356855  0.50454860  1  0  0.12531  0  0.93764  0  0  0.133531  0  0.998626  0  0  0.13707  0  0.997477  0  0.138897  0  0.104504  0.130811  0  0.999992  0
H  H40  1  0.98590643  0.85356802  0.99544963  1  0  0.125332  0  0.937628  0  0  0.133555  0  0.998596  0  0  0.137096  0  0.997451  0  0.138964  0  0.104516  0.130837  0  0.999963  0
H  H41  1  0.48590145  0.64642956  0.49544842  1  0  0.125362  0  0.93762  0  0  0.133564  0  0.998616  0  0  0.137105  0  0.997468  0  0.138944  0  0.104501  0.130843  0  0.999982  0
H  H42  1  0.76266280  0.14304866  0.19426352  1  0  0.10959  0  0.94301  0  0  0.119406  0  1.002864  0  0  0.122532  0  1.002186  0  0.098876  0  0.103203  0.117102  0  1.003596  0
H  H43  1  0.26266040  0.35695328  0.69426125  1  0  0.109576  0  0.942997  0  0  0.119394  0  1.00285  0  0  0.12252  0  1.002172  0  0.098861  0  0.103192  0.11709  0  1.003584  0
H  H44  1  0.23733773  0.85695027  0.80573542  1  0  0.109624  0  0.942952  0  0  0.119418  0  1.002826  0  0  0.122544  0  1.002148  0  0.098634  0  0.1032  0.117111  0  1.003562  0
H  H45  1  0.73733329  0.64304483  0.30573600  1  0  0.1095  0  0.943084  0  0  0.119349  0  1.002916  0  0  0.122474  0  1.002238  0  0.098697  0  0.103184  0.117044  0  1.003649  0
H  H46  1  0.82192534  0.08915179  0.03788582  1  0  0.089841  0  0.999237  0  0  0.095817  0  1.070243  0  0  0.098593  0  1.067581  0  0.132337  0  0.085737  0.093713  0  1.072231  0
H  H47  1  0.32192636  0.41084933  0.53788332  1  0  0.089841  0  0.99923  0  0  0.095866  0  1.070188  0  0  0.098647  0  1.067523  0  0.13264  0  0.085748  0.093762  0  1.072177  0
H  H48  1  0.17807434  0.91084633  0.96211371  1  0  0.08986  0  0.999241  0  0  0.095838  0  1.070246  0  0  0.098612  0  1.067586  0  0.132348  0  0.08576  0.093735  0  1.072234  0
H  H49  1  0.67806990  0.58914631  0.46211287  1  0  0.089833  0  0.999224  0  0  0.095789  0  1.070242  0  0  0.098583  0  1.067566  0  0.132754  0  0.085734  0.093686  0  1.072231  0
H  H50  1  0.65359372  0.35964985  0.16704612  1  0  0.09667  0  0.938586  0  0  0.11267  0  0.995687  0  0  0.113627  0  0.996398  0  0.075624  0  0.090448  0.111958  0  0.995084  0
H  H51  1  0.15359645  0.14035291  0.66704672  1  0  0.096673  0  0.938598  0  0  0.112659  0  0.995708  0  0  0.113616  0  0.996419  0  0.075571  0  0.090458  0.111951  0  0.995099  0
H  H52  1  0.34640682  0.64035073  0.83295139  1  0  0.09665  0  0.938621  0  0  0.112649  0  0.995738  0  0  0.113606  0  0.99645  0  0.075662  0  0.090443  0.111938  0  0.995134  0
H  H53  1  0.84640323  0.85964685  0.33295352  1  0  0.096653  0  0.93862  0  0  0.112642  0  0.995735  0  0  0.113599  0  0.996447  0  0.075562  0  0.090452  0.111935  0  0.995125  0
H  H54  1  0.63885169  0.43515476  0.27444352  1  0  0.108532  0  0.940674  0  0  0.12494  0  0.997713  0  0  0.125898  0  0.998305  0  0.104177  0  0.097922  0.124116  0  0.997472  0
H  H55  1  0.13885185  0.06484470  0.77444233  1  0  0.108548  0  0.940638  0  0  0.124901  0  0.997772  0  0  0.125857  0  0.998364  0  0.104197  0  0.097892  0.124078  0  0.997531  0
H  H56  1  0.36115312  0.56484252  0.72555602  1  0  0.108492  0  0.940722  0  0  0.124926  0  0.997745  0  0  0.125884  0  0.998337  0  0.104189  0  0.097939  0.124101  0  0.997501  0
H  H57  1  0.86114697  0.93515506  0.22555779  1  0  0.10856  0  0.940612  0  0  0.124913  0  0.997756  0  0  0.12587  0  0.998347  0  0.10419  0  0.097896  0.124091  0  0.997513  0
C  C58  1  0.05969305  0.22639276  0.14367286  1  0  0.396945  0  3.811595  0  0  0.3783  0  4.063073  0  0  0.393996  0  4.080745  0  0.893499  0  0.209739  0.36774  0  4.051034  0
C  C59  1  0.55969289  0.27360836  0.64367333  1  0  0.396989  0  3.811471  0  0  0.378352  0  4.062964  0  0  0.394048  0  4.080632  0  0.893633  0  0.209753  0.367792  0  4.050926  0
C  C60  1  0.94030662  0.77360618  0.85632453  1  0  0.397178  0  3.811502  0  0  0.378454  0  4.06309  0  0  0.394151  0  4.080757  0  0.893086  0  0.209736  0.367892  0  4.051049  0
C  C61  1  0.44030422  0.72639305  0.35632369  1  0  0.3971  0  3.811524  0  0  0.378461  0  4.062998  0  0  0.394158  0  4.080671  0  0.893222  0  0.209761  0.367898  0  4.050957  0
C  C62  1  0.39027428  0.36586879  0.12539663  1  0  0.357583  0  3.759765  0  0  0.315466  0  4.056889  0  0  0.339462  0  4.064863  0  1.067467  0  0.250425  0.299271  0  4.051026  0
C  C63  1  0.89027497  0.13413233  0.62539651  1  0  0.357531  0  3.759699  0  0  0.315439  0  4.056795  0  0  0.339429  0  4.064775  0  1.067042  0  0.250438  0.299246  0  4.050929  0
C  C64  1  0.60972711  0.63413180  0.87460385  1  0  0.357619  0  3.759525  0  0  0.315505  0  4.056643  0  0  0.339493  0  4.064622  0  1.067479  0  0.250416  0.299308  0  4.050782  0
C  C65  1  0.10972385  0.86586743  0.37460360  1  0  0.357607  0  3.759538  0  0  0.315479  0  4.056685  0  0  0.339481  0  4.064649  0  1.067036  0  0.250425  0.299285  0  4.050821  0
C  C66  1  0.18496262  0.33113556  0.06723383  1  0  0.371696  0  3.7805  0  0  0.327811  0  4.082092  0  0  0.354555  0  4.088586  0  1.048725  0  0.254891  0.30999  0  4.07713  0
C  C67  1  0.68496332  0.16886556  0.56723656  1  0  0.371604  0  3.780517  0  0  0.327665  0  4.082173  0  0  0.354409  0  4.088665  0  1.049264  0  0.25487  0.309853  0  4.077198  0
C  C68  1  0.81503791  0.66886420  0.93276582  1  0  0.371751  0  3.780524  0  0  0.327851  0  4.082114  0  0  0.354597  0  4.088607  0  1.048734  0  0.254905  0.310033  0  4.077144  0
C  C69  1  0.31503550  0.83113585  0.43276569  1  0  0.37163  0  3.780586  0  0  0.327729  0  4.08218  0  0  0.354474  0  4.088679  0  1.048728  0  0.254878  0.309914  0  4.077206  0
C  C70  1  0.16658730  0.48321593  0.93706810  1  0  -0.167497  0  3.615367  0  0  -0.204943  0  3.876483  0  0  -0.205169  0  3.885364  0  -0.124013  0  -0.150452  -0.204669  0  3.870265  0
C  C71  1  0.66658628  0.01678684  0.43707059  1  0  -0.167506  0  3.615297  0  0  -0.204981  0  3.876371  0  0  -0.205209  0  3.885253  0  -0.124128  0  -0.150482  -0.204742  0  3.870246  0
C  C72  1  0.83341409  0.51678630  0.06293310  1  0  -0.167566  0  3.615379  0  0  -0.205054  0  3.876524  0  0  -0.205283  0  3.885404  0  -0.124144  0  -0.150487  -0.204775  0  3.870304  0
C  C73  1  0.33341168  0.98321457  0.56293154  1  0  -0.1676  0  3.615404  0  0  -0.205068  0  3.87652  0  0  -0.205299  0  3.885395  0  -0.124166  0  -0.15048  -0.204801  0  3.87032  0
C  C74  1  0.28843498  0.44455898  0.97187175  1  0  0.020981  0  3.635155  0  0  -0.04222  0  3.896363  0  0  -0.03689  0  3.906713  0  0.259714  0  -0.057196  -0.045648  0  3.88928  0
C  C75  1  0.78843396  0.05544296  0.47187353  1  0  0.020846  0  3.635244  0  0  -0.042303  0  3.89641  0  0  -0.036974  0  3.906762  0  0.259821  0  -0.057254  -0.045733  0  3.889319  0
C  C76  1  0.71156641  0.55544325  0.02812945  1  0  0.020983  0  3.635166  0  0  -0.042185  0  3.896365  0  0  -0.036854  0  3.90672  0  0.259744  0  -0.057224  -0.045621  0  3.889288  0
C  C77  1  0.21156315  0.94455845  0.52812777  1  0  0.020888  0  3.635282  0  0  -0.04227  0  3.89641  0  0  -0.036936  0  3.906752  0  0.259829  0  -0.057193  -0.045695  0  3.889327  0
C  C78  1  0.52386148  0.29270690  0.24593462  1  0  0.045217  0  3.668656  0  0  -0.006669  0  3.928344  0  0  -0.002173  0  3.941169  0  0.288307  0  -0.069186  -0.009663  0  3.919238  0
C  C79  1  0.02386336  0.20729422  0.74593438  1  0  0.045211  0  3.668592  0  0  -0.006642  0  3.928235  0  0  -0.002149  0  3.941061  0  0.288311  0  -0.069168  -0.009641  0  3.919136  0
C  C80  1  0.47614162  0.70729286  0.75406540  1  0  0.045128  0  3.668735  0  0  -0.006721  0  3.928418  0  0  -0.002244  0  3.941268  0  0.288217  0  -0.069193  -0.009713  0  3.919312  0
C  C81  1  0.97613632  0.79270554  0.25406514  1  0  0.045231  0  3.668578  0  0  -0.006616  0  3.928237  0  0  -0.002116  0  3.941061  0  0.288655  0  -0.069149  -0.009614  0  3.919139  0
C  C82  1  0.92588556  0.21921783  0.24802772  1  0  0.134599  0  3.73256  0  0  0.101425  0  3.988013  0  0  0.109825  0  4.005795  0  0.442692  0  0.040123  0.095921  0  3.976002  0
C  C83  1  0.42588230  0.28078329  0.74802747  1  0  0.134652  0  3.732531  0  0  0.101472  0  3.987977  0  0  0.109873  0  4.005761  0  0.442679  0  0.040164  0.095969  0  3.975966  0
C  C84  1  0.07411669  0.78078111  0.75197075  1  0  0.134615  0  3.732533  0  0  0.101444  0  3.987968  0  0  0.109843  0  4.005748  0  0.442675  0  0.040172  0.095939  0  3.975951  0
C  C85  1  0.57411482  0.71921647  0.25197312  1  0  0.134618  0  3.73251  0  0  0.101452  0  3.98799  0  0  0.10985  0  4.005772  0  0.442677  0  0.040136  0.095948  0  3.975973  0
C  C86  1  0.98640114  0.16808345  0.07234039  1  0  -0.18765  0  3.676948  0  0  -0.202855  0  3.924081  0  0  -0.21238  0  3.943903  0  -0.007742  0  -0.086664  -0.197041  0  3.91131  0
C  C87  1  0.48640130  0.33191849  0.57234062  1  0  -0.187633  0  3.67687  0  0  -0.202827  0  3.923992  0  0  -0.212362  0  3.94384  0  -0.007816  0  -0.086641  -0.197014  0  3.911222  0
C  C88  1  0.01360026  0.83191631  0.92765725  1  0  -0.187701  0  3.677014  0  0  -0.202874  0  3.924152  0  0  -0.212407  0  3.943984  0  -0.007818  0  -0.086634  -0.197063  0  3.911385  0
C  C89  1  0.51359582  0.66808045  0.42765783  1  0  -0.187696  0  3.676932  0  0  -0.202857  0  3.923966  0  0  -0.2124  0  3.943823  0  -0.007994  0  -0.086608  -0.197042  0  3.911195  0
C  C90  1  0.84723774  0.16477043  0.17947498  1  0  -0.133174  0  3.735155  0  0  -0.145765  0  3.987662  0  0  -0.153733  0  4.008588  0  -0.028826  0  -0.092493  -0.140854  0  3.973846  0
C  C91  1  0.34723704  0.33523316  0.67947367  1  0  -0.133149  0  3.735065  0  0  -0.145737  0  3.98759  0  0  -0.153702  0  4.008514  0  -0.028855  0  -0.092466  -0.140825  0  3.973774  0
C  C92  1  0.15276365  0.83523098  0.82052266  1  0  -0.13315  0  3.735127  0  0  -0.145708  0  3.987607  0  0  -0.153674  0  4.008529  0  -0.028669  0  -0.092464  -0.140794  0  3.973789  0
C  C93  1  0.65275921  0.66476577  0.32052395  1  0  -0.13303  0  3.735113  0  0  -0.145677  0  3.987638  0  0  -0.153642  0  4.008567  0  -0.029026  0  -0.092414  -0.140765  0  3.97382  0
C  C94  1  0.87953171  0.13654128  0.09120854  1  0  0.025606  0  3.709082  0  0  0.005796  0  3.956783  0  0  0.011535  0  3.973554  0  -0.057438  0  -0.069302  0.002275  0  3.945644  0
C  C95  1  0.37953102  0.36345984  0.59120723  1  0  0.025615  0  3.708979  0  0  0.005745  0  3.956714  0  0  0.011476  0  3.973482  0  -0.057795  0  -0.069336  0.002224  0  3.945575  0
C  C96  1  0.12046882  0.86345848  0.90878968  1  0  0.025588  0  3.709119  0  0  0.005768  0  3.956811  0  0  0.011508  0  3.973583  0  -0.057386  0  -0.069354  0.00225  0  3.945666  0
C  C97  1  0.62046353  0.63653663  0.40878943  1  0  0.025536  0  3.708989  0  0  0.005758  0  3.956676  0  0  0.011478  0  3.973438  0  -0.057375  0  -0.069396  0.00224  0  3.94553  0
C  C98  1  0.59315346  0.38834299  0.21304007  1  0  -0.15232  0  3.581961  0  0  -0.187329  0  3.836672  0  0  -0.187518  0  3.846968  0  -0.140461  0  -0.143899  -0.186832  0  3.829131  0
C  C99  1  0.09315619  0.11165813  0.71303995  1  0  -0.152269  0  3.581935  0  0  -0.187275  0  3.836716  0  0  -0.18746  0  3.84701  0  -0.140473  0  -0.143876  -0.186779  0  3.829178  0
C  C100  1  0.40684793  0.61165677  0.78695899  1  0  -0.15218  0  3.581958  0  0  -0.187229  0  3.836685  0  0  -0.187412  0  3.846987  0  -0.140455  0  -0.143863  -0.186729  0  3.829143  0
C  C101  1  0.90684349  0.88834081  0.28696029  1  0  -0.152228  0  3.581842  0  0  -0.187244  0  3.836649  0  0  -0.187433  0  3.846943  0  -0.140818  0  -0.143853  -0.186747  0  3.829108  0
S  S102  1  0.48745662  0.47673986  0.14115358  1  0  -0.009234  0  2.344363  0  0  -0.012409  0  2.694443  0  0  -0.018378  0  2.693922  0  0.104498  0  0.037585  -0.008418  0  2.694791  0
S  S103  1  0.98745903  0.02326208  0.64115015  1  0  -0.00928  0  2.344354  0  0  -0.012427  0  2.694399  0  0  -0.018393  0  2.693877  0  0.104509  0  0.037568  -0.008437  0  2.694748  0
S  S104  1  0.51254306  0.52326072  0.85885022  1  0  -0.009311  0  2.344244  0  0  -0.01248  0  2.694325  0  0  -0.018445  0  2.693802  0  0.10448  0  0.037549  -0.008492  0  2.694675  0
S  S105  1  0.01254065  0.97673686  0.35884938  1  0  -0.009324  0  2.344313  0  0  -0.01245  0  2.694381  0  0  -0.01842  0  2.693856  0  0.104539  0  0.037551  -0.008461  0  2.694729  0
S  S106  1  0.07611179  0.37751219  0.97620194  1  0  0.045104  0  2.379014  0  0  0.049098  0  2.725554  0  0  0.044076  0  2.723792  0  0.169248  0  0.068039  0.052707  0  2.726666  0
S  S107  1  0.57611163  0.12248811  0.47620740  1  0  0.045162  0  2.378953  0  0  0.049168  0  2.725531  0  0  0.044146  0  2.72377  0  0.168686  0  0.06806  0.052782  0  2.726644  0
S  S108  1  0.92389046  0.62248757  0.02379724  1  0  0.045112  0  2.378945  0  0  0.049116  0  2.725516  0  0  0.044093  0  2.723756  0  0.169177  0  0.068043  0.052722  0  2.726627  0
S  S109  1  0.42388634  0.87751166  0.52379758  1  0  0.045132  0  2.379023  0  0  0.049129  0  2.72557  0  0  0.044105  0  2.723811  0  0.169288  0  0.068028  0.052742  0  2.726678  0
N  N110  1  0.17004514  0.26146883  0.13473870  1  0  -0.533391  0  3.235478  0  0  -0.47441  0  3.521589  0  0  -0.499737  0  3.531977  0  -1.26146  0  -0.366006  -0.457024  0  3.513853  0
N  N111  1  0.67004498  0.23853394  0.63473989  1  0  -0.533316  0  3.235465  0  0  -0.474312  0  3.521573  0  0  -0.499635  0  3.531963  0  -1.261551  0  -0.365988  -0.456926  0  3.513831  0
N  N112  1  0.82995540  0.73853011  0.86526023  1  0  -0.533486  0  3.235414  0  0  -0.47448  0  3.52157  0  0  -0.499797  0  3.531936  0  -1.26146  0  -0.36604  -0.457095  0  3.513833  0
N  N113  1  0.32995556  0.76147077  0.36526047  1  0  -0.533471  0  3.235509  0  0  -0.474492  0  3.521638  0  0  -0.4998  0  3.531979  0  -1.261481  0  -0.366044  -0.457108  0  3.513907  0
N  N114  1  0.41785224  0.27921578  0.17701323  1  0  -0.411324  0  3.178767  0  0  -0.342111  0  3.459286  0  0  -0.364977  0  3.474647  0  -1.174688  0  -0.364422  -0.326261  0  3.448359  0
N  N115  1  0.91785379  0.22078451  0.67701395  1  0  -0.41127  0  3.178664  0  0  -0.342115  0  3.459216  0  0  -0.364976  0  3.474575  0  -1.174171  0  -0.364438  -0.326266  0  3.44829  0
N  N116  1  0.58215001  0.72078398  0.82298738  1  0  -0.411257  0  3.1787  0  0  -0.342076  0  3.459256  0  0  -0.36493  0  3.474623  0  -1.174725  0  -0.364414  -0.32623  0  3.448333  0
N  N117  1  0.08214674  0.77921443  0.32298641  1  0  -0.411292  0  3.178588  0  0  -0.342118  0  3.459171  0  0  -0.364988  0  3.474528  0  -1.174256  0  -0.364418  -0.326269  0  3.448246  0
N  N118  1  0.28896393  0.37901212  0.06037715  1  0  -0.217772  0  3.431988  0  0  -0.130906  0  3.665956  0  0  -0.154376  0  3.685598  0  -1.183775  0  -0.242661  -0.115373  0  3.652297  0
N  N119  1  0.78896462  0.12098983  0.56037846  1  0  -0.217729  0  3.431925  0  0  -0.130834  0  3.665823  0  0  -0.154301  0  3.685468  0  -1.183797  0  -0.242648  -0.1153  0  3.652161  0
N  N120  1  0.71103661  0.62099012  0.93962464  1  0  -0.217892  0  3.43202  0  0  -0.131031  0  3.666002  0  0  -0.154508  0  3.685663  0  -1.18379  0  -0.242649  -0.11549  0  3.652331  0
N  N121  1  0.21103420  0.87901076  0.43962308  1  0  -0.217699  0  3.431942  0  0  -0.130809  0  3.665866  0  0  -0.154287  0  3.685523  0  -1.183793  0  -0.24262  -0.115278  0  3.652208  0
N  N122  1  0.03046320  0.24706622  0.23069797  1  0  -0.39399  0  3.281165  0  0  -0.312379  0  3.539446  0  0  -0.335126  0  3.55757  0  -1.232074  0  -0.342975  -0.296962  0  3.526863  0
N  N123  1  0.53046133  0.25293572  0.73069820  1  0  -0.394072  0  3.28112  0  0  -0.312499  0  3.539458  0  0  -0.335236  0  3.557562  0  -1.231986  0  -0.343012  -0.297078  0  3.526865  0
N  N124  1  0.96953904  0.75293436  0.76929979  1  0  -0.394225  0  3.281345  0  0  -0.312589  0  3.539636  0  0  -0.335343  0  3.557779  0  -1.231607  0  -0.343021  -0.297185  0  3.52709  0
N  N125  1  0.46953749  0.74706651  0.26930049  1  0  -0.394052  0  3.281151  0  0  -0.31251  0  3.539501  0  0  -0.335254  0  3.557616  0  -1.231629  0  -0.343017  -0.297105  0  3.526951  0
Cl  Cl126  1  0.29974485  0.13297607  0.35272555  1  0  -0.54751  0  1.048811  0  0  -0.488037  0  1.354301  0  0  -0.50694  0  1.334093  0  -0.62493  0  -0.30373  -0.474473  0  1.368  0
Cl  Cl127  1  0.79974212  0.36702587  0.85272281  1  0  -0.547499  0  1.048851  0  0  -0.488  0  1.354296  0  0  -0.506899  0  1.334093  0  -0.624825  0  -0.303726  -0.474436  0  1.367996  0
Cl  Cl128  1  0.70025911  0.86702534  0.64727744  1  0  -0.547535  0  1.048832  0  0  -0.488044  0  1.354278  0  0  -0.506942  0  1.334071  0  -0.624853  0  -0.303739  -0.474474  0  1.367979  0
Cl  Cl129  1  0.20026355  0.63297718  0.14727828  1  0  -0.547522  0  1.048797  0  0  -0.488034  0  1.354272  0  0  -0.506938  0  1.334063  0  -0.625092  0  -0.303733  -0.474471  0  1.367972  0
Cl  Cl130  1  0.50315469  0.99981515  0.18982825  1  0  -0.55973  0  1.064068  0  0  -0.494495  0  1.343314  0  0  -0.513724  0  1.322936  0  -0.635705  0  -0.289813  -0.480605  0  1.35707  0
Cl  Cl131  1  0.00315827  0.50018325  0.68983111  1  0  -0.559735  0  1.064042  0  0  -0.494501  0  1.343283  0  0  -0.513725  0  1.322909  0  -0.635657  0  -0.289821  -0.48061  0  1.357034  0
Cl  Cl132  1  0.49684242  0.00018213  0.81017234  1  0  -0.559745  0  1.06405  0  0  -0.494513  0  1.343309  0  0  -0.513739  0  1.322933  0  -0.635671  0  -0.289826  -0.480628  0  1.357063  0
Cl  Cl133  1  0.99684911  0.49981156  0.31017022  1  0  -0.559734  0  1.064057  0  0  -0.494494  0  1.343298  0  0  -0.513729  0  1.322931  0  -0.635671  0  -0.28981  -0.480604  0  1.357045  0
Cl  Cl134  1  0.59455714  0.20723983  0.00200281  1  0  -0.545972  0  1.003462  0  0  -0.480051  0  1.290151  0  0  -0.499801  0  1.27083  0  -0.621394  0  -0.301298  -0.465919  0  1.303184  0
Cl  Cl135  1  0.09455559  0.29276129  0.50200423  1  0  -0.545961  0  1.003467  0  0  -0.480034  0  1.290134  0  0  -0.499782  0  1.270811  0  -0.621373  0  -0.301287  -0.465902  0  1.303163  0
Cl  Cl136  1  0.40544597  0.79275499  0.99799649  1  0  -0.54596  0  1.003445  0  0  -0.480045  0  1.290131  0  0  -0.499794  0  1.270809  0  -0.621375  0  -0.301289  -0.465911  0  1.303159  0
Cl  Cl137  1  0.90544409  0.70723929  0.49799601  1  0  -0.545965  0  1.003456  0  0  -0.480034  0  1.290123  0  0  -0.499782  0  1.270803  0  -0.621414  0  -0.30129  -0.465902  0  1.303155  0
Cl  Cl138  1  0.17839787  0.95006616  0.15508282  1  0  -0.511712  0  1.126656  0  0  -0.438744  0  1.429216  0  0  -0.459295  0  1.410276  0  -0.585142  0  -0.264815  -0.42416  0  1.442067  0
Cl  Cl139  1  0.67839771  0.54993554  0.65507902  1  0  -0.51168  0  1.126671  0  0  -0.43871  0  1.429237  0  0  -0.459257  0  1.410307  0  -0.585128  0  -0.2648  -0.424123  0  1.442086  0
Cl  Cl140  1  0.82160096  0.04993525  0.84491658  1  0  -0.51169  0  1.126652  0  0  -0.43872  0  1.429222  0  0  -0.459271  0  1.410291  0  -0.585121  0  -0.2648  -0.424135  0  1.442072  0
Cl  Cl141  1  0.32160454  0.45006422  0.34492230  1  0  -0.511663  0  1.126632  0  0  -0.438711  0  1.42923  0  0  -0.459259  0  1.410288  0  -0.58516  0  -0.264786  -0.424126  0  1.442077  0
Cl  Cl142  1  0.30354675  0.10289591  0.97463766  1  0  -0.570077  0  0.95422  0  0  -0.510377  0  1.215229  0  0  -0.529933  0  1.197883  0  -0.644694  0  -0.327015  -0.496154  0  1.226966  0
Cl  Cl143  1  0.80354745  0.39710273  0.47463540  1  0  -0.570067  0  0.954211  0  0  -0.510374  0  1.215222  0  0  -0.529928  0  1.19788  0  -0.644721  0  -0.326998  -0.496154  0  1.226963  0
Cl  Cl144  1  0.69645293  0.89710550  0.02536686  1  0  -0.570083  0  0.954208  0  0  -0.510387  0  1.215222  0  0  -0.529941  0  1.197878  0  -0.644695  0  -0.327016  -0.496164  0  1.226958  0
Cl  Cl145  1  0.19645052  0.60289950  0.52536531  1  0  -0.570072  0  0.954217  0  0  -0.510386  0  1.215253  0  0  -0.529944  0  1.197907  0  -0.644702  0  -0.327001  -0.496163  0  1.226988  0
