# generated using pymatgen
data_Zn2H12C14N2O11
_symmetry_space_group_name_H-M   'P 1'
_cell_length_a   8.04931192
_cell_length_b   8.04931262
_cell_length_c   12.93264024
_cell_angle_alpha   83.08771560
_cell_angle_beta   83.08789715
_cell_angle_gamma   74.27661135
_symmetry_Int_Tables_number   1
_chemical_formula_structural   Zn2H12C14N2O11
_chemical_formula_sum   'Zn4 H24 C28 N4 O22'
_cell_volume   797.32582839
_cell_formula_units_Z   2
loop_
 _symmetry_equiv_pos_site_id
 _symmetry_equiv_pos_as_xyz
  1  'x, y, z'
loop_
 _atom_site_type_symbol
 _atom_site_label
 _atom_site_symmetry_multiplicity
 _atom_site_fract_x
 _atom_site_fract_y
 _atom_site_fract_z
 _atom_site_occupancy
 _atom_site_hle17_bader_spin_density
 _atom_site_hle17_ddec_charge
 _atom_site_hle17_ddec_spin_density
 _atom_site_hle17_ddec_sum_bond_order
 _atom_site_hle17_magmom
 _atom_site_hse06_10hf_bader_spin_density
 _atom_site_hse06_10hf_ddec_charge
 _atom_site_hse06_10hf_ddec_spin_density
 _atom_site_hse06_10hf_ddec_sum_bond_order
 _atom_site_hse06_10hf_magmom
 _atom_site_hse06_bader_spin_density
 _atom_site_hse06_ddec_charge
 _atom_site_hse06_ddec_spin_density
 _atom_site_hse06_ddec_sum_bond_order
 _atom_site_hse06_magmom
 _atom_site_pbe_bader_spin_density
 _atom_site_pbe_cm5_charge
 _atom_site_pbe_ddec_charge
 _atom_site_pbe_ddec_spin_density
 _atom_site_pbe_ddec_sum_bond_order
 _atom_site_pbe_magmom
Zn  Zn0  1  0.47444908  0.42711556  0.87498158  1  0  1.173932  0  1.688979  0  0  1.004869  0  2.120697  0  0  1.054603  0  2.062618  0  0  0.688394  0.969607  0  2.160745  0
Zn  Zn1  1  0.57288286  0.52554923  0.62502077  1  0  1.17391  0  1.689039  0  0  1.004835  0  2.120769  0  0  1.054575  0  2.062687  0  0  0.688412  0.969581  0  2.160792  0
Zn  Zn2  1  0.52554941  0.57288495  0.12502147  1  0  1.173949  0  1.688989  0  0  1.004891  0  2.120699  0  0  1.054627  0  2.062616  0  0  0.688416  0.969626  0  2.160752  0
Zn  Zn3  1  0.42711387  0.47444866  0.37498180  1  0  1.17393  0  1.688996  0  0  1.004858  0  2.120746  0  0  1.054589  0  2.062671  0  0  0.688399  0.969602  0  2.16077  0
H  H4  1  0.19199613  0.47686292  0.00413041  1  0  0.434142  0  0.863123  0  0  0.400448  0  0.931811  0  0  0.412326  0  0.914599  0  0  0.294791  0.391944  0  0.944118  0
H  H5  1  0.52313398  0.80800378  0.49587263  1  0  0.43406  0  0.863126  0  0  0.400348  0  0.931937  0  0  0.412224  0  0.914726  0  0  0.294739  0.391842  0  0.944252  0
H  H6  1  0.80800360  0.52313761  0.99587256  1  0  0.434077  0  0.863104  0  0  0.400353  0  0.931937  0  0  0.412231  0  0.914724  0  0  0.294725  0.391848  0  0.944251  0
H  H7  1  0.47686201  0.19199669  0.50413059  1  0  0.434138  0  0.863159  0  0  0.400443  0  0.931828  0  0  0.41232  0  0.914616  0  0  0.294769  0.391939  0  0.944134  0
H  H8  1  0.13272306  0.40801005  0.90742496  1  0  0.431254  0  0.868351  0  0  0.399856  0  0.932175  0  0  0.410656  0  0.916484  0  0  0.296993  0.392204  0  0.94328  0
H  H9  1  0.59198854  0.86727784  0.59257766  1  0  0.431241  0  0.868358  0  0  0.399838  0  0.932189  0  0  0.410639  0  0.916498  0  0  0.296989  0.392186  0  0.943294  0
H  H10  1  0.86727543  0.59199046  0.09257809  1  0  0.431197  0  0.868428  0  0  0.3998  0  0.932254  0  0  0.4106  0  0.916565  0  0  0.296974  0.392149  0  0.943357  0
H  H11  1  0.40800835  0.13272396  0.40742464  1  0  0.431243  0  0.868358  0  0  0.399847  0  0.932182  0  0  0.410648  0  0.91649  0  0  0.296988  0.392194  0  0.943288  0
H  H12  1  0.35513723  0.74074466  0.78486454  1  0  0.419265  0  0.888542  0  0  0.386372  0  0.955575  0  0  0.398816  0  0.937882  0  0  0.288054  0.377584  0  0.96803  0
H  H13  1  0.25924854  0.64485427  0.71513584  1  0  0.419134  0  0.888653  0  0  0.386238  0  0.955746  0  0  0.398684  0  0.938051  0  0  0.287978  0.377451  0  0.9682  0
H  H14  1  0.64486063  0.25924941  0.21513510  1  0  0.419166  0  0.888613  0  0  0.386288  0  0.955676  0  0  0.398733  0  0.937981  0  0  0.287996  0.377499  0  0.968132  0
H  H15  1  0.74074626  0.35513711  0.28486573  1  0  0.419236  0  0.888569  0  0  0.386341  0  0.955617  0  0  0.398784  0  0.937927  0  0  0.28803  0.377553  0  0.968072  0
H  H16  1  0.15444577  0.17898718  0.79393726  1  0  0.119664  0  0.955434  0  0  0.126368  0  1.021198  0  0  0.130547  0  1.018022  0  0  0.112034  0.123312  0  1.023627  0
H  H17  1  0.82102384  0.84555391  0.70606256  1  0  0.119674  0  0.955459  0  0  0.126353  0  1.021253  0  0  0.130535  0  1.018069  0  0  0.112016  0.123298  0  1.02368  0
H  H18  1  0.84555385  0.82101863  0.20606150  1  0  0.119718  0  0.955384  0  0  0.126413  0  1.021152  0  0  0.130593  0  1.017972  0  0  0.112052  0.123357  0  1.02358  0
H  H19  1  0.17898561  0.15444818  0.29393427  1  0  0.119619  0  0.955326  0  0  0.126294  0  1.021135  0  0  0.130473  0  1.017958  0  0  0.111987  0.123238  0  1.02356  0
H  H20  1  0.27904370  0.01922248  0.63726191  1  0  0.105765  0  0.933672  0  0  0.116731  0  0.988826  0  0  0.120052  0  0.986466  0  0  0.114433  0.114271  0  0.990702  0
H  H21  1  0.98078572  0.72095645  0.86273912  1  0  0.105824  0  0.933589  0  0  0.116758  0  0.988764  0  0  0.120076  0  0.986405  0  0  0.114422  0.114296  0  0.990639  0
H  H22  1  0.72095288  0.98078065  0.36273878  1  0  0.105787  0  0.933643  0  0  0.116758  0  0.988782  0  0  0.120076  0  0.986424  0  0  0.114426  0.114297  0  0.990657  0
H  H23  1  0.01921872  0.27904553  0.13725959  1  0  0.105748  0  0.933624  0  0  0.116716  0  0.988779  0  0  0.120035  0  0.98642  0  0  0.114394  0.114256  0  0.990655  0
H  H24  1  0.12559383  0.10431914  0.47294756  1  0  0.111732  0  0.962618  0  0  0.115723  0  1.033834  0  0  0.119435  0  1.031639  0  0  0.110284  0.113026  0  1.035575  0
H  H25  1  0.89568585  0.87440358  0.02705465  1  0  0.111681  0  0.962594  0  0  0.115699  0  1.033812  0  0  0.119408  0  1.031613  0  0  0.110279  0.113006  0  1.035545  0
H  H26  1  0.87439809  0.89568258  0.52705507  1  0  0.111673  0  0.962632  0  0  0.115663  0  1.033904  0  0  0.119378  0  1.031682  0  0  0.110287  0.112969  0  1.035638  0
H  H27  1  0.10431592  0.12559446  0.97294448  1  0  0.111668  0  0.962608  0  0  0.115658  0  1.033853  0  0  0.119364  0  1.031653  0  0  0.11029  0.112967  0  1.035585  0
C  C28  1  0.84302780  0.43039996  0.81093178  1  0  0.645664  0  3.889725  0  0  0.585131  0  4.195197  0  0  0.619263  0  4.186773  0  0  0.222085  0.561911  0  4.200278  0
C  C29  1  0.56960603  0.15697077  0.68906810  1  0  0.64581  0  3.889749  0  0  0.58522  0  4.195265  0  0  0.619355  0  4.186837  0  0  0.222051  0.561998  0  4.200352  0
C  C30  1  0.15696806  0.56960576  0.18906878  1  0  0.645625  0  3.88991  0  0  0.585082  0  4.195447  0  0  0.619219  0  4.187019  0  0  0.221989  0.561862  0  4.200529  0
C  C31  1  0.43039666  0.84302861  0.31092934  1  0  0.645517  0  3.889817  0  0  0.585114  0  4.195171  0  0  0.619252  0  4.18674  0  0  0.222029  0.561891  0  4.200253  0
C  C32  1  0.93321820  0.33853325  0.71730303  1  0  0.096168  0  3.746425  0  0  0.098515  0  3.995177  0  0  0.098198  0  4.015392  0  0  0.110916  0.098521  0  3.981685  0
C  C33  1  0.66147529  0.06678094  0.78269605  1  0  0.096138  0  3.746507  0  0  0.09857  0  3.995156  0  0  0.098247  0  4.01538  0  0  0.110956  0.098578  0  3.98166  0
C  C34  1  0.06677926  0.66147120  0.28269751  1  0  0.096291  0  3.746371  0  0  0.098551  0  3.99526  0  0  0.098222  0  4.015496  0  0  0.110997  0.098557  0  3.981767  0
C  C35  1  0.33853167  0.93322112  0.21730094  1  0  0.096372  0  3.746343  0  0  0.098599  0  3.995206  0  0  0.09827  0  4.015441  0  0  0.110984  0.098608  0  3.981711  0
C  C36  1  0.09044476  0.21187555  0.72209099  1  0  -0.079078  0  3.645194  0  0  -0.106992  0  3.898107  0  0  -0.10919  0  3.915611  0  0  -0.065625  -0.105606  0  3.886547  0
C  C37  1  0.78813449  0.90955661  0.77790868  1  0  -0.079128  0  3.645553  0  0  -0.107054  0  3.898407  0  0  -0.109253  0  3.915916  0  0  -0.065615  -0.105669  0  3.886845  0
C  C38  1  0.90955233  0.78813017  0.27791026  1  0  -0.079242  0  3.645379  0  0  -0.107112  0  3.898287  0  0  -0.109309  0  3.915794  0  0  -0.065672  -0.105726  0  3.886726  0
C  C39  1  0.21187213  0.09044676  0.22208747  1  0  -0.07912  0  3.645268  0  0  -0.106985  0  3.89822  0  0  -0.109181  0  3.915728  0  0  -0.06561  -0.105598  0  3.886659  0
C  C40  1  0.15958317  0.12234950  0.63464210  1  0  0.02823  0  3.648712  0  0  0.010953  0  3.901412  0  0  0.013606  0  3.916483  0  0  -0.055003  0.009221  0  3.89137  0
C  C41  1  0.87765576  0.84041938  0.86535720  1  0  0.028171  0  3.648762  0  0  0.010962  0  3.901405  0  0  0.013613  0  3.916477  0  0  -0.054968  0.00923  0  3.891367  0
C  C42  1  0.84041659  0.87765106  0.36535932  1  0  0.028172  0  3.648899  0  0  0.010909  0  3.901569  0  0  0.01356  0  3.916638  0  0  -0.055001  0.009179  0  3.891524  0
C  C43  1  0.12234905  0.15958132  0.13464079  1  0  0.02819  0  3.648798  0  0  0.010932  0  3.901487  0  0  0.013584  0  3.916557  0  0  -0.054964  0.009202  0  3.891444  0
C  C44  1  0.07468583  0.16809002  0.54381056  1  0  -0.081949  0  3.667686  0  0  -0.107625  0  3.920598  0  0  -0.110189  0  3.938179  0  0  -0.064592  -0.106012  0  3.909019  0
C  C45  1  0.83191443  0.92531688  0.95619097  1  0  -0.081865  0  3.667615  0  0  -0.107598  0  3.920553  0  0  -0.110151  0  3.938124  0  0  -0.064588  -0.105985  0  3.908977  0
C  C46  1  0.92531320  0.83191312  0.45619151  1  0  -0.081771  0  3.667634  0  0  -0.107507  0  3.920543  0  0  -0.110052  0  3.938108  0  0  -0.064552  -0.105894  0  3.908964  0
C  C47  1  0.16809003  0.07468512  0.04380696  1  0  -0.081777  0  3.667459  0  0  -0.107491  0  3.920402  0  0  -0.110037  0  3.937969  0  0  -0.064584  -0.105879  0  3.908826  0
C  C48  1  0.91881250  0.29708395  0.54495061  1  0  0.101224  0  3.741074  0  0  0.104295  0  3.984762  0  0  0.104506  0  4.004351  0  0  0.113397  0.103922  0  3.971662  0
C  C49  1  0.70292272  0.08118883  0.95504770  1  0  0.101182  0  3.741226  0  0  0.104217  0  3.984948  0  0  0.104427  0  4.004535  0  0  0.113411  0.103843  0  3.971853  0
C  C50  1  0.08118656  0.70291922  0.45504991  1  0  0.101221  0  3.741093  0  0  0.104366  0  3.984711  0  0  0.104576  0  4.004296  0  0  0.113438  0.103992  0  3.971611  0
C  C51  1  0.29708583  0.91881193  0.04495004  1  0  0.101148  0  3.741018  0  0  0.104257  0  3.984665  0  0  0.104466  0  4.004253  0  0  0.113428  0.103886  0  3.971565  0
C  C52  1  0.81590478  0.34827725  0.45114643  1  0  0.6367  0  3.886602  0  0  0.581795  0  4.181824  0  0  0.615626  0  4.174795  0  0  0.21821  0.558891  0  4.185783  0
C  C53  1  0.65172905  0.18408711  0.04885649  1  0  0.636901  0  3.88688  0  0  0.582063  0  4.182002  0  0  0.615894  0  4.17497  0  0  0.218324  0.55916  0  4.185963  0
C  C54  1  0.18409037  0.65172195  0.54885461  1  0  0.636658  0  3.886657  0  0  0.581721  0  4.181888  0  0  0.61555  0  4.174866  0  0  0.218154  0.558818  0  4.185845  0
C  C55  1  0.34827560  0.81590970  0.95114098  1  0  0.636981  0  3.886692  0  0  0.582077  0  4.181867  0  0  0.615908  0  4.174837  0  0  0.218349  0.559177  0  4.185825  0
N  N56  1  0.84679016  0.37702093  0.63103468  1  0  -0.359458  0  3.283472  0  0  -0.299617  0  3.535447  0  0  -0.315672  0  3.554836  0  0  -0.304491  -0.288499  0  3.522293  0
N  N57  1  0.62298481  0.15320815  0.86896374  1  0  -0.359518  0  3.283477  0  0  -0.299675  0  3.535427  0  0  -0.31573  0  3.55482  0  0  -0.304548  -0.288558  0  3.522275  0
N  N58  1  0.15320801  0.62298092  0.36896599  1  0  -0.359513  0  3.283397  0  0  -0.299676  0  3.535407  0  0  -0.315729  0  3.554802  0  0  -0.304551  -0.288556  0  3.522252  0
N  N59  1  0.37702198  0.84678999  0.13103351  1  0  -0.359527  0  3.283481  0  0  -0.299673  0  3.535495  0  0  -0.315726  0  3.554892  0  0  -0.304521  -0.288555  0  3.522341  0
O  O60  1  0.68654127  0.51644720  0.80314277  1  0  -0.646752  0  2.125108  0  0  -0.578996  0  2.396459  0  0  -0.607141  0  2.383238  0  0  -0.312534  -0.55911  0  2.404569  0
O  O61  1  0.48356016  0.31345733  0.69685755  1  0  -0.646772  0  2.125186  0  0  -0.579049  0  2.396657  0  0  -0.607195  0  2.38343  0  0  -0.312534  -0.559155  0  2.404754  0
O  O62  1  0.31345638  0.48356117  0.19685674  1  0  -0.646777  0  2.125154  0  0  -0.579022  0  2.396554  0  0  -0.607166  0  2.383325  0  0  -0.312532  -0.559135  0  2.404667  0
O  O63  1  0.51643828  0.68653940  0.30313956  1  0  -0.646682  0  2.125244  0  0  -0.578971  0  2.396559  0  0  -0.607114  0  2.383328  0  0  -0.312499  -0.559083  0  2.404672  0
O  O64  1  0.92355397  0.41399823  0.89163232  1  0  -0.624389  0  2.017958  0  0  -0.558686  0  2.238196  0  0  -0.584498  0  2.22866  0  0  -0.296831  -0.540769  0  2.244427  0
O  O65  1  0.58600837  0.07644302  0.60836694  1  0  -0.624455  0  2.017905  0  0  -0.558759  0  2.238169  0  0  -0.584571  0  2.228632  0  0  -0.296825  -0.540847  0  2.244396  0
O  O66  1  0.07644298  0.58600362  0.10836765  1  0  -0.624356  0  2.017952  0  0  -0.558668  0  2.238203  0  0  -0.58448  0  2.228668  0  0  -0.296807  -0.540757  0  2.244431  0
O  O67  1  0.41399466  0.92355506  0.39163133  1  0  -0.624375  0  2.017812  0  0  -0.558728  0  2.238017  0  0  -0.584539  0  2.228482  0  0  -0.29686  -0.540812  0  2.244253  0
O  O68  1  0.65601646  0.42558259  0.47087836  1  0  -0.64776  0  2.167644  0  0  -0.567853  0  2.430326  0  0  -0.598354  0  2.418072  0  0  -0.303284  -0.546492  0  2.438029  0
O  O69  1  0.57441437  0.34398448  0.02911970  1  0  -0.647762  0  2.167496  0  0  -0.567899  0  2.430202  0  0  -0.598406  0  2.417951  0  0  -0.303267  -0.54653  0  2.437903  0
O  O70  1  0.34398152  0.57441534  0.52912334  1  0  -0.64771  0  2.167543  0  0  -0.567818  0  2.430279  0  0  -0.598319  0  2.418027  0  0  -0.303264  -0.546458  0  2.437982  0
O  O71  1  0.42558651  0.65601224  0.97087958  1  0  -0.647829  0  2.167436  0  0  -0.567944  0  2.430184  0  0  -0.598449  0  2.417933  0  0  -0.303285  -0.546587  0  2.437897  0
O  O72  1  0.89082811  0.31045237  0.36250004  1  0  -0.584228  0  1.942354  0  0  -0.533385  0  2.157835  0  0  -0.558524  0  2.150444  0  0  -0.30403  -0.515833  0  2.162391  0
O  O73  1  0.68954662  0.10917234  0.13749440  1  0  -0.584294  0  1.942759  0  0  -0.5335  0  2.158264  0  0  -0.558636  0  2.150863  0  0  -0.304129  -0.515948  0  2.162824  0
O  O74  1  0.10916689  0.68954295  0.63749971  1  0  -0.584164  0  1.94238  0  0  -0.53332  0  2.157906  0  0  -0.558461  0  2.150515  0  0  -0.303979  -0.515769  0  2.162459  0
O  O75  1  0.31045679  0.89082445  0.86250316  1  0  -0.584372  0  1.942735  0  0  -0.533539  0  2.158236  0  0  -0.558673  0  2.150836  0  0  -0.30417  -0.515988  0  2.162794  0
O  O76  1  0.23625608  0.41233618  0.94068962  1  0  -0.846694  0  1.951815  0  0  -0.784643  0  2.178985  0  0  -0.807438  0  2.141554  0  0  -0.581845  -0.768387  0  2.205107  0
O  O77  1  0.58765451  0.76374457  0.55931595  1  0  -0.846592  0  1.951756  0  0  -0.784516  0  2.178973  0  0  -0.807332  0  2.141589  0  0  -0.581796  -0.768265  0  2.205082  0
O  O78  1  0.76374288  0.58765776  0.05931692  1  0  -0.846574  0  1.951801  0  0  -0.784518  0  2.179044  0  0  -0.807319  0  2.141627  0  0  -0.581769  -0.768264  0  2.20515  0
O  O79  1  0.41233520  0.23625575  0.44069000  1  0  -0.84668  0  1.951857  0  0  -0.784621  0  2.17899  0  0  -0.807415  0  2.141559  0  0  -0.581817  -0.768367  0  2.205112  0
O  O80  1  0.36975216  0.63024015  0.75000064  1  0  -0.866809  0  2.057873  0  0  -0.786318  0  2.282723  0  0  -0.813056  0  2.243126  0  0  -0.562664  -0.767223  0  2.309918  0
O  O81  1  0.63024477  0.36975257  0.25000070  1  0  -0.866818  0  2.057817  0  0  -0.786329  0  2.282626  0  0  -0.813067  0  2.243029  0  0  -0.562657  -0.767234  0  2.309822  0
