# generated using pymatgen
data_NdCuH14C16N2O13
_symmetry_space_group_name_H-M   'P 1'
_cell_length_a   8.13368353
_cell_length_b   10.99205783
_cell_length_c   12.20762232
_cell_angle_alpha   108.57622173
_cell_angle_beta   101.36385197
_cell_angle_gamma   98.36775949
_symmetry_Int_Tables_number   1
_chemical_formula_structural   NdCuH14C16N2O13
_chemical_formula_sum   'Nd2 Cu2 H28 C32 N4 O26'
_cell_volume   988.48239125
_cell_formula_units_Z   2
loop_
 _symmetry_equiv_pos_site_id
 _symmetry_equiv_pos_as_xyz
  1  'x, y, z'
loop_
 _atom_site_type_symbol
 _atom_site_label
 _atom_site_symmetry_multiplicity
 _atom_site_fract_x
 _atom_site_fract_y
 _atom_site_fract_z
 _atom_site_occupancy
 _atom_site_hle17_ddec_charge
 _atom_site_hle17_ddec_spin_density
 _atom_site_hle17_ddec_sum_bond_order
 _atom_site_hle17_magmom
 _atom_site_hse06_10hf_ddec_charge
 _atom_site_hse06_10hf_ddec_spin_density
 _atom_site_hse06_10hf_ddec_sum_bond_order
 _atom_site_hse06_10hf_magmom
 _atom_site_hse06_ddec_charge
 _atom_site_hse06_ddec_spin_density
 _atom_site_hse06_ddec_sum_bond_order
 _atom_site_hse06_magmom
 _atom_site_pbe_cm5_charge
 _atom_site_pbe_ddec_charge
 _atom_site_pbe_ddec_spin_density
 _atom_site_pbe_ddec_sum_bond_order
 _atom_site_pbe_magmom
Nd  Nd0  1  0.45269792  0.73633701  0.42353424  1  2.309403  -6.1e-05  1.597524  0.0  2.209522  0.00014  1.954104  0.0  2.248281  -0.000239  1.913159  0.0  1.471472  2.124326  0.000242  2.089587  0.0
Nd  Nd1  1  0.54730148  0.26366133  0.57646508  1  2.309408  -5.2e-05  1.597535  0.0  2.209523  0.000149  1.954123  0.0  2.248285  -0.000244  1.913172  0.0  1.471461  2.124367  0.000243  2.089535  0.0
Cu  Cu2  1  0.48979653  0.76127654  0.95700429  1  0.824492  0.690945  1.893999  0.51  0.793252  0.772808  2.301231  0.619  0.880241  0.837783  2.234193  0.704  0.754664  0.73994  0.725954  2.348868  0.563
Cu  Cu3  1  0.51020344  0.23872376  0.04299650  1  0.824446  0.690932  1.894046  0.51  0.793167  0.772801  2.301265  0.619  0.880157  0.83778  2.234258  0.704  0.754644  0.739845  0.725996  2.348974  0.563
H  H4  1  0.95736095  0.53141432  0.20968329  1  0.114011  0.000154  0.928188  0.0  0.126833  -7.2e-05  0.982151  0.0  0.129789  -7.7e-05  0.979956  0.0  0.121122  0.12441  -5.6e-05  0.984288  0.0
H  H5  1  0.04263943  0.46858308  0.79031178  1  0.114003  0.000153  0.928194  0.0  0.12681  -7.2e-05  0.982176  0.0  0.129766  -7.7e-05  0.979984  0.0  0.1211  0.124381  -5.6e-05  0.984312  0.0
H  H6  1  0.05725072  0.63106350  0.06993192  1  0.122628  0.000573  0.966843  0.0  0.12939  0.000596  1.030413  0.0  0.13412  0.000442  1.027665  0.0  0.112275  0.125858  0.000721  1.032784  0.001
H  H7  1  0.94274687  0.36893292  0.93006168  1  0.122672  0.000572  0.966807  0.0  0.129412  0.000596  1.030404  0.0  0.134143  0.000441  1.027654  0.0  0.11227  0.125878  0.000721  1.032781  0.001
H  H8  1  0.84807050  0.72688832  0.95601975  1  0.099791  0.000925  0.928441  0.002  0.11071  0.000771  0.98507  0.002  0.113744  0.000562  0.981856  0.001  0.128007  0.108288  0.000933  0.98772  0.002
H  H9  1  0.15192401  0.27310613  0.04397286  1  0.099858  0.000925  0.928303  0.002  0.110731  0.000771  0.985001  0.002  0.113761  0.000562  0.981788  0.001  0.127993  0.108307  0.000934  0.987657  0.002
H  H10  1  0.05789400  0.00253852  0.69494308  1  0.113688  0.000105  0.923284  0.0  0.127018  -5.6e-05  0.975353  0.0  0.130795  -6.1e-05  0.972354  0.0  0.117743  0.123916  -4e-05  0.978259  0.0
H  H11  1  0.94211114  0.99746669  0.30506229  1  0.113689  0.000103  0.923252  0.0  0.127055  -5.6e-05  0.97527  0.0  0.130832  -6e-05  0.972274  0.0  0.117746  0.123952  -4e-05  0.978177  0.0
H  H12  1  0.93926781  0.91211683  0.83462605  1  0.12216  0.0005  0.967179  0.0  0.127969  0.000515  1.029844  0.0  0.133525  0.000378  1.025856  0.0  0.110389  0.123836  0.000629  1.033033  0.001
H  H13  1  0.06073455  0.08788740  0.16537703  1  0.122188  0.0005  0.967154  0.0  0.127993  0.000515  1.029819  0.0  0.133547  0.000378  1.025829  0.0  0.110406  0.12386  0.00063  1.033008  0.001
H  H14  1  0.13091552  0.81390833  0.95672016  1  0.089643  0.000947  0.931695  0.002  0.099518  0.000819  0.992392  0.001  0.102035  0.000608  0.989596  0.001  0.123738  0.097493  0.000978  0.994696  0.002
H  H15  1  0.86908444  0.18609196  0.04328145  1  0.089661  0.000948  0.931678  0.002  0.099534  0.000819  0.992373  0.001  0.102055  0.000608  0.989567  0.001  0.123763  0.097512  0.000978  0.99468  0.002
H  H16  1  0.61736369  0.61918198  0.60634445  1  0.445971  -2e-06  0.848258  0.0  0.417016  -1e-06  0.908454  0.0  0.428766  -1e-06  0.891209  0.0  0.299767  0.408595  -0.0  0.92056  0.0
H  H17  1  0.38263446  0.38081636  0.39365470  1  0.445977  -2e-06  0.848247  0.0  0.417025  -1e-06  0.908439  0.0  0.428774  -1e-06  0.891197  0.0  0.299788  0.408598  0.0  0.920548  0.0
H  H18  1  0.46276034  0.65626751  0.65587487  1  0.433157  4.4e-05  0.860766  0.0  0.404809  2.9e-05  0.919899  0.0  0.415702  2.5e-05  0.904003  0.0  0.296983  0.396924  4e-05  0.931239  0.0
H  H19  1  0.53723684  0.34373182  0.34412363  1  0.433155  4.5e-05  0.860765  0.0  0.404811  2.9e-05  0.919889  0.0  0.415703  2.5e-05  0.903994  0.0  0.297006  0.396924  4e-05  0.931234  0.0
H  H20  1  0.74758610  0.97330787  0.57157015  1  0.436121  -2e-06  0.844731  0.0  0.410564  -3e-06  0.906679  0.0  0.420353  -1e-06  0.892175  0.0  0.309679  0.403463  -4e-06  0.91702  0.0
H  H21  1  0.25241511  0.02669242  0.42843244  1  0.436116  -2e-06  0.844717  0.0  0.410562  -3e-06  0.906673  0.0  0.420351  -1e-06  0.892169  0.0  0.309681  0.403463  -4e-06  0.917012  0.0
H  H22  1  0.72425002  0.88206365  0.64263297  1  0.425319  -0.000101  0.860363  0.0  0.397601  -6.2e-05  0.929731  0.0  0.406635  -4.7e-05  0.916471  0.0  0.304592  0.39131  -7e-05  0.938767  0.0
H  H23  1  0.27575034  0.11793371  0.35736619  1  0.42529  -0.000101  0.860308  0.0  0.39757  -6.2e-05  0.929754  0.0  0.406606  -4.7e-05  0.91649  0.0  0.304581  0.391276  -6.9e-05  0.938799  0.0
H  H24  1  0.12639364  0.78344216  0.28706604  1  0.427264  -5.4e-05  0.840354  0.0  0.403584  -4e-05  0.905822  0.0  0.410579  -3.6e-05  0.895584  0.0  0.319254  0.39878  -3.9e-05  0.91265  0.0
H  H25  1  0.87360113  0.21655320  0.71293262  1  0.427256  -5.3e-05  0.84046  0.0  0.403582  -4e-05  0.905845  0.0  0.410577  -3.6e-05  0.895607  0.0  0.319251  0.398774  -3.9e-05  0.912678  0.0
H  H26  1  0.26397499  0.87980923  0.25883179  1  0.447961  0.000188  0.841706  0.0  0.417788  0.000179  0.903706  0.0  0.427502  9.9e-05  0.889491  0.0  0.312698  0.410733  0.000271  0.913897  0.0
H  H27  1  0.73602064  0.12018910  0.74116785  1  0.447954  0.000189  0.841713  0.0  0.417778  0.000179  0.90372  0.0  0.427491  9.9e-05  0.889504  0.0  0.312677  0.410723  0.000271  0.913909  0.0
H  H28  1  0.92899685  0.40645657  0.36883492  1  0.104754  1.4e-05  0.923865  0.0  0.120608  1.1e-05  0.981519  0.0  0.122066  1.7e-05  0.982213  0.0  0.100779  0.119641  6e-06  0.98122  0.0
H  H29  1  0.07100186  0.59354372  0.63116652  1  0.104746  1.2e-05  0.923857  0.0  0.1206  1.1e-05  0.981516  0.0  0.122057  1.7e-05  0.982211  0.0  0.10078  0.119631  6e-06  0.981212  0.0
H  H30  1  0.09297621  0.38458230  0.47437117  1  0.124168  -6e-06  0.928267  0.0  0.138187  -3e-06  0.984168  0.0  0.141252  -2e-06  0.982727  0.0  0.107316  0.13585  -3e-06  0.985735  0.0
H  H31  1  0.90702530  0.61541899  0.52563012  1  0.124164  -7e-06  0.928274  0.0  0.138185  -3e-06  0.984173  0.0  0.141249  -2e-06  0.982731  0.0  0.107311  0.135842  -3e-06  0.985742  0.0
C  C32  1  0.60342437  0.63743505  0.11518976  1  0.071107  -0.008944  3.707464  -0.006  0.065074  -0.002533  3.956187  -0.001  0.069134  -0.003875  3.974886  -0.002  0.113814  0.062179  -0.001602  3.944837  -0.001
C  C33  1  0.39657572  0.36256135  0.88480663  1  0.071068  -0.008943  3.707455  -0.006  0.064995  -0.002533  3.956246  -0.001  0.069052  -0.003875  3.974949  -0.002  0.113783  0.062104  -0.001601  3.944892  -0.001
C  C34  1  0.70797540  0.57975080  0.17971785  1  -0.069569  0.006275  3.652942  0.006  -0.057955  0.002146  3.893035  0.002  -0.065069  0.002201  3.910072  0.002  0.014275  -0.05425  0.00218  3.882793  0.002
C  C35  1  0.29202555  0.42024856  0.82027951  1  -0.069422  0.006273  3.652749  0.006  -0.057904  0.002145  3.892961  0.002  -0.065014  0.002201  3.910001  0.002  0.01427  -0.054194  0.002181  3.882708  0.002
C  C36  1  0.87268232  0.57639852  0.16167212  1  -0.005316  -0.012746  3.64426  -0.008  -0.032454  -0.004777  3.891105  -0.003  -0.025787  -0.005385  3.903277  -0.003  -0.050442  -0.037365  -0.004294  3.884388  -0.002
C  C37  1  0.12731709  0.42359987  0.83832312  1  -0.005297  -0.012743  3.644316  -0.008  -0.032398  -0.004775  3.891177  -0.003  -0.025732  -0.005384  3.903349  -0.003  -0.050394  -0.037302  -0.004293  3.884443  -0.002
C  C38  1  0.92849776  0.63095931  0.08326005  1  -0.117113  0.009533  3.702765  0.01  -0.128067  0.003949  3.953467  0.005  -0.133536  0.00363  3.968232  0.004  -0.077324  -0.124765  0.004164  3.944243  0.005
C  C39  1  0.07150040  0.36903908  0.91673421  1  -0.117254  0.009534  3.703025  0.01  -0.128191  0.003949  3.953705  0.005  -0.133659  0.00363  3.968466  0.004  -0.077376  -0.124887  0.004165  3.94448  0.005
C  C40  1  0.81594962  0.68494947  0.02083159  1  0.156198  -0.011647  3.646102  -0.008  0.12416  -0.003211  3.900572  -0.002  0.135104  -0.004853  3.915431  -0.003  0.06097  0.116964  -0.001924  3.891182  -0.001
C  C41  1  0.18404797  0.31504695  0.97916283  1  0.156166  -0.011649  3.646119  -0.008  0.124153  -0.003211  3.900576  -0.002  0.135103  -0.004854  3.91543  -0.003  0.060999  0.116958  -0.001923  3.891198  -0.001
C  C42  1  0.42323974  0.65003541  0.12244840  1  0.637159  -0.0063  3.908712  -0.005  0.588487  -0.001021  4.218068  -0.001  0.625144  -0.001039  4.209444  -0.001  0.214833  0.563489  -0.000915  4.220743  -0.001
C  C43  1  0.57675926  0.34996590  0.87755011  1  0.637076  -0.006303  3.908719  -0.005  0.588474  -0.001022  4.217976  -0.001  0.625133  -0.001039  4.209352  -0.001  0.214843  0.563472  -0.000915  4.220668  -0.001
C  C44  1  0.65380607  0.52250579  0.26804384  1  0.704362  0.000349  3.895587  0.0  0.652341  0.000408  4.200828  0.001  0.6889  0.000169  4.189242  0.0  0.231777  0.627891  0.000681  4.204708  0.001
C  C45  1  0.34619795  0.47749553  0.73195533  1  0.704185  0.000349  3.895777  0.0  0.652228  0.000408  4.200953  0.001  0.688779  0.000169  4.189384  0.0  0.231757  0.627763  0.000681  4.204848  0.001
C  C46  1  0.40892491  0.91695880  0.82464731  1  0.063952  -0.005115  3.714416  -0.003  0.054084  -0.000897  3.971992  0.0  0.05752  -0.002212  3.989947  -0.001  0.111211  0.051201  0.000313  3.961824  0.001
C  C47  1  0.59107715  0.08304443  0.17535708  1  0.063967  -0.005113  3.714425  -0.003  0.054128  -0.000898  3.971975  0.0  0.057566  -0.00221  3.989924  -0.001  0.111255  0.051249  0.000315  3.961807  0.001
C  C48  1  0.30976705  0.96593301  0.74876942  1  -0.068526  0.003851  3.662597  0.004  -0.056506  0.001124  3.903781  0.001  -0.062751  0.001136  3.920584  0.001  0.015191  -0.053504  0.001176  3.894771  0.001
C  C49  1  0.69023724  0.03406925  0.25123416  1  -0.068554  0.003848  3.662667  0.004  -0.056534  0.001125  3.903897  0.001  -0.062782  0.001136  3.920692  0.001  0.015121  -0.053522  0.001177  3.894884  0.001
C  C50  1  0.13856603  0.96462574  0.75285161  1  0.002274  -0.009241  3.630997  -0.006  -0.025591  -0.003126  3.876657  -0.002  -0.020707  -0.003652  3.890837  -0.002  -0.048677  -0.029201  -0.002596  3.86842  -0.001
C  C51  1  0.86143535  0.03537947  0.24715164  1  0.002256  -0.009224  3.631005  -0.006  -0.025608  -0.003126  3.876613  -0.002  -0.020733  -0.003649  3.890804  -0.002  -0.048651  -0.029219  -0.002595  3.868379  -0.001
C  C52  1  0.07125930  0.91222491  0.82873195  1  -0.085205  0.007548  3.668799  0.008  -0.097128  0.003107  3.917837  0.004  -0.102315  0.002753  3.933157  0.003  -0.068678  -0.093853  0.003351  3.907959  0.004
C  C53  1  0.92874305  0.08777932  0.17127195  1  -0.085287  0.007544  3.668828  0.008  -0.09722  0.003107  3.917878  0.004  -0.102401  0.002752  3.933195  0.003  -0.068713  -0.093944  0.003351  3.908005  0.004
C  C54  1  0.17565870  0.85881320  0.89715807  1  0.145279  -0.008989  3.664742  -0.006  0.111562  -0.002158  3.923835  -0.001  0.122312  -0.003496  3.939012  -0.002  0.055785  0.104542  -0.001021  3.914001  0.0
C  C55  1  0.82434182  0.14118905  0.10284501  1  0.145332  -0.008992  3.664737  -0.006  0.111625  -0.002159  3.923802  -0.001  0.122377  -0.003494  3.93898  -0.002  0.055754  0.104604  -0.001021  3.913983  0.0
C  C56  1  0.59814690  0.92144501  0.83894881  1  0.621945  -0.007778  3.909063  -0.007  0.568717  -0.001612  4.224898  -0.002  0.604616  -0.001606  4.218477  -0.001  0.214256  0.544023  -0.001403  4.229351  -0.002
C  C57  1  0.40185237  0.07855722  0.16105574  1  0.621971  -0.007777  3.908993  -0.007  0.568685  -0.001612  4.22489  -0.002  0.604593  -0.001607  4.218458  -0.001  0.214298  0.543989  -0.0014  4.229373  -0.002
C  C58  1  0.37888080  0.01222609  0.65956999  1  0.731796  0.000747  3.887424  0.001  0.684388  0.000695  4.181304  0.001  0.720056  0.000414  4.169254  0.001  0.238788  0.659771  0.000999  4.185439  0.001
C  C59  1  0.62111609  0.98777223  0.34042982  1  0.731872  0.000747  3.887421  0.001  0.68436  0.000694  4.181457  0.001  0.720052  0.000414  4.169373  0.001  0.238789  0.659725  0.001  4.18562  0.001
C  C60  1  0.16536102  0.54474552  0.41757643  1  0.688694  -3.8e-05  3.879606  0.0  0.641674  -1.3e-05  4.192027  0.0  0.674259  -0.0  4.184301  0.0  0.191737  0.620654  -8e-06  4.190254  0.0
C  C61  1  0.83463769  0.45525477  0.58242501  1  0.688754  -3.9e-05  3.879492  0.0  0.641744  -1.3e-05  4.191901  0.0  0.674328  -1e-06  4.184174  0.0  0.191771  0.620725  -8e-06  4.190113  0.0
C  C62  1  0.03526610  0.45956589  0.45008429  1  -0.234197  5e-06  3.66  0.0  -0.270266  -5e-06  3.904566  0.0  -0.27573  -7e-06  3.912963  0.0  -0.162355  -0.267174  -4e-06  3.900179  0.0
C  C63  1  0.96473290  0.54043541  0.54991585  1  -0.234208  7e-06  3.659992  0.0  -0.270286  -5e-06  3.904564  0.0  -0.275748  -6e-06  3.912958  0.0  -0.162373  -0.267194  -4e-06  3.90018  0.0
N  N64  1  0.65830994  0.68678072  0.03717418  1  -0.30746  0.073527  3.384605  0.095  -0.265919  0.050325  3.687753  0.069  -0.295009  0.041482  3.708033  0.061  -0.354528  -0.248994  0.055003  3.676985  0.072
N  N65  1  0.34168610  0.31321470  0.96282056  1  -0.307361  0.073527  3.384596  0.095  -0.265781  0.050323  3.687711  0.069  -0.294875  0.041482  3.708005  0.061  -0.354463  -0.248855  0.054997  3.676968  0.072
N  N66  1  0.33976016  0.86185455  0.89445010  1  -0.304478  0.067049  3.392248  0.086  -0.261972  0.046279  3.693312  0.063  -0.290476  0.037727  3.714406  0.055  -0.352099  -0.245015  0.050973  3.681455  0.066
N  N67  1  0.66023940  0.13814868  0.10555396  1  -0.304478  0.067046  3.392242  0.086  -0.261978  0.046279  3.693281  0.063  -0.290485  0.037726  3.714384  0.055  -0.352067  -0.24502  0.050964  3.681455  0.066
O  O68  1  0.34387220  0.69824807  0.04954886  1  -0.579562  0.080345  2.035813  0.111  -0.556124  0.055446  2.327642  0.084  -0.596722  0.042105  2.318531  0.069  -0.316993  -0.5294  0.064232  2.33449  0.092
O  O69  1  0.65612902  0.30175224  0.95045128  1  -0.579563  0.080354  2.0358  0.111  -0.556124  0.05545  2.327559  0.084  -0.596725  0.042109  2.318455  0.069  -0.317012  -0.529392  0.064229  2.334432  0.092
O  O70  1  0.35818023  0.61344928  0.19496669  1  -0.661119  0.013986  2.014966  0.019  -0.624986  0.007399  2.258571  0.011  -0.649771  0.003432  2.25013  0.005  -0.346269  -0.600255  0.011862  2.26403  0.016
O  O71  1  0.64182368  0.38655597  0.80503444  1  -0.661062  0.013987  2.014923  0.019  -0.624961  0.0074  2.258517  0.011  -0.649748  0.003432  2.250074  0.005  -0.346254  -0.600227  0.011863  2.263974  0.016
O  O72  1  0.65394872  0.60319604  0.36864912  1  -0.700384  0.001435  2.006028  0.002  -0.652786  0.00069  2.251313  0.001  -0.677724  0.000389  2.239312  0.0  -0.389739  -0.627022  0.001063  2.260139  0.001
O  O73  1  0.34605963  0.39680725  0.63135202  1  -0.700322  0.001434  2.006154  0.002  -0.652718  0.00069  2.2514  0.001  -0.67764  0.00039  2.239375  0.0  -0.389741  -0.626962  0.001063  2.260226  0.001
O  O74  1  0.62415951  0.39843137  0.23786911  1  -0.628285  5.6e-05  2.001389  0.002  -0.5804  -0.000546  2.243317  0.001  -0.6119  -0.001023  2.232607  0.0  -0.299933  -0.558558  0.000121  2.250771  0.002
O  O75  1  0.37584171  0.60156894  0.76213103  1  -0.628237  5.7e-05  2.001444  0.002  -0.580369  -0.000546  2.243352  0.001  -0.611869  -0.001024  2.232642  0.0  -0.299927  -0.558522  0.000125  2.250798  0.002
O  O76  1  0.66106943  0.85368826  0.89877396  1  -0.570505  0.094457  2.051893  0.13  -0.547808  0.063537  2.33767  0.095  -0.590885  0.048019  2.331459  0.078  -0.316762  -0.519467  0.073352  2.342525  0.104
O  O77  1  0.33892801  0.14631200  0.10122977  1  -0.570587  0.094456  2.051954  0.13  -0.547799  0.063538  2.337672  0.095  -0.590872  0.048019  2.331457  0.078  -0.31676  -0.519457  0.073338  2.342562  0.104
O  O78  1  0.68664303  0.99045415  0.79784858  1  -0.600547  0.015132  2.003452  0.02  -0.547859  0.008057  2.229798  0.012  -0.574106  0.003719  2.2209  0.006  -0.291282  -0.528933  0.012789  2.235371  0.017
O  O79  1  0.31335555  0.00955003  0.20215809  1  -0.600571  0.015134  2.003457  0.02  -0.547868  0.008058  2.229818  0.012  -0.574143  0.003719  2.220946  0.006  -0.291319  -0.52892  0.012789  2.235367  0.017
O  O80  1  0.40280436  0.13439872  0.67818564  1  -0.712226  0.00051  2.022594  0.001  -0.666113  0.000187  2.265745  0.0  -0.69293  4.3e-05  2.257123  0.0  -0.372562  -0.640342  0.000443  2.272476  0.001
O  O81  1  0.59718934  0.86560158  0.32181269  1  -0.712238  0.000509  2.022592  0.001  -0.666075  0.000187  2.265769  0.0  -0.692897  4.2e-05  2.257134  0.0  -0.372571  -0.640289  0.000443  2.272509  0.001
O  O82  1  0.40009051  0.92504019  0.57054073  1  -0.730347  0.001541  2.067473  0.002  -0.688068  0.000837  2.324128  0.001  -0.71279  0.00051  2.311485  0.001  -0.382562  -0.66168  0.001209  2.332745  0.002
O  O83  1  0.59991139  0.07495813  0.42946137  1  -0.730368  0.001541  2.067544  0.002  -0.688063  0.000838  2.324276  0.001  -0.712794  0.00051  2.311619  0.001  -0.382555  -0.661676  0.00121  2.332907  0.002
O  O84  1  0.53778937  0.68138061  0.60779472  1  -0.922147  -1.6e-05  1.830594  0.0  -0.876363  -3e-05  2.013587  0.0  -0.894733  -3.8e-05  1.980215  0.0  -0.640869  -0.855983  1.1e-05  2.040475  0.0
O  O85  1  0.46220542  0.31861480  0.39219985  1  -0.922156  -1.7e-05  1.830592  0.0  -0.876379  -3e-05  2.013598  0.0  -0.894752  -3.7e-05  1.980223  0.0  -0.640903  -0.855994  1.1e-05  2.040499  0.0
O  O86  1  0.73920189  0.88057527  0.56426860  1  -0.866597  -0.000105  1.836342  0.0  -0.827097  -0.000101  2.012899  0.0  -0.844211  -7.9e-05  1.983899  0.0  -0.625336  -0.808824  -0.000112  2.036514  0.0
O  O87  1  0.26079905  0.11942405  0.43573203  1  -0.866567  -0.000105  1.836294  0.0  -0.827076  -0.000101  2.012945  0.0  -0.844191  -8e-05  1.98394  0.0  -0.625338  -0.808805  -0.000112  2.036559  0.0
O  O88  1  0.23636972  0.84706572  0.32123661  1  -0.879084  0.000248  1.919257  0.0  -0.834619  0.000173  2.103848  0.0  -0.850786  9.2e-05  2.075044  0.0  -0.596143  -0.817373  0.000277  2.126493  0.0
O  O89  1  0.76362689  0.15293163  0.67876205  1  -0.879077  0.000247  1.919404  0.0  -0.834614  0.000173  2.103936  0.0  -0.850787  9.2e-05  2.075137  0.0  -0.596123  -0.817369  0.000277  2.126584  0.0
O  O90  1  0.15531492  0.66363265  0.43148734  1  -0.707619  2.6e-05  1.927551  0.0  -0.663896  -5e-06  2.164554  0.0  -0.687403  -2.3e-05  2.155313  0.0  -0.398167  -0.641417  2.6e-05  2.170303  0.0
O  O91  1  0.84468938  0.33636961  0.56851624  1  -0.707661  2.6e-05  1.927509  0.0  -0.663927  -5e-06  2.164491  0.0  -0.687434  -2.3e-05  2.155251  0.0  -0.398186  -0.641461  2.6e-05  2.170238  0.0
O  O92  1  0.28604126  0.49923389  0.37652988  1  -0.712966  0.000128  2.010197  0.0  -0.662854  4.2e-05  2.243281  0.0  -0.68706  1.7e-05  2.23185  0.0  -0.362373  -0.640689  7.6e-05  2.250238  0.0
O  O93  1  0.71395688  0.50076443  0.62347090  1  -0.713001  0.000129  2.010185  0.0  -0.662879  4.2e-05  2.243247  0.0  -0.687085  1.7e-05  2.231813  0.0  -0.362393  -0.64072  7.6e-05  2.250194  0.0
