# generated using pymatgen
data_AgH3C6NO2
_symmetry_space_group_name_H-M   'P 1'
_cell_length_a   6.63354753
_cell_length_b   9.06029446
_cell_length_c   9.06026114
_cell_angle_alpha   83.93781998
_cell_angle_beta   90.09455627
_cell_angle_gamma   90.09416595
_symmetry_Int_Tables_number   1
_chemical_formula_structural   AgH3C6NO2
_chemical_formula_sum   'Ag4 H12 C24 N4 O8'
_cell_volume   541.49239409
_cell_formula_units_Z   4
loop_
 _symmetry_equiv_pos_site_id
 _symmetry_equiv_pos_as_xyz
  1  'x, y, z'
loop_
 _atom_site_type_symbol
 _atom_site_label
 _atom_site_symmetry_multiplicity
 _atom_site_fract_x
 _atom_site_fract_y
 _atom_site_fract_z
 _atom_site_occupancy
 _atom_site_pbe_bader_spin_density
 _atom_site_pbe_cm5_charge
 _atom_site_pbe_ddec_charge
 _atom_site_pbe_ddec_spin_density
 _atom_site_pbe_ddec_sum_bond_order
 _atom_site_pbe_magmom
Ag  Ag0  1  0.25001090  0.04713455  0.95287339  1  0  0.436607  0.521346  0  1.719207  0
Ag  Ag1  1  0.74998986  0.95286982  0.04713343  1  0  0.436604  0.521357  0  1.719173  0
Ag  Ag2  1  0.75000404  0.63677142  0.36322655  1  0  0.464497  0.471335  0  1.730924  0
Ag  Ag3  1  0.24999669  0.36322623  0.63677442  1  0  0.464478  0.47129  0  1.730931  0
H  H4  1  0.25027239  0.51186697  0.96312647  1  0  0.107582  0.10727  0  1.009009  0
H  H5  1  0.24972676  0.03687050  0.48814020  1  0  0.107598  0.107344  0  1.008946  0
H  H6  1  0.74972065  0.48814170  0.03687107  1  0  0.107604  0.10733  0  1.008996  0
H  H7  1  0.75027704  0.96312497  0.51186321  1  0  0.107597  0.107294  0  1.009002  0
H  H8  1  0.41034351  0.27056300  0.06778474  1  0  0.10325  0.112489  0  1.041756  0
H  H9  1  0.08965928  0.93221057  0.72944500  1  0  0.103257  0.112479  0  1.041782  0
H  H10  1  0.58965096  0.72944227  0.93220546  1  0  0.1032  0.112379  0  1.041688  0
H  H11  1  0.91035363  0.06778389  0.27056178  1  0  0.103241  0.11246  0  1.041812  0
H  H12  1  0.43388627  0.21774518  0.34258086  1  0  0.109704  0.082811  0  1.031291  0
H  H13  1  0.06611558  0.65741528  0.78225952  1  0  0.109701  0.082824  0  1.031256  0
H  H14  1  0.56611880  0.78225573  0.65740977  1  0  0.10971  0.082863  0  1.031257  0
H  H15  1  0.93389275  0.34258022  0.21774385  1  0  0.109686  0.082758  0  1.031366  0
C  C16  1  0.26312409  0.56021214  0.32995489  1  0  0.115921  0.139018  0  3.981041  0
C  C17  1  0.23687292  0.67004514  0.43978975  1  0  0.115858  0.138954  0  3.981097  0
C  C18  1  0.73687963  0.43978663  0.67004482  1  0  0.115865  0.13897  0  3.981048  0
C  C19  1  0.76312933  0.32995141  0.56021134  1  0  0.115853  0.139037  0  3.980995  0
C  C20  1  0.21907565  0.59135417  0.17744527  1  0  -0.007699  -0.092978  0  3.908058  0
C  C21  1  0.28092491  0.82255535  0.40865015  1  0  -0.007706  -0.093029  0  3.908139  0
C  C22  1  0.78092653  0.40864903  0.82255505  1  0  -0.007743  -0.09303  0  3.908158  0
C  C23  1  0.71908037  0.17744235  0.59135300  1  0  -0.007657  -0.092946  0  3.908013  0
C  C24  1  0.27511702  0.48659186  0.08202096  1  0  -0.065658  -0.046745  0  3.922528  0
C  C25  1  0.22488329  0.91797526  0.51341391  1  0  -0.065724  -0.046905  0  3.922597  0
C  C26  1  0.72488058  0.51341351  0.91797693  1  0  -0.065723  -0.046899  0  3.922501  0
C  C27  1  0.77511900  0.08202020  0.48658951  1  0  -0.065686  -0.046806  0  3.92253  0
C  C28  1  0.36029996  0.35279456  0.13909500  1  0  -0.078102  -0.09869  0  3.930088  0
C  C29  1  0.13969919  0.86090184  0.64720917  1  0  -0.078053  -0.098563  0  3.930063  0
C  C30  1  0.63969605  0.64720962  0.86089642  1  0  -0.078041  -0.098487  0  3.930067  0
C  C31  1  0.86030004  0.13909579  0.35279181  1  0  -0.078075  -0.098632  0  3.930094  0
C  C32  1  0.37903139  0.32464131  0.29269728  1  0  0.04335  0.098141  0  3.950765  0
C  C33  1  0.12096776  0.70730128  0.67535934  1  0  0.043296  0.098022  0  3.95086  0
C  C34  1  0.62096920  0.67535960  0.70729669  1  0  0.043374  0.098097  0  3.950895  0
C  C35  1  0.87903750  0.29269639  0.32464159  1  0  0.043296  0.098106  0  3.950789  0
C  C36  1  0.10925970  0.72767281  0.11027169  1  0  0.19776  0.569566  0  4.229161  0
C  C37  1  0.39073171  0.88972843  0.27232976  1  0  0.197815  0.569762  0  4.22921  0
C  C38  1  0.89073653  0.27232817  0.88973224  1  0  0.197648  0.569487  0  4.229392  0
C  C39  1  0.60926298  0.11027029  0.72767113  1  0  0.19769  0.56941  0  4.229416  0
N  N40  1  0.33375935  0.42570747  0.38530030  1  0  -0.33157  -0.28339  0  3.563622  0
N  N41  1  0.16624034  0.61469760  0.57429484  1  0  -0.331496  -0.283306  0  3.563624  0
N  N42  1  0.66624730  0.57429126  0.61469388  1  0  -0.331498  -0.28333  0  3.563614  0
N  N43  1  0.83376344  0.38529897  0.42570734  1  0  -0.331526  -0.283367  0  3.563557  0
O  O44  1  0.95305507  0.76836826  0.17835619  1  0  -0.327336  -0.538755  0  2.454321  0
O  O45  1  0.54693580  0.82164582  0.23163166  1  0  -0.327372  -0.538832  0  2.454407  0
O  O46  1  0.04694268  0.23163274  0.82164883  1  0  -0.327303  -0.538703  0  2.454374  0
O  O47  1  0.45305729  0.17835505  0.76836458  1  0  -0.327315  -0.538697  0  2.454349  0
O  O48  1  0.17542540  0.78931615  0.98865957  1  0  -0.317733  -0.545067  0  2.334607  0
O  O49  1  0.32455557  0.01133730  0.21068756  1  0  -0.317739  -0.545129  0  2.334582  0
O  O50  1  0.82456171  0.21068807  0.01134184  1  0  -0.317628  -0.544982  0  2.334643  0
O  O51  1  0.67543313  0.98865916  0.78931473  1  0  -0.317656  -0.544931  0  2.33465  0
