# generated using pymatgen
data_NiH23C19NO9
_symmetry_space_group_name_H-M   'P 1'
_cell_length_a   7.61965284
_cell_length_b   8.93923436
_cell_length_c   14.82144112
_cell_angle_alpha   105.75764051
_cell_angle_beta   96.18226255
_cell_angle_gamma   92.43389738
_symmetry_Int_Tables_number   1
_chemical_formula_structural   NiH23C19NO9
_chemical_formula_sum   'Ni2 H46 C38 N2 O18'
_cell_volume   963.23853623
_cell_formula_units_Z   2
loop_
 _symmetry_equiv_pos_site_id
 _symmetry_equiv_pos_as_xyz
  1  'x, y, z'
loop_
 _atom_site_type_symbol
 _atom_site_label
 _atom_site_symmetry_multiplicity
 _atom_site_fract_x
 _atom_site_fract_y
 _atom_site_fract_z
 _atom_site_occupancy
 _atom_site_hle17_ddec_charge
 _atom_site_hle17_ddec_spin_density
 _atom_site_hle17_ddec_sum_bond_order
 _atom_site_hle17_magmom
 _atom_site_hse06_10hf_ddec_charge
 _atom_site_hse06_10hf_ddec_spin_density
 _atom_site_hse06_10hf_ddec_sum_bond_order
 _atom_site_hse06_10hf_magmom
 _atom_site_hse06_ddec_charge
 _atom_site_hse06_ddec_spin_density
 _atom_site_hse06_ddec_sum_bond_order
 _atom_site_hse06_magmom
 _atom_site_pbe_cm5_charge
 _atom_site_pbe_ddec_charge
 _atom_site_pbe_ddec_spin_density
 _atom_site_pbe_ddec_sum_bond_order
 _atom_site_pbe_magmom
Ni  Ni0  1  0.50000001  0.49999987  0.99999989  1  1.004896  1.788028  1.790871  1.527  1.026114  1.846239  2.159789  1.661  1.110705  1.906002  2.097817  1.746  0.617287  0.948517  1.778695  2.221891  1.576
Ni  Ni1  1  0.99999977  0.49999994  0.99999942  1  1.007413  -1.786006  1.802828  -1.525  1.036567  -1.843209  2.170944  -1.656  1.118544  -1.901734  2.106876  -1.738  0.609076  0.964131  -1.776524  2.231392  -1.572
H  H2  1  0.20929934  0.69517936  0.96587501  1  0.411973  0.000402  0.887109  0.001  0.382733  -6.4e-05  0.958538  0.0  0.393802  1e-05  0.942519  0.0  0.295454  0.374754  -0.000142  0.969965  0.0
H  H3  1  0.79070253  0.30481829  0.03412521  1  0.411977  0.000404  0.887124  0.001  0.38274  -6.4e-05  0.958536  0.0  0.393809  1e-05  0.942517  0.0  0.29545  0.374762  -0.000142  0.969964  0.0
H  H4  1  0.18460252  0.55566594  0.87864371  1  0.419936  0.000373  0.858474  0.001  0.395732  -9.2e-05  0.928981  0.0  0.405835  -7e-06  0.915432  0.0  0.300302  0.388481  -0.000168  0.936104  0.0
H  H5  1  0.81539822  0.44433404  0.12135684  1  0.419932  0.000374  0.858452  0.001  0.395746  -9.2e-05  0.928931  0.0  0.405846  -7e-06  0.915409  0.0  0.300294  0.388495  -0.000168  0.936058  0.0
H  H6  1  0.21419751  0.29976528  0.97837477  1  0.408557  0.000298  0.898605  0.0  0.378393  0.000288  0.974798  0.0  0.391805  0.000276  0.956081  0.0  0.287534  0.368641  0.000276  0.986042  0.001
H  H7  1  0.78580182  0.70023351  0.02162618  1  0.408569  0.000298  0.898579  0.0  0.378404  0.000288  0.974781  0.0  0.39182  0.000276  0.95606  0.0  0.28753  0.368655  0.000276  0.986028  0.001
H  H8  1  0.28020054  0.41286067  0.09038478  1  0.419584  -9.3e-05  0.886085  0.0  0.389078  -6.4e-05  0.957123  0.0  0.402662  -7.6e-05  0.937989  0.0  0.292089  0.379317  -4.2e-05  0.9707  0.0
H  H9  1  0.71980020  0.58713930  0.90961645  1  0.419592  -9.3e-05  0.88606  0.0  0.389087  -6.4e-05  0.95711  0.0  0.402672  -7.6e-05  0.937975  0.0  0.292102  0.379329  -4.1e-05  0.970684  0.0
H  H10  1  0.22070294  0.73391118  0.27748680  1  0.105217  -0.000164  0.969619  0.0  0.111409  -0.0001  1.038889  0.0  0.114616  -5.9e-05  1.037557  0.0  0.101225  0.109558  -0.000145  1.039035  0.0
H  H11  1  0.77930062  0.26609118  0.72251229  1  0.105258  -0.000161  0.969586  0.0  0.111439  -0.0001  1.038865  0.0  0.114642  -5.9e-05  1.037545  0.0  0.101224  0.109607  -0.000145  1.038992  0.0
H  H12  1  0.34109967  0.90943636  0.43698092  1  0.09108  -5e-06  0.976273  0.0  0.100675  -4e-06  1.038996  0.0  0.10298  -2e-06  1.038863  0.0  0.097979  0.098927  -7e-06  1.039154  0.0
H  H13  1  0.65890266  0.09056716  0.56301830  1  0.091102  -1.3e-05  0.976243  0.0  0.100701  -4e-06  1.038957  0.0  0.103007  -2e-06  1.038822  0.0  0.097992  0.098956  -7e-06  1.039108  0.0
H  H14  1  0.95678204  0.11244475  0.21157156  1  0.115363  -4.2e-05  0.96714  0.0  0.122925  -7.6e-05  1.035046  0.0  0.127293  -5e-05  1.0316  0.0  0.106477  0.119513  -0.000121  1.038223  0.0
H  H15  1  0.04321464  0.88755405  0.78842857  1  0.115373  -4.2e-05  0.967109  0.0  0.12294  -7.6e-05  1.035017  0.0  0.127308  -5e-05  1.03157  0.0  0.106484  0.119532  -0.000121  1.038187  0.0
H  H16  1  0.06617708  0.13859022  0.57587267  1  0.090421  1.4e-05  0.97745  0.0  0.099028  9e-06  1.043994  0.0  0.101066  5e-06  1.044522  0.0  0.095275  0.097526  1.4e-05  1.043759  0.0
H  H17  1  0.93382120  0.86141210  0.42412680  1  0.090419  1.8e-05  0.977448  0.0  0.09903  9e-06  1.043991  0.0  0.101068  5e-06  1.044518  0.0  0.095267  0.097529  1.4e-05  1.043756  0.0
H  H18  1  0.18341720  0.29752952  0.73850625  1  0.096443  0.000165  0.98062  0.0  0.104417  0.000127  1.047133  0.0  0.107285  8.1e-05  1.045685  0.0  0.099353  0.102227  0.000181  1.048358  0.0
H  H19  1  0.81658240  0.70247280  0.26149396  1  0.096439  0.000163  0.980598  0.0  0.104411  0.000127  1.047121  0.0  0.10728  8.1e-05  1.045674  0.0  0.099361  0.102225  0.000181  1.048341  0.0
H  H20  1  0.63778745  0.45905353  0.63369253  1  0.120139  1e-06  0.966342  0.0  0.127302  3e-06  1.034923  0.0  0.13141  1e-06  1.03191  0.0  0.109687  0.124187  6e-06  1.037461  0.0
H  H21  1  0.36220969  0.54095111  0.36630795  1  0.120116  0.0  0.966381  0.0  0.127273  3e-06  1.034977  0.0  0.131385  2e-06  1.03196  0.0  0.109688  0.124162  6e-06  1.037516  0.0
H  H22  1  0.75908217  0.31595972  0.39624713  1  0.091529  4e-06  0.962292  0.0  0.111215  1.4e-05  1.022359  0.0  0.111366  9e-06  1.022985  0.0  0.102616  0.110963  2e-05  1.022117  0.0
H  H23  1  0.24091715  0.68403912  0.60375113  1  0.091501  1e-05  0.962353  0.0  0.111232  1.4e-05  1.022367  0.0  0.111384  9e-06  1.02299  0.0  0.102613  0.110978  2e-05  1.022122  0.0
H  H24  1  0.79611268  0.28388581  0.51053162  1  0.076597  1e-06  0.948359  0.0  0.094457  1e-06  1.016666  0.0  0.094429  0.0  1.016641  0.0  0.094875  0.094235  3e-06  1.016968  0.0
H  H25  1  0.20388682  0.71611538  0.48946638  1  0.076585  3e-06  0.94836  0.0  0.094444  1e-06  1.016679  0.0  0.094415  1e-06  1.016654  0.0  0.094861  0.094223  3e-06  1.016981  0.0
H  H26  1  0.73314699  0.46978156  0.49873639  1  0.089489  -1e-05  0.980477  0.0  0.099396  -2e-06  1.054851  0.0  0.100433  -2e-06  1.054547  0.0  0.09638  0.098592  -5e-06  1.055154  0.0
H  H27  1  0.26685789  0.53022082  0.50126211  1  0.089476  0.0  0.980471  0.0  0.099378  -2e-06  1.054856  0.0  0.100414  -2e-06  1.054557  0.0  0.096359  0.098572  -5e-06  1.055167  0.0
H  H28  1  0.01248356  0.51860562  0.34530700  1  0.092014  -0.0  0.948106  0.0  0.112311  4e-06  1.009668  0.0  0.11214  3e-06  1.010969  0.0  0.102565  0.112446  1e-06  1.008486  0.0
H  H29  1  0.98751435  0.48139206  0.65469031  1  0.091986  1e-06  0.948066  0.0  0.112314  4e-06  1.0096  0.0  0.112143  3e-06  1.010899  0.0  0.102574  0.112447  1e-06  1.008418  0.0
H  H30  1  0.87939398  0.34695159  0.27959293  1  0.068173  -0.000106  0.959803  0.0  0.083385  -0.000146  1.032278  0.0  0.08409  -9.9e-05  1.031353  0.0  0.090507  0.081933  -0.00019  1.033963  0.0
H  H31  1  0.12060648  0.65304490  0.72040634  1  0.068171  -0.000103  0.959825  0.0  0.083397  -0.000146  1.032296  0.0  0.08409  -0.0001  1.031384  0.0  0.090514  0.081945  -0.00019  1.033982  0.0
H  H32  1  0.09832063  0.38062916  0.25088334  1  0.109065  6e-06  0.95065  0.0  0.124141  1.5e-05  1.015236  0.0  0.125679  1.7e-05  1.013636  0.0  0.102284  0.122744  1.1e-05  1.016417  0.0
H  H33  1  0.90167728  0.61936849  0.74911532  1  0.109053  7e-06  0.950684  0.0  0.124131  1.5e-05  1.01527  0.0  0.125667  1.7e-05  1.01367  0.0  0.102276  0.122731  1.1e-05  1.01645  0.0
H  H34  1  0.57096680  0.80249745  0.16363574  1  0.053373  0.000711  0.951389  0.002  0.058808  0.000376  1.026003  0.001  0.059325  0.000179  1.022804  0.0  0.128935  0.058431  0.000599  1.028135  0.001
H  H35  1  0.42903639  0.19750021  0.83636456  1  0.053391  0.000717  0.951378  0.002  0.058819  0.000376  1.026005  0.001  0.059336  0.000179  1.022806  0.0  0.128954  0.058442  0.000599  1.028138  0.001
H  H36  1  0.27124126  0.95045088  0.00444808  1  0.114141  0.000122  0.938516  0.0  0.13531  6.4e-05  0.996593  0.0  0.137261  4.2e-05  0.994737  0.0  0.112417  0.13354  7.4e-05  0.998362  0.0
H  H37  1  0.72875392  0.04954552  0.99555494  1  0.114206  0.000111  0.93843  0.0  0.135319  6.4e-05  0.996563  0.0  0.137247  4.2e-05  0.994735  0.0  0.11242  0.133553  7.4e-05  0.998331  0.0
H  H38  1  0.39001298  0.13690939  0.05179585  1  0.109381  -0.000165  0.950904  0.0  0.128619  -0.000169  1.014713  0.0  0.129419  -0.00014  1.014677  0.0  0.108217  0.127841  -0.000201  1.014977  0.0
H  H39  1  0.60998220  0.86308703  0.94820582  1  0.10937  -0.000165  0.950862  0.0  0.128591  -0.00017  1.014698  0.0  0.129387  -0.00014  1.014665  0.0  0.108206  0.127812  -0.000201  1.014963  0.0
H  H40  1  0.20559964  0.08732959  0.10507690  1  0.108963  -2.7e-05  0.929369  0.0  0.131899  -3e-06  0.988347  0.0  0.131978  -4e-06  0.988785  0.0  0.109118  0.131753  -1.5e-05  0.987956  0.0
H  H41  1  0.79439818  0.91266682  0.89492627  1  0.108955  -3e-05  0.929332  0.0  0.131884  -3e-06  0.988321  0.0  0.13196  -4e-06  0.98876  0.0  0.109105  0.131734  -1.5e-05  0.987933  0.0
H  H42  1  0.60609214  0.03046800  0.25964740  1  0.10687  6e-06  0.932461  0.0  0.127748  4e-05  0.994431  0.0  0.128139  2.4e-05  0.995018  0.0  0.111276  0.127529  5e-05  0.993816  0.0
H  H43  1  0.39390842  0.96952965  0.74035275  1  0.106895  3e-06  0.932454  0.0  0.127771  4e-05  0.994429  0.0  0.12816  2.4e-05  0.995018  0.0  0.111302  0.127549  5e-05  0.993815  0.0
H  H44  1  0.41959473  0.14565403  0.26151149  1  0.111308  -3.5e-05  0.950493  0.0  0.12541  -3e-06  1.021096  0.0  0.126024  -6e-06  1.022099  0.0  0.10557  0.124829  9e-06  1.020647  0.0
H  H45  1  0.58040724  0.85434475  0.73849095  1  0.111306  -3.3e-05  0.950451  0.0  0.125408  -3e-06  1.021071  0.0  0.126019  -7e-06  1.022073  0.0  0.105557  0.124826  9e-06  1.020623  0.0
H  H46  1  0.60055837  0.18191837  0.20140013  1  0.097681  -8.2e-05  0.927424  0.0  0.118558  -0.000102  0.989259  0.0  0.119411  -7.4e-05  0.988396  0.0  0.103346  0.117812  -0.000132  0.990104  0.0
H  H47  1  0.39943954  0.81807928  0.79859920  1  0.097655  -7.7e-05  0.927467  0.0  0.118577  -0.000102  0.989253  0.0  0.119429  -7.4e-05  0.98839  0.0  0.103347  0.11783  -0.000132  0.990096  0.0
C  C48  1  0.99891573  0.80494912  0.14377490  1  0.634545  0.002513  3.890339  0.005  0.592814  0.000202  4.186087  0.002  0.629473  0.00012  4.17692  0.001  0.207169  0.566911  0.000425  4.191409  0.002
C  C49  1  0.00108500  0.19505089  0.85622364  1  0.634481  0.002502  3.890455  0.005  0.592769  0.000203  4.186174  0.002  0.629429  0.00012  4.177003  0.001  0.207137  0.566872  0.000425  4.191487  0.002
C  C50  1  0.07883595  0.91306000  0.23691477  1  -0.045465  -0.005337  3.792065  -0.007  -0.024839  -0.002791  4.027438  -0.004  -0.030708  -0.002081  4.04922  -0.003  -0.022756  -0.02112  -0.003418  4.013349  -0.004
C  C51  1  0.92116751  0.08694120  0.76308411  1  -0.045447  -0.005349  3.791924  -0.007  -0.024835  -0.002791  4.027319  -0.004  -0.030698  -0.002082  4.049088  -0.003  -0.022764  -0.021112  -0.003418  4.013229  -0.004
C  C52  1  0.18962595  0.85528089  0.29908761  1  -0.100906  0.001008  3.758071  0.001  -0.128269  0.000286  4.014789  0.0  -0.129251  0.000274  4.034683  0.0  -0.100931  -0.127315  0.000332  4.000607  0.0
C  C53  1  0.81037761  0.14472146  0.70091215  1  -0.100928  0.001011  3.758029  0.001  -0.128283  0.000286  4.014769  0.0  -0.129267  0.000275  4.034659  0.0  -0.100918  -0.127345  0.000332  4.000583  0.0
C  C54  1  0.25548825  0.95327510  0.38772792  1  -0.102636  -0.00047  3.769896  -0.001  -0.121608  -0.000107  4.023818  0.0  -0.122516  -0.000133  4.042436  0.0  -0.092612  -0.120773  -9.9e-05  4.01096  0.0
C  C55  1  0.74451398  0.04672723  0.61227244  1  -0.102699  -0.000457  3.769827  -0.001  -0.12167  -0.000108  4.023755  0.0  -0.122578  -0.000134  4.042365  0.0  -0.092633  -0.120839  -9.9e-05  4.010906  0.0
C  C56  1  0.21638513  0.10915929  0.41540307  1  -0.022105  0.001058  3.763781  0.001  -0.017676  0.000421  4.008516  0.0  -0.01808  0.000346  4.02764  0.0  -0.013951  -0.017537  0.000569  3.995417  0.001
C  C57  1  0.78361560  0.89084070  0.58459681  1  -0.022042  0.001074  3.763638  0.001  -0.017619  0.000421  4.00837  0.0  -0.017998  0.000346  4.027511  0.0  -0.01393  -0.017486  0.000569  3.995271  0.001
C  C58  1  0.11305752  0.16879083  0.35003099  1  0.2263  -0.000765  3.788841  -0.001  0.211635  -0.000301  4.051461  0.0  0.221526  -0.000251  4.066752  0.0  0.085316  0.2053  -0.000347  4.041102  -0.001
C  C59  1  0.88694462  0.83121035  0.64996850  1  0.22627  -0.00079  3.78879  -0.001  0.211609  -0.000301  4.051424  0.0  0.221495  -0.000251  4.066711  0.0  0.085296  0.205273  -0.000347  4.041076  -0.001
C  C60  1  0.04113476  0.07008515  0.26201110  1  -0.215915  0.000303  3.74789  0.0  -0.246679  -0.000139  4.002906  0.0  -0.249979  -6.4e-05  4.02151  0.0  -0.106334  -0.244781  -0.000147  3.99131  0.0
C  C61  1  0.95886730  0.92991486  0.73798818  1  -0.215957  0.000323  3.747756  0.0  -0.24672  -0.000139  4.002764  0.0  -0.250023  -6.3e-05  4.02137  0.0  -0.106348  -0.244826  -0.000147  3.991172  0.0
C  C62  1  0.28366351  0.20865730  0.51173567  1  -0.015543  -0.000568  3.75446  -0.001  -0.009595  -0.000131  3.99636  0.0  -0.009681  -0.000114  4.015549  0.0  -0.010044  -0.009227  -0.000203  3.983155  0.0
C  C63  1  0.71633600  0.79134386  0.48826366  1  -0.015527  -0.000535  3.754482  -0.001  -0.009568  -0.000131  3.996346  0.0  -0.009741  -0.000114  4.015652  0.0  -0.010029  -0.009173  -0.000202  3.983111  0.0
C  C64  1  0.19084215  0.20979469  0.58814244  1  -0.099687  0.000288  3.762838  0.0  -0.119098  4.5e-05  4.013793  0.0  -0.12057  5.4e-05  4.033332  0.0  -0.092645  -0.118129  6.2e-05  4.000622  0.0
C  C65  1  0.80915622  0.79020879  0.41185723  1  -0.099708  0.000247  3.762993  0.0  -0.119139  4.5e-05  4.013959  0.0  -0.120583  5.4e-05  4.033522  0.0  -0.092636  -0.118176  6.2e-05  4.000782  0.0
C  C66  1  0.25620173  0.29831641  0.67941794  1  -0.103389  -0.000484  3.786634  -0.001  -0.129422  2.2e-05  4.04192  0.0  -0.129785  -2.2e-05  4.062219  0.0  -0.102699  -0.129464  2.6e-05  4.028733  0.0
C  C67  1  0.74379796  0.70168706  0.32058315  1  -0.103377  -0.00045  3.786609  -0.001  -0.129409  2.2e-05  4.041894  0.0  -0.129772  -2.2e-05  4.062186  0.0  -0.102722  -0.129457  2.6e-05  4.028713  0.0
C  C68  1  0.41666727  0.38881583  0.69525865  1  -0.057297  0.004584  3.793919  0.006  -0.036904  0.002425  4.030983  0.003  -0.043862  0.001714  4.053781  0.002  -0.025383  -0.032531  0.003087  4.016421  0.004
C  C69  1  0.58333110  0.61118765  0.30474169  1  -0.05727  0.004551  3.793777  0.006  -0.036859  0.002426  4.030837  0.003  -0.043815  0.001717  4.053634  0.002  -0.025344  -0.032477  0.003087  4.016267  0.004
C  C70  1  0.51287256  0.38837618  0.61963090  1  -0.190388  -0.000176  3.718591  0.0  -0.221437  0.000213  3.971513  0.0  -0.224035  0.000139  3.989996  0.0  -0.098835  -0.219759  0.000242  3.95941  0.0
C  C71  1  0.48712572  0.61162614  0.38036857  1  -0.190418  -0.000139  3.718521  0.0  -0.221491  0.000213  3.971432  0.0  -0.224092  0.000138  3.989911  0.0  -0.098891  -0.219814  0.000242  3.959339  0.0
C  C72  1  0.44771751  0.29749562  0.52858551  1  0.222818  0.000607  3.788572  0.001  0.210025  0.000213  4.05056  0.0  0.219905  0.000157  4.064902  0.0  0.08627  0.203282  0.0003  4.040412  0.0
C  C73  1  0.55228086  0.70250786  0.47141416  1  0.222862  0.000577  3.788539  0.001  0.210128  0.000213  4.050448  0.0  0.220037  0.000157  4.064803  0.0  0.086313  0.203364  0.000299  4.040312  0.0
C  C74  1  0.49244592  0.47935728  0.79354388  1  0.640905  -0.001181  3.870994  -0.003  0.594976  0.000667  4.168724  0.0  0.631521  0.000541  4.15914  0.0  0.214602  0.569469  0.000711  4.174116  -0.001
C  C75  1  0.50755349  0.52064269  0.20645660  1  0.640865  -0.001168  3.871135  -0.003  0.594924  0.000667  4.168882  0.0  0.631469  0.000539  4.159297  0.0  0.214605  0.56941  0.000711  4.174279  -0.001
C  C76  1  0.71623175  0.34336579  0.46641844  1  -0.077899  1.9e-05  3.625096  0.0  -0.173082  -1e-06  3.885602  0.0  -0.165908  -1e-06  3.889239  0.0  -0.145723  -0.177654  4e-06  3.882889  0.0
C  C77  1  0.28376776  0.65663540  0.53357955  1  -0.077855  -8e-06  3.625056  0.0  -0.173052  -1e-06  3.885555  0.0  -0.165876  -1e-06  3.889196  0.0  -0.145689  -0.177624  4e-06  3.882841  0.0
C  C78  1  0.01562678  0.39503012  0.30846403  1  -0.082679  -6.1e-05  3.616821  0.0  -0.180577  -0.000111  3.880323  0.0  -0.173969  -7.1e-05  3.883721  0.0  -0.144886  -0.184241  -0.000154  3.878096  0.0
C  C79  1  0.98437140  0.60497105  0.69153457  1  -0.082656  -7.2e-05  3.616895  0.0  -0.180592  -0.000111  3.880404  0.0  -0.173979  -7e-05  3.883808  0.0  -0.144907  -0.184253  -0.000154  3.878173  0.0
C  C80  1  0.47785176  0.83225227  0.11058821  1  0.414803  -0.001823  3.746241  -0.004  0.337976  8.9e-05  4.041732  -0.001  0.368652  5.9e-05  4.041882  -0.001  0.184254  0.316644  0.000188  4.040182  -0.001
C  C81  1  0.52214898  0.16774771  0.88941235  1  0.414823  -0.001834  3.746154  -0.004  0.337982  8.9e-05  4.041688  -0.001  0.368665  5.9e-05  4.041832  -0.001  0.184257  0.316655  0.000188  4.04013  -0.001
C  C82  1  0.31897408  0.04134780  0.06937929  1  -0.161472  0.000131  3.607936  0.0  -0.262519  0.000159  3.851333  0.0  -0.258306  0.000101  3.860201  0.0  -0.133427  -0.264902  0.00025  3.845541  0.0
C  C83  1  0.68102251  0.95864980  0.93062266  1  -0.161472  0.000154  3.607806  0.0  -0.262453  0.000159  3.851261  0.0  -0.258218  0.000101  3.860141  0.0  -0.133382  -0.264838  0.00025  3.845468  0.0
C  C84  1  0.52067511  0.09063541  0.21888168  1  -0.166125  0.000691  3.639319  0.001  -0.270009  0.000474  3.894602  0.001  -0.266569  0.000344  3.905484  0.0  -0.129041  -0.272238  0.000555  3.88732  0.001
C  C85  1  0.47932421  0.90936337  0.78111995  1  -0.166151  0.000687  3.639277  0.001  -0.270078  0.000474  3.89457  0.001  -0.266626  0.000344  3.90544  0.0  -0.129072  -0.272307  0.000555  3.887287  0.001
N  N86  1  0.43800258  0.97972876  0.13181427  1  -0.079884  0.00088  3.507626  0.001  0.024345  0.000721  3.740213  0.001  0.003832  0.000382  3.766066  0.001  -0.272995  0.037795  0.000975  3.722872  0.001
N  N87  1  0.56199665  0.02026885  0.86818715  1  -0.079899  0.000871  3.507634  0.001  0.024342  0.000721  3.740233  0.001  0.003823  0.000383  3.766069  0.001  -0.273034  0.037789  0.000976  3.722886  0.001
O  O88  1  0.06773084  0.67403680  0.11933943  1  -0.607371  -0.050285  2.072423  -0.081  -0.579672  -0.030344  2.340573  -0.05  -0.616055  -0.023465  2.331266  -0.04  -0.320284  -0.550729  -0.036307  2.345807  -0.059
O  O89  1  0.93226990  0.32596319  0.88066045  1  -0.607342  -0.050286  2.072499  -0.081  -0.579644  -0.030343  2.340632  -0.05  -0.616029  -0.023464  2.331326  -0.04  -0.320263  -0.550708  -0.036308  2.345869  -0.059
O  O90  1  0.86943604  0.84723185  0.09713301  1  -0.611015  0.002411  1.953861  0.003  -0.558804  0.001374  2.175362  0.002  -0.583245  0.001111  2.165091  0.002  -0.319524  -0.541569  0.001711  2.181584  0.002
O  O91  1  0.13056469  0.15276813  0.90286755  1  -0.611  0.002418  1.953895  0.003  -0.558787  0.001374  2.175384  0.002  -0.583224  0.001111  2.165117  0.002  -0.319506  -0.541554  0.001711  2.181596  0.002
O  O92  1  0.64153845  0.55429171  0.80604812  1  -0.579851  -0.000542  1.977948  -0.001  -0.525569  -0.000195  2.196229  0.0  -0.549061  -0.000144  2.185785  0.0  -0.30039  -0.509639  -0.000303  2.203052  0.0
O  O93  1  0.35846115  0.44571060  0.19395210  1  -0.579832  -0.000543  1.977965  -0.001  -0.52554  -0.000195  2.19625  0.0  -0.549027  -0.000146  2.185806  0.0  -0.300388  -0.509606  -0.000302  2.203076  0.0
O  O94  1  0.40006307  0.47036293  0.86057192  1  -0.655873  0.046139  2.112191  0.074  -0.618981  0.028619  2.380862  0.047  -0.655317  0.021751  2.369574  0.036  -0.321267  -0.590046  0.034529  2.387039  0.055
O  O95  1  0.59993748  0.52963471  0.13942891  1  -0.655848  0.046124  2.112278  0.074  -0.618974  0.028618  2.38096  0.047  -0.65531  0.021753  2.369674  0.036  -0.321284  -0.590037  0.034527  2.387142  0.055
O  O96  1  0.08916091  0.32445979  0.37883485  1  -0.258086  -0.000207  2.36586  0.0  -0.177935  -9.5e-05  2.604483  0.0  -0.195926  -7e-05  2.608677  0.0  -0.186793  -0.165941  -0.000189  2.60143  0.0
O  O97  1  0.91083859  0.67554136  0.62116516  1  -0.258031  -0.000203  2.365916  0.0  -0.177898  -9.5e-05  2.604579  0.0  -0.195876  -7e-05  2.60876  0.0  -0.186763  -0.16591  -0.000189  2.60153  0.0
O  O98  1  0.53431301  0.28470934  0.45118609  1  -0.254111  0.000216  2.360895  0.0  -0.178232  0.000103  2.600821  0.0  -0.196627  6.5e-05  2.605432  0.0  -0.188086  -0.165168  0.00015  2.596708  0.0
O  O99  1  0.46568686  0.71529648  0.54881406  1  -0.254126  0.000215  2.360862  0.0  -0.178285  0.000103  2.600794  0.0  -0.196682  6.5e-05  2.605397  0.0  -0.188094  -0.165209  0.00015  2.596678  0.0
O  O100  1  0.11384184  0.63166603  0.91831037  1  -0.776617  -0.042951  1.880314  -0.066  -0.751634  -0.030772  2.080992  -0.048  -0.77869  -0.024059  2.049755  -0.038  -0.56951  -0.729349  -0.036718  2.101128  -0.055
O  O101  1  0.88616013  0.36833278  0.08169073  1  -0.776641  -0.042955  1.880298  -0.066  -0.751678  -0.030772  2.080949  -0.048  -0.778735  -0.024059  2.049743  -0.038  -0.5695  -0.729391  -0.036718  2.101089  -0.055
O  O102  1  0.25152398  0.41214457  0.02054008  1  -0.835792  0.001203  2.106157  0.002  -0.820812  3.5e-05  2.370905  0.0  -0.862699  -0.000103  2.3352  0.0  -0.55181  -0.784126  -8.9e-05  2.39331  0.0
O  O103  1  0.74847534  0.58785422  0.97946087  1  -0.835855  0.001205  2.106243  0.002  -0.820848  3.5e-05  2.370936  0.0  -0.86271  -0.000102  2.335166  0.0  -0.551823  -0.784165  -8.9e-05  2.393343  0.0
O  O104  1  0.41845701  0.72979233  0.03459093  1  -0.552705  0.040418  2.191133  0.065  -0.512707  0.027287  2.466428  0.045  -0.547158  0.021157  2.459158  0.035  -0.294349  -0.485267  0.032695  2.470194  0.052
O  O105  1  0.58154486  0.27020534  0.96540862  1  -0.552712  0.040422  2.191082  0.065  -0.512707  0.027286  2.466382  0.045  -0.547156  0.021156  2.459108  0.035  -0.294346  -0.485274  0.032695  2.470146  0.052
