# generated using pymatgen
data_NiH12(CN)10
_symmetry_space_group_name_H-M   'P 1'
_cell_length_a   8.78688327
_cell_length_b   9.36599554
_cell_length_c   10.19396597
_cell_angle_alpha   104.69965732
_cell_angle_beta   102.77130686
_cell_angle_gamma   113.13627781
_symmetry_Int_Tables_number   1
_chemical_formula_structural   NiH12(CN)10
_chemical_formula_sum   'Ni2 H24 C20 N20'
_cell_volume   696.00617271
_cell_formula_units_Z   2
loop_
 _symmetry_equiv_pos_site_id
 _symmetry_equiv_pos_as_xyz
  1  'x, y, z'
loop_
 _atom_site_type_symbol
 _atom_site_label
 _atom_site_symmetry_multiplicity
 _atom_site_fract_x
 _atom_site_fract_y
 _atom_site_fract_z
 _atom_site_occupancy
 _atom_site_pbe_cm5_charge
 _atom_site_pbe_ddec_charge
 _atom_site_pbe_ddec_spin_density
 _atom_site_pbe_ddec_sum_bond_order
 _atom_site_pbe_magmom
Ni  Ni0  1  0.49999901  0.00000028  0.99999939  1  0.718438  0.805077  1.759364  2.677408  1.536
Ni  Ni1  1  0.49999959  0.49999954  0.49999981  1  0.718977  0.809659  1.753917  2.672758  1.532
H  H2  1  0.42332738  0.26392065  0.18444396  1  0.12182  0.094115  0.000197  1.00159  0.0
H  H3  1  0.57667063  0.73607844  0.81555545  1  0.121822  0.094119  0.000197  1.001594  0.0
H  H4  1  0.58110837  0.24601446  0.31368814  1  0.122472  0.094995  0.000207  1.002571  0.0
H  H5  1  0.41889144  0.75398589  0.68630994  1  0.122468  0.094988  0.000207  1.002583  0.0
H  H6  1  0.51778226  0.17391402  0.51091301  1  0.117181  0.084183  0.00017  1.028364  0.0
H  H7  1  0.48222169  0.82608757  0.48908713  1  0.117199  0.084205  0.00017  1.028362  0.0
H  H8  1  0.30942202  0.13849244  0.53009237  1  0.114805  0.073671  0.000199  1.002626  0.0
H  H9  1  0.69058192  0.86150916  0.46990974  1  0.114812  0.073673  0.000199  1.002675  0.0
H  H10  1  0.04270116  0.89688792  0.36458317  1  0.113328  0.076095  0.000284  0.968082  0.0
H  H11  1  0.95730098  0.10311243  0.63541830  1  0.113344  0.076129  0.000284  0.968058  0.0
H  H12  1  0.04511657  0.74708653  0.21834436  1  0.113455  0.076089  0.000206  1.002444  0.0
H  H13  1  0.95488557  0.25291381  0.78165712  1  0.113438  0.076077  0.000206  1.002446  0.0
H  H14  1  0.15229990  0.01816141  0.01544713  1  0.117707  0.086166  0.000116  1.016997  0.0
H  H15  1  0.84770107  0.98183894  0.98455412  1  0.117699  0.086179  0.000116  1.016963  0.0
H  H16  1  0.10998890  0.81731601  0.02153494  1  0.117369  0.082154  0.000237  0.987912  0.0
H  H17  1  0.89001027  0.18268308  0.97846567  1  0.117364  0.082122  0.000237  0.987962  0.0
H  H18  1  0.32678569  0.79157084  0.19079238  1  0.121809  0.090709  0.000197  0.957783  0.0
H  H19  1  0.67321529  0.20842950  0.80920690  1  0.12181  0.090713  0.000197  0.957773  0.0
H  H20  1  0.52661997  0.97633235  0.31654392  1  0.121511  0.089629  -8e-06  0.979622  0.0
H  H21  1  0.47338217  0.02366799  0.68345559  1  0.121508  0.08963  -8e-06  0.979673  0.0
H  H22  1  0.09719348  0.16918929  0.36018189  1  0.120953  0.087729  0.000201  0.96066  0.0
H  H23  1  0.90280749  0.83081105  0.63981935  1  0.120957  0.087734  0.000201  0.960678  0.0
H  H24  1  0.14593447  0.22022434  0.21141152  1  0.12078  0.086745  -5.5e-05  0.975752  0.0
H  H25  1  0.85406713  0.77977726  0.78859014  1  0.120792  0.086751  -5.5e-05  0.975762  0.0
C  C26  1  0.43978779  0.19592188  0.25449069  1  0.011711  -0.011533  -0.002365  3.858826  -0.004
C  C27  1  0.56021203  0.80407846  0.74550837  1  0.011717  -0.011526  -0.002365  3.858813  -0.004
C  C28  1  0.37565355  0.12316421  0.45232652  1  0.015279  0.000848  -0.001083  3.889328  -0.002
C  C29  1  0.62434860  0.87683613  0.54767299  1  0.015247  0.000829  -0.001083  3.889375  -0.002
C  C30  1  0.10724196  0.88135613  0.28503242  1  0.018254  0.009525  -0.000168  3.934093  -0.001
C  C31  1  0.89276081  0.11864546  0.71496947  1  0.018255  0.009507  -0.000168  3.934029  -0.001
C  C32  1  0.16860222  0.95121401  0.08718567  1  0.016233  0.001138  -0.001054  3.876353  -0.002
C  C33  1  0.83139812  0.04878508  0.91281516  1  0.016235  0.001114  -0.001054  3.876396  -0.002
C  C34  1  0.38416039  0.92499715  0.25842425  1  0.02254  0.011703  -0.001101  3.879608  -0.002
C  C35  1  0.61584058  0.07500320  0.74157602  1  0.022531  0.011671  -0.001101  3.879658  -0.002
C  C36  1  0.16162293  0.15106874  0.28113482  1  0.023352  0.012982  -0.000948  3.889421  -0.001
C  C37  1  0.83837804  0.84893160  0.71886643  1  0.023344  0.012928  -0.000948  3.889417  -0.001
C  C38  1  0.15200452  0.65726539  0.78190110  1  0.310197  0.447498  -0.005128  4.238263  0.002
C  C39  1  0.84799413  0.34273495  0.21809676  1  0.310145  0.447395  -0.005127  4.238281  0.002
C  C40  1  0.86133405  0.49819174  0.63327417  1  0.310298  0.446086  -0.002556  4.258874  0.005
C  C41  1  0.13866396  0.50180735  0.36672327  1  0.310278  0.446042  -0.002556  4.258929  0.005
C  C42  1  0.63220858  0.77011482  0.11902536  1  0.310237  0.447841  -0.004279  4.255092  0.003
C  C43  1  0.36778952  0.22988679  0.88097562  1  0.310239  0.447847  -0.004279  4.255004  0.003
C  C44  1  0.62060911  0.60875382  0.25347101  1  0.31133  0.449353  -0.004056  4.243262  0.003
C  C45  1  0.37938720  0.39124653  0.74652835  1  0.311386  0.449476  -0.004056  4.243205  0.003
N  N46  1  0.36271977  0.01642991  0.16178237  1  -0.323784  -0.169045  0.055709  3.418912  0.087
N  N47  1  0.63728004  0.98357043  0.83821767  1  -0.323779  -0.169026  0.055709  3.418886  0.087
N  N48  1  0.35463581  0.22207820  0.36207208  1  -0.323369  -0.170185  0.055445  3.417864  0.087
N  N49  1  0.64536400  0.77792215  0.63792796  1  -0.323359  -0.170155  0.055445  3.417791  0.087
N  N50  1  0.29712955  0.94467196  0.36376614  1  -0.347023  -0.204675  0.009764  3.401538  0.014
N  N51  1  0.70287143  0.05532838  0.63623412  1  -0.347026  -0.204698  0.009764  3.401497  0.014
N  N52  1  0.08077199  0.97264589  0.19134158  1  -0.343038  -0.198772  0.010213  3.404765  0.014
N  N53  1  0.91922898  0.02735445  0.80865967  1  -0.343029  -0.198696  0.010213  3.40468  0.014
N  N54  1  0.28149445  0.78090258  0.86367619  1  -0.379377  -0.524002  0.035394  3.292851  0.052
N  N55  1  0.71850187  0.21909777  0.13632220  1  -0.379326  -0.52391  0.035394  3.292731  0.052
N  N56  1  0.01646811  0.51447229  0.69367641  1  -0.311344  -0.387813  -0.003235  3.50908  0.0
N  N57  1  0.98353044  0.48552554  0.30632182  1  -0.311348  -0.387772  -0.003234  3.509239  0.0
N  N58  1  0.71586899  0.47160152  0.57530532  1  -0.383259  -0.534479  0.034091  3.300452  0.049
N  N59  1  0.28413083  0.52839882  0.42469276  1  -0.383225  -0.53445  0.03409  3.300442  0.049
N  N60  1  0.60444298  0.86780689  0.07887629  1  -0.383837  -0.536079  0.034814  3.309565  0.05
N  N61  1  0.39555396  0.13219472  0.92112349  1  -0.383798  -0.536024  0.034813  3.309504  0.05
N  N62  1  0.67166028  0.66401099  0.15824737  1  -0.312481  -0.389888  -0.003091  3.515346  0.0
N  N63  1  0.32833666  0.33599062  0.84175338  1  -0.312583  -0.390033  -0.003091  3.515256  0.0
N  N64  1  0.58127381  0.55415764  0.34008775  1  -0.383825  -0.530158  0.03504  3.304336  0.051
N  N65  1  0.41872303  0.44584146  0.65991143  1  -0.38381  -0.530201  0.03504  3.304383  0.051
