# generated using pymatgen
data_CoH10C14(SN4)2
_symmetry_space_group_name_H-M   'P 1'
_cell_length_a   7.09560530
_cell_length_b   8.84590602
_cell_length_c   13.26164764
_cell_angle_alpha   109.47569868
_cell_angle_beta   97.27297158
_cell_angle_gamma   89.98626540
_symmetry_Int_Tables_number   1
_chemical_formula_structural   CoH10C14(SN4)2
_chemical_formula_sum   'Co2 H20 C28 S4 N16'
_cell_volume   777.66918084
_cell_formula_units_Z   2
loop_
 _symmetry_equiv_pos_site_id
 _symmetry_equiv_pos_as_xyz
  1  'x, y, z'
loop_
 _atom_site_type_symbol
 _atom_site_label
 _atom_site_symmetry_multiplicity
 _atom_site_fract_x
 _atom_site_fract_y
 _atom_site_fract_z
 _atom_site_occupancy
 _atom_site_hle17_ddec_charge
 _atom_site_hle17_ddec_spin_density
 _atom_site_hle17_ddec_sum_bond_order
 _atom_site_hle17_magmom
 _atom_site_hse06_10hf_ddec_charge
 _atom_site_hse06_10hf_ddec_spin_density
 _atom_site_hse06_10hf_ddec_sum_bond_order
 _atom_site_hse06_10hf_magmom
 _atom_site_hse06_ddec_charge
 _atom_site_hse06_ddec_spin_density
 _atom_site_hse06_ddec_sum_bond_order
 _atom_site_hse06_magmom
 _atom_site_pbe_cm5_charge
 _atom_site_pbe_ddec_charge
 _atom_site_pbe_ddec_spin_density
 _atom_site_pbe_ddec_sum_bond_order
 _atom_site_pbe_magmom
Co  Co0  1  0.74994081  0.09572249  0.00003590  1  0.618457  2.71001  2.429849  2.335  0.591854  2.733532  2.917147  2.413  0.696413  2.818367  2.832978  2.56  0.533404  0.510777  2.652984  2.985066  2.28
Co  Co1  1  0.25006229  0.90427482  0.99996337  1  0.618473  2.710012  2.429863  2.335  0.591886  2.733529  2.917123  2.413  0.696451  2.818365  2.83298  2.56  0.533397  0.510773  2.653167  2.985023  2.279
H  H2  1  0.69005165  0.38361798  0.24100831  1  0.087428  -7.4e-05  0.971532  0.0  0.090003  8e-06  1.047401  0.0  0.09205  -6.8e-05  1.046665  0.0  0.094501  0.088561  0.00011  1.047937  0.0
H  H3  1  0.80963409  0.14286010  0.75893559  1  0.087914  -7.1e-05  0.972076  0.0  0.090384  1.3e-05  1.048074  0.0  0.092343  -6.4e-05  1.047506  0.0  0.094708  0.08892  0.000114  1.048654  0.0
H  H4  1  0.30994754  0.61638530  0.75899581  1  0.087422  -7.3e-05  0.971549  0.0  0.089998  8e-06  1.047441  0.0  0.092044  -6.8e-05  1.046702  0.0  0.094507  0.08856  0.000111  1.047959  0.0
H  H5  1  0.19036618  0.85713719  0.24106424  1  0.087922  -7e-05  0.972087  0.0  0.090399  1.3e-05  1.048079  0.0  0.092351  -6.4e-05  1.047517  0.0  0.09471  0.08893  0.000115  1.048658  0.0
H  H6  1  0.56709032  0.76408126  0.52352217  1  0.087271  4.1e-05  0.967855  0.0  0.093092  5.7e-05  1.036905  0.0  0.0958  3.2e-05  1.03533  0.0  0.098764  0.091113  9e-05  1.037996  0.0
H  H7  1  0.93298009  0.24084577  0.47647146  1  0.087386  3.9e-05  0.967007  0.0  0.093294  5.5e-05  1.035984  0.0  0.09603  3e-05  1.034372  0.0  0.098798  0.091325  8.7e-05  1.03705  0.0
H  H8  1  0.43290891  0.23592322  0.47648148  1  0.087356  4.1e-05  0.967826  0.0  0.093181  5.7e-05  1.036868  0.0  0.095893  3.2e-05  1.035288  0.0  0.098796  0.091204  9e-05  1.037957  0.0
H  H9  1  0.06701869  0.75915033  0.52352725  1  0.087378  4e-05  0.967073  0.0  0.093273  5.5e-05  1.036062  0.0  0.096016  3e-05  1.034447  0.0  0.098788  0.091308  8.7e-05  1.037124  0.0
H  H10  1  0.73776838  0.58269797  0.14986092  1  0.105842  0.00035  0.95742  0.0  0.116182  0.000359  1.019367  0.0  0.120009  0.000122  1.016694  0.0  0.097715  0.113168  0.000637  1.021735  0.0
H  H11  1  0.76197466  0.43309131  0.85008842  1  0.10515  0.00035  0.957152  0.0  0.115513  0.000357  1.019198  0.0  0.119364  0.000121  1.016454  0.0  0.097214  0.112496  0.000635  1.021473  0.0
H  H12  1  0.26223499  0.41730413  0.85014170  1  0.105842  0.000349  0.957406  0.0  0.116212  0.000359  1.019317  0.0  0.120039  0.000122  1.016644  0.0  0.097716  0.113199  0.000638  1.02169  0.0
H  H13  1  0.23802706  0.56690720  0.14990952  1  0.105126  0.000348  0.957106  0.0  0.115552  0.000357  1.019112  0.0  0.119404  0.000121  1.016367  0.0  0.097217  0.112534  0.000636  1.021393  0.0
H  H14  1  0.60791565  0.96409731  0.43004479  1  0.106078  -8.8e-05  0.951526  0.0  0.116252  -1.4e-05  1.013952  0.0  0.118717  -1.9e-05  1.01304  0.0  0.108619  0.114509  -7e-06  1.014717  0.0
H  H15  1  0.89214104  0.53435947  0.56996489  1  0.105795  -8.3e-05  0.952658  0.0  0.116218  -1.2e-05  1.014834  0.0  0.118691  -1.8e-05  1.013915  0.0  0.108926  0.114492  -4e-06  1.015479  0.0
H  H16  1  0.39208214  0.03590718  0.56995650  1  0.106122  -8.9e-05  0.951536  0.0  0.116316  -1.4e-05  1.013928  0.0  0.118784  -1.9e-05  1.013017  0.0  0.108635  0.114566  -7e-06  1.014694  0.0
H  H17  1  0.10785917  0.46563663  0.43003467  1  0.105808  -8.4e-05  0.952637  0.0  0.116229  -1.2e-05  1.014824  0.0  0.118693  -1.8e-05  1.013906  0.0  0.108926  0.114503  -4e-06  1.015468  0.0
H  H18  1  0.60268079  0.47426277  0.42643113  1  0.087579  -5.9e-05  0.959778  0.0  0.097219  2.8e-05  1.024847  0.0  0.099463  1.5e-05  1.024113  0.0  0.100437  0.095599  4.3e-05  1.025492  0.0
H  H19  1  0.89736191  0.04813644  0.57359642  1  0.087392  -6.1e-05  0.959305  0.0  0.097272  2.5e-05  1.024112  0.0  0.099555  1.2e-05  1.023313  0.0  0.100486  0.095649  4e-05  1.024673  0.0
H  H20  1  0.39731843  0.52574172  0.57357100  1  0.087577  -6.2e-05  0.959773  0.0  0.097225  2.8e-05  1.02484  0.0  0.099468  1.4e-05  1.024109  0.0  0.100449  0.095601  4.3e-05  1.025483  0.0
H  H21  1  0.10263687  0.95185965  0.42640229  1  0.087269  -6.4e-05  0.959303  0.0  0.097174  2.5e-05  1.02409  0.0  0.099456  1.2e-05  1.023289  0.0  0.100424  0.09555  4e-05  1.024655  0.0
C  C22  1  0.66885187  0.51025938  0.28188002  1  -0.05294  -0.001243  3.758168  -0.001  -0.066102  -9.9e-05  4.010071  0.0  -0.068699  -0.000354  4.033137  0.0  -0.091177  -0.064129  0.000165  3.994193  0.0
C  C23  1  0.83083929  0.22863091  0.71806070  1  -0.053647  -0.001239  3.760431  -0.001  -0.066844  -9.5e-05  4.012538  0.0  -0.069445  -0.000349  4.0357  0.0  -0.091733  -0.064935  0.000168  3.996741  0.0
C  C24  1  0.33114729  0.48974391  0.71812184  1  -0.052945  -0.00128  3.758238  -0.001  -0.066131  -9.9e-05  4.01017  0.0  -0.068723  -0.000352  4.03323  0.0  -0.091217  -0.064153  0.000166  3.994281  0.0
C  C25  1  0.16915955  0.77136639  0.28193753  1  -0.053709  -0.001289  3.760339  -0.001  -0.066913  -9.6e-05  4.012476  0.0  -0.06951  -0.00035  4.03564  0.0  -0.091773  -0.065005  0.000168  3.996677  0.0
C  C26  1  0.60105375  0.72476879  0.44113936  1  -0.060557  -0.000359  3.773051  0.0  -0.071807  0.000167  4.021966  0.0  -0.074636  -0.00013  4.04559  0.0  -0.089667  -0.069528  0.000477  4.00542  0.0
C  C27  1  0.89882829  0.28391535  0.55883454  1  -0.059604  -0.000329  3.770678  0.0  -0.071051  0.000179  4.019999  0.0  -0.073944  -0.000121  4.043747  0.0  -0.089128  -0.068834  0.000496  4.003526  0.0
C  C28  1  0.39894695  0.27523690  0.55886314  1  -0.060782  -0.000395  3.773272  0.0  -0.072056  0.000166  4.02221  0.0  -0.074888  -0.000128  4.045833  0.0  -0.089765  -0.069781  0.000477  4.005675  0.0
C  C29  1  0.10117191  0.71608075  0.44116427  1  -0.059738  -0.000376  3.770777  0.0  -0.071173  0.000179  4.020111  0.0  -0.074075  -0.000122  4.043852  0.0  -0.08915  -0.068958  0.000496  4.00363  0.0
C  C30  1  0.67087177  0.78285222  0.28506352  1  0.157956  0.000147  3.794579  0.0  0.152932  0.000315  4.036674  0.0  0.15619  -0.000236  4.059271  0.0  0.092343  0.143366  0.000858  4.020521  0.0
C  C31  1  0.82893037  0.49804220  0.71488867  1  0.156232  0.000143  3.794617  0.0  0.151416  0.000312  4.036682  0.0  0.154659  -0.00024  4.05931  0.0  0.092515  0.14939  0.000852  4.021579  0.0
C  C32  1  0.32912739  0.21715107  0.71493834  1  0.157995  0.000117  3.794465  0.0  0.152936  0.000314  4.036616  0.0  0.156193  -0.000239  4.059215  0.0  0.092335  0.143358  0.000858  4.020465  0.0
C  C33  1  0.17106703  0.50195510  0.28510872  1  0.156351  0.000106  3.794609  0.0  0.151554  0.000314  4.036675  0.0  0.154797  -0.000239  4.059299  0.0  0.092628  0.149523  0.000852  4.021577  0.0
C  C34  1  0.69444234  0.62074445  0.23015482  1  -0.131452  0.002376  3.737064  0.003  -0.148738  0.0016  3.978144  0.002  -0.150534  0.001058  3.997598  0.001  -0.087881  -0.148228  0.002148  3.967833  0.002
C  C35  1  0.80521036  0.39083665  0.76978335  1  -0.129169  0.002385  3.737326  0.003  -0.146391  0.001611  3.977694  0.002  -0.14816  0.001068  3.997151  0.001  -0.086894  -0.145433  0.00216  3.964834  0.002
C  C36  1  0.30555671  0.37925643  0.76984800  1  -0.13143  0.0024  3.73696  0.003  -0.148727  0.0016  3.978043  0.002  -0.150522  0.001058  3.997495  0.001  -0.087839  -0.148227  0.002148  3.967743  0.002
C  C37  1  0.19478699  0.60915944  0.23021451  1  -0.12921  0.002414  3.737285  0.003  -0.146529  0.001611  3.977716  0.002  -0.148298  0.001067  3.997171  0.001  -0.086959  -0.145571  0.00216  3.964858  0.002
C  C38  1  0.62410810  0.83646561  0.38994206  1  -0.131214  0.00132  3.731656  0.002  -0.152849  0.000933  3.980818  0.001  -0.155729  0.000749  4.002202  0.001  -0.083652  -0.151276  0.001044  3.96858  0.001
C  C39  1  0.87576207  0.44678939  0.61002116  1  -0.131614  0.001291  3.732423  0.002  -0.153595  0.000913  3.981716  0.001  -0.156468  0.000735  4.003103  0.001  -0.084838  -0.151617  0.001016  3.967183  0.001
C  C40  1  0.37589106  0.16353768  0.61006056  1  -0.131212  0.001343  3.731611  0.002  -0.152838  0.000934  3.980754  0.001  -0.155723  0.000749  4.002143  0.001  -0.083647  -0.151256  0.001044  3.968511  0.001
C  C41  1  0.12423670  0.55320670  0.38997680  1  -0.131589  0.001319  3.732405  0.002  -0.153571  0.000913  3.981683  0.001  -0.156431  0.000735  4.003079  0.001  -0.084835  -0.151596  0.001016  3.96715  0.001
C  C42  1  0.64616157  0.89565946  0.13260868  1  0.29451  -0.015042  3.780876  -0.015  0.263816  0.004177  4.084763  0.001  0.290272  0.003129  4.096826  0.001  0.226579  0.236282  0.004411  4.076022  0.001
C  C43  1  0.85397285  0.76326300  0.86736969  1  0.294143  -0.015099  3.781104  -0.015  0.26318  0.00416  4.085063  0.001  0.289638  0.003121  4.097134  0.001  0.226283  0.243277  0.004383  4.076889  0.001
C  C44  1  0.35384025  0.10434024  0.86739255  1  0.294391  -0.015045  3.781  -0.015  0.263721  0.004177  4.08485  0.001  0.290176  0.003129  4.096913  0.001  0.22654  0.236183  0.004411  4.076107  0.001
C  C45  1  0.14602745  0.23673550  0.13262816  1  0.294214  -0.015111  3.78115  -0.015  0.263187  0.00416  4.085182  0.001  0.289646  0.003121  4.09726  0.001  0.226271  0.243284  0.004382  4.077013  0.001
C  C46  1  0.62249061  0.56200491  0.38699016  1  -0.065776  0.001743  3.751982  0.002  -0.083805  0.000986  4.004274  0.001  -0.085831  0.000735  4.027154  0.001  -0.089074  -0.082292  0.001216  3.988322  0.001
C  C47  1  0.87738700  0.17530007  0.61298574  1  -0.065657  0.001751  3.749844  0.002  -0.083895  0.001  4.002467  0.001  -0.08591  0.000745  4.025249  0.001  -0.088975  -0.082382  0.001234  3.986604  0.001
C  C48  1  0.37751005  0.43799958  0.61301357  1  -0.065696  0.001765  3.752225  0.002  -0.083729  0.000986  4.004516  0.001  -0.085753  0.000734  4.027397  0.001  -0.089035  -0.082212  0.001216  3.988555  0.001
C  C49  1  0.12261320  0.82469603  0.38701307  1  -0.065396  0.001781  3.74974  0.002  -0.083638  0.001001  4.00234  0.001  -0.085648  0.000746  4.025122  0.001  -0.088875  -0.082124  0.001234  3.986474  0.001
S  S50  1  0.49228512  0.75676058  0.03639477  1  -0.325967  0.095826  2.170207  0.122  -0.348903  0.069975  2.560294  0.078  -0.390335  0.044201  2.547357  0.05  -0.163088  -0.314038  0.096237  2.572202  0.104
S  S51  1  0.00789864  0.72037436  0.96351511  1  -0.32591  0.095888  2.170819  0.122  -0.348549  0.069902  2.560476  0.078  -0.39006  0.044161  2.547708  0.05  -0.162873  -0.313399  0.096236  2.569742  0.104
S  S52  1  0.50771811  0.24323912  0.96360504  1  -0.32589  0.095824  2.170233  0.122  -0.348825  0.069972  2.560292  0.078  -0.390253  0.044201  2.547354  0.05  -0.163044  -0.313966  0.09624  2.572226  0.104
S  S53  1  0.99210161  0.27962295  0.03648322  1  -0.325887  0.095889  2.17085  0.122  -0.348515  0.069903  2.560557  0.078  -0.390021  0.044161  2.547779  0.05  -0.16284  -0.313371  0.09624  2.569849  0.104
N  N54  1  0.73011161  0.02897494  0.12616623  1  -0.317288  0.051082  3.294131  0.073  -0.285139  0.03971  3.636397  0.048  -0.321835  0.031863  3.652481  0.038  -0.254531  -0.259836  0.046234  3.630482  0.056
N  N55  1  0.76998817  0.90305543  0.87385200  1  -0.3179  0.05109  3.294663  0.073  -0.285234  0.039749  3.636522  0.048  -0.321917  0.031886  3.652526  0.038  -0.254331  -0.259071  0.046288  3.626995  0.056
N  N56  1  0.26989013  0.97102356  0.87383397  1  -0.317283  0.051081  3.294123  0.073  -0.285142  0.039711  3.636386  0.048  -0.321848  0.031864  3.65249  0.038  -0.25452  -0.259835  0.046234  3.630459  0.056
N  N57  1  0.23001208  0.09694188  0.12614633  1  -0.31798  0.051095  3.294678  0.073  -0.285272  0.039749  3.636527  0.048  -0.321955  0.031887  3.652516  0.038  -0.25433  -0.259096  0.046289  3.626972  0.056
N  N58  1  0.70460015  0.89780956  0.23520880  1  -0.044005  0.010056  3.536918  0.017  0.03667  0.007637  3.753702  0.013  0.022953  0.005894  3.773892  0.01  -0.101798  0.069255  0.008655  3.70973  0.014
N  N59  1  0.79537707  0.66287423  0.76478282  1  -0.043751  0.010033  3.53442  0.017  0.036967  0.007623  3.751272  0.013  0.023236  0.005885  3.771472  0.01  -0.101989  0.045347  0.008637  3.738707  0.014
N  N60  1  0.29540184  0.10219374  0.76479249  1  -0.04404  0.010057  3.536865  0.017  0.036635  0.007638  3.75364  0.013  0.022919  0.005892  3.77383  0.01  -0.101829  0.069245  0.008656  3.709646  0.014
N  N61  1  0.20462182  0.33712427  0.23521494  1  -0.043886  0.010038  3.534486  0.017  0.036829  0.007624  3.751381  0.013  0.023097  0.005886  3.771581  0.01  -0.102092  0.045205  0.008638  3.73883  0.014
N  N62  1  0.81587812  0.03296636  0.29024094  1  -0.070322  0.008911  2.861919  0.013  -0.070778  0.007115  3.151007  0.01  -0.066947  0.004819  3.157729  0.007  -0.054593  -0.080388  0.010072  3.1421  0.014
N  N63  1  0.68400782  0.74306424  0.70980712  1  -0.070136  0.008935  2.860467  0.014  -0.070643  0.007139  3.149745  0.01  -0.066823  0.004833  3.156493  0.007  -0.055075  -0.072833  0.010111  3.14524  0.014
N  N64  1  0.18412238  0.96703574  0.70975923  1  -0.070299  0.008913  2.861832  0.013  -0.070739  0.007115  3.150896  0.01  -0.066906  0.00482  3.157617  0.007  -0.054577  -0.080354  0.010073  3.141985  0.014
N  N65  1  0.31599256  0.25693546  0.29019251  1  -0.070091  0.008939  2.860401  0.014  -0.070588  0.007139  3.149662  0.01  -0.06677  0.004833  3.156412  0.007  -0.05504  -0.072778  0.010112  3.145162  0.014
N  N66  1  0.82898518  0.11049798  0.22425176  1  -0.036565  -0.010007  2.957496  -0.009  -0.034328  0.000284  3.268692  0.001  -0.029411  -0.000995  3.280685  0.0  -0.070414  -0.038278  0.001028  3.263521  0.001
N  N67  1  0.67096299  0.88656630  0.77580367  1  -0.035672  -0.009961  2.957409  -0.009  -0.033631  0.000299  3.268599  0.001  -0.028725  -0.000983  3.280599  0.0  -0.069574  -0.037017  0.001044  3.260489  0.001
N  N68  1  0.17101526  0.88950292  0.77574813  1  -0.036525  -0.010008  2.957447  -0.009  -0.034297  0.000283  3.268644  0.001  -0.029377  -0.000996  3.280632  0.0  -0.070412  -0.038255  0.001029  3.263477  0.001
N  N69  1  0.32903733  0.11343220  0.22419568  1  -0.035645  -0.009976  2.957452  -0.009  -0.033609  0.000298  3.268622  0.001  -0.028701  -0.000986  3.280622  0.0  -0.069563  -0.037  0.001045  3.260511  0.001
