# generated using pymatgen
data_ZnH13C9NO2
_symmetry_space_group_name_H-M   'P 1'
_cell_length_a   7.46700398
_cell_length_b   9.07901160
_cell_length_c   16.05510000
_cell_angle_alpha   90.00000000
_cell_angle_beta   90.00000000
_cell_angle_gamma   109.22203173
_symmetry_Int_Tables_number   1
_chemical_formula_structural   ZnH13C9NO2
_chemical_formula_sum   'Zn4 H52 C36 N4 O8'
_cell_volume   1027.74385841
_cell_formula_units_Z   4
loop_
 _symmetry_equiv_pos_site_id
 _symmetry_equiv_pos_as_xyz
  1  'x, y, z'
loop_
 _atom_site_type_symbol
 _atom_site_label
 _atom_site_symmetry_multiplicity
 _atom_site_fract_x
 _atom_site_fract_y
 _atom_site_fract_z
 _atom_site_occupancy
 _atom_site_hle17_bader_spin_density
 _atom_site_hle17_ddec_charge
 _atom_site_hle17_ddec_spin_density
 _atom_site_hle17_ddec_sum_bond_order
 _atom_site_hle17_magmom
 _atom_site_hse06_10hf_bader_spin_density
 _atom_site_hse06_10hf_ddec_charge
 _atom_site_hse06_10hf_ddec_spin_density
 _atom_site_hse06_10hf_ddec_sum_bond_order
 _atom_site_hse06_10hf_magmom
 _atom_site_hse06_bader_spin_density
 _atom_site_hse06_ddec_charge
 _atom_site_hse06_ddec_spin_density
 _atom_site_hse06_ddec_sum_bond_order
 _atom_site_hse06_magmom
 _atom_site_pbe_bader_charge
 _atom_site_pbe_bader_spin_density
 _atom_site_pbe_cm5_charge
 _atom_site_pbe_ddec_charge
 _atom_site_pbe_ddec_spin_density
 _atom_site_pbe_ddec_sum_bond_order
 _atom_site_pbe_magmom
Zn  Zn0  1  0.51336106  0.69486884  0.80061164  1  0  0.826975  0  1.931011  0  0  0.662699  0  2.3744  0  0  0.702919  0  2.332344  0  1.052228  0  0.54455  0.634608  0  2.403328  0
Zn  Zn1  1  0.48664297  0.80513549  0.30060978  1  0  0.826931  0  1.931033  0  0  0.662687  0  2.374442  0  0  0.702903  0  2.332384  0  1.052219  0  0.544526  0.634594  0  2.403372  0
Zn  Zn2  1  0.48663879  0.30513521  0.19938898  1  0  0.826995  0  1.930979  0  0  0.66273  0  2.374387  0  0  0.702947  0  2.332331  0  1.052237  0  0.544539  0.634637  0  2.403316  0
Zn  Zn3  1  0.51335548  0.19486506  0.69938898  1  0  0.826952  0  1.931028  0  0  0.662731  0  2.374436  0  0  0.702948  0  2.33238  0  1.052242  0  0.544545  0.63464  0  2.403365  0
H  H4  1  0.15468687  0.71445625  0.85309528  1  0  0.132889  0  0.953263  0  0  0.151716  0  1.016143  0  0  0.154431  0  1.014723  0  0.04394  0  0.0959  0.149525  0  1.01762  0
H  H5  1  0.84531303  0.78554108  0.35309590  1  0  0.132873  0  0.953313  0  0  0.151712  0  1.016178  0  0  0.154428  0  1.014754  0  0.043972  0  0.095904  0.14952  0  1.017656  0
H  H6  1  0.84531695  0.28554430  0.14690285  1  0  0.13285  0  0.953307  0  0  0.15168  0  1.016183  0  0  0.154397  0  1.01476  0  0.044058  0  0.095882  0.149487  0  1.017664  0
H  H7  1  0.15467518  0.21446064  0.64690472  1  0  0.132875  0  0.953371  0  0  0.151699  0  1.016242  0  0  0.154416  0  1.014819  0  0.044241  0  0.095904  0.149507  0  1.017721  0
H  H8  1  0.03796434  0.85905334  0.85624630  1  0  0.137648  0  0.949203  0  0  0.157309  0  1.007415  0  0  0.159687  0  1.007152  0  0.06258  0  0.097641  0.155641  0  1.007613  0
H  H9  1  0.96203690  0.64094398  0.35624568  1  0  0.137646  0  0.949193  0  0  0.157281  0  1.007443  0  0  0.159659  0  1.007183  0  0.06251  0  0.097631  0.155613  0  1.007642  0
H  H10  1  0.96203901  0.14094604  0.14375245  1  0  0.137597  0  0.949243  0  0  0.157256  0  1.007459  0  0  0.159634  0  1.007199  0  0.062541  0  0.097629  0.155589  0  1.007657  0
H  H11  1  0.03795807  0.35906123  0.64375619  1  0  0.137569  0  0.949298  0  0  0.1572  0  1.007563  0  0  0.159577  0  1.007305  0  0.062402  0  0.097605  0.155532  0  1.007761  0
H  H12  1  0.23697299  0.87762709  0.92092357  1  0  0.139515  0  0.94981  0  0  0.161337  0  1.007134  0  0  0.163589  0  1.007163  0  0.060228  0  0.101892  0.159713  0  1.007028  0
H  H13  1  0.76302918  0.62237257  0.42092295  1  0  0.139517  0  0.949828  0  0  0.161342  0  1.00714  0  0  0.163591  0  1.007174  0  0.060241  0  0.101911  0.159718  0  1.007035  0
H  H14  1  0.76303397  0.12237463  0.07907518  1  0  0.139523  0  0.949768  0  0  0.161318  0  1.007111  0  0  0.163568  0  1.007143  0  0.060239  0  0.101914  0.159695  0  1.007004  0
H  H15  1  0.23696445  0.37763264  0.57907830  1  0  0.139479  0  0.949901  0  0  0.161313  0  1.007194  0  0  0.163565  0  1.007224  0  0.0603  0  0.101907  0.159687  0  1.00709  0
H  H16  1  0.58153850  0.86580139  0.63373694  1  0  0.090665  0  0.944731  0  0  0.099465  0  1.007698  0  0  0.102091  0  1.005535  0  0.129919  0  0.121503  0.097581  0  1.009197  0
H  H17  1  0.41847177  0.63420177  0.13374068  1  0  0.090756  0  0.944693  0  0  0.099535  0  1.00764  0  0  0.10216  0  1.005478  0  0.129832  0  0.121523  0.097651  0  1.009138  0
H  H18  1  0.41846164  0.13419333  0.36625994  1  0  0.090718  0  0.944758  0  0  0.099511  0  1.007691  0  0  0.102136  0  1.005532  0  0.129851  0  0.121514  0.097626  0  1.00919  0
H  H19  1  0.58152529  0.36579528  0.86625994  1  0  0.090733  0  0.944687  0  0  0.099516  0  1.007639  0  0  0.102142  0  1.005475  0  0.129817  0  0.121526  0.097631  0  1.009138  0
H  H20  1  0.81542849  0.91791355  0.51647016  1  0  0.098234  0  0.966189  0  0  0.110069  0  1.024771  0  0  0.112551  0  1.025191  0  0.076505  0  0.107453  0.108325  0  1.024472  0
H  H21  1  0.18458975  0.58208611  0.01647202  1  0  0.098228  0  0.966114  0  0  0.110069  0  1.024716  0  0  0.112562  0  1.025104  0  0.076607  0  0.107427  0.108349  0  1.024393  0
H  H22  1  0.18457467  0.08207534  0.48352798  1  0  0.098149  0  0.966218  0  0  0.109996  0  1.024805  0  0  0.112479  0  1.025222  0  0.076887  0  0.107408  0.108252  0  1.024506  0
H  H23  1  0.81540468  0.41791444  0.98352798  1  0  0.098203  0  0.966118  0  0  0.110022  0  1.024744  0  0  0.112509  0  1.025151  0  0.076862  0  0.107392  0.108304  0  1.024414  0
H  H24  1  0.09311233  0.81879021  0.52833492  1  0  0.093617  0  0.957291  0  0  0.107693  0  1.012845  0  0  0.109959  0  1.011702  0  0.094585  0  0.108477  0.106023  0  1.013701  0
H  H25  1  0.90690766  0.68120711  0.02832932  1  0  0.093704  0  0.957275  0  0  0.107736  0  1.012849  0  0  0.109994  0  1.011727  0  0.094218  0  0.108542  0.106069  0  1.013701  0
H  H26  1  0.90689083  0.18119867  0.47166757  1  0  0.093638  0  0.957272  0  0  0.107699  0  1.012837  0  0  0.109966  0  1.011693  0  0.09456  0  0.108483  0.106034  0  1.013685  0
H  H27  1  0.09309494  0.31880044  0.97167068  1  0  0.093689  0  0.95727  0  0  0.107717  0  1.012855  0  0  0.109978  0  1.011724  0  0.094506  0  0.108505  0.106051  0  1.013704  0
H  H28  1  0.11581309  0.66406930  0.65674832  1  0  0.117383  0  0.982918  0  0  0.123192  0  1.046457  0  0  0.127232  0  1.044833  0  0.140218  0  0.107238  0.120304  0  1.047722  0
H  H29  1  0.88418815  0.83592803  0.15673960  1  0  0.117413  0  0.982974  0  0  0.123252  0  1.046461  0  0  0.12729  0  1.044839  0  0.140267  0  0.107274  0.120365  0  1.047723  0
H  H30  1  0.88418524  0.33592425  0.34325791  1  0  0.117423  0  0.982889  0  0  0.123252  0  1.046406  0  0  0.127293  0  1.04478  0  0.140294  0  0.10727  0.120364  0  1.047671  0
H  H31  1  0.11581666  0.16407836  0.84326040  1  0  0.117513  0  0.982817  0  0  0.12332  0  1.046361  0  0  0.127366  0  1.044727  0  0.140322  0  0.107297  0.120429  0  1.047633  0
H  H32  1  0.86053871  0.61203296  0.76289777  1  0  0.073353  0  0.942368  0  0  0.081953  0  1.00778  0  0  0.083876  0  1.006867  0  0.094522  0  0.117001  0.080569  0  1.008441  0
H  H33  1  0.13945810  0.88796670  0.26289403  1  0  0.073402  0  0.94234  0  0  0.081977  0  1.007768  0  0  0.0839  0  1.006854  0  0.094585  0  0.117013  0.080598  0  1.008428  0
H  H34  1  0.13945934  0.38796992  0.23710783  1  0  0.073453  0  0.942278  0  0  0.082037  0  1.00769  0  0  0.083961  0  1.006777  0  0.094524  0  0.117024  0.080657  0  1.008351  0
H  H35  1  0.86054524  0.11203269  0.73710721  1  0  0.073421  0  0.942349  0  0  0.082003  0  1.007765  0  0  0.083927  0  1.006851  0  0.094573  0  0.117028  0.080624  0  1.008425  0
H  H36  1  0.48033763  0.58891114  0.95044129  1  0  0.081804  0  1.029107  0  0  0.097574  0  1.092329  0  0  0.098523  0  1.095686  0  -0.009091  0  0.056511  0.096814  0  1.090173  0
H  H37  1  0.51966192  0.91109202  0.45043818  1  0  0.081803  0  1.029081  0  0  0.097587  0  1.092294  0  0  0.098535  0  1.095651  0  -0.009105  0  0.056519  0.096827  0  1.090137  0
H  H38  1  0.51966846  0.41109174  0.04955871  1  0  0.08174  0  1.029134  0  0  0.097538  0  1.092333  0  0  0.098487  0  1.09569  0  -0.009207  0  0.056485  0.096778  0  1.090178  0
H  H39  1  0.48033600  0.08890387  0.54956120  1  0  0.081762  0  1.029117  0  0  0.097553  0  1.092328  0  0  0.0985  0  1.095686  0  -0.009188  0  0.056485  0.096793  0  1.090171  0
H  H40  1  0.71472938  0.63676334  0.91561871  1  0  0.065399  0  1.046089  0  0  0.078558  0  1.118586  0  0  0.078886  0  1.122452  0  -0.032724  0  0.052819  0.078449  0  1.115554  0
H  H41  1  0.28526971  0.86323865  0.41561498  1  0  0.065381  0  1.046008  0  0  0.078566  0  1.118495  0  0  0.078892  0  1.122363  0  -0.03278  0  0.052844  0.078457  0  1.115462  0
H  H42  1  0.28527543  0.36324304  0.08437880  1  0  0.065403  0  1.046071  0  0  0.078573  0  1.118552  0  0  0.078901  0  1.122418  0  -0.032682  0  0.052832  0.078464  0  1.115521  0
H  H43  1  0.71472600  0.13675840  0.58438502  1  0  0.065396  0  1.046006  0  0  0.078588  0  1.118477  0  0  0.078914  0  1.122345  0  -0.032751  0  0.052841  0.07848  0  1.115444  0
H  H44  1  0.68518968  0.82229430  0.03128352  1  0  0.06295  0  0.969075  0  0  0.087533  0  1.031676  0  0  0.087285  0  1.03329  0  0.013062  0  0.069023  0.087488  0  1.030816  0
H  H45  1  0.31481080  0.67771120  0.53128165  1  0  0.063004  0  0.969021  0  0  0.087575  0  1.031634  0  0  0.087322  0  1.033254  0  0.013216  0  0.069053  0.08753  0  1.030774  0
H  H46  1  0.31481506  0.17770859  0.96871648  1  0  0.062976  0  0.969035  0  0  0.087551  0  1.031644  0  0  0.087299  0  1.033264  0  0.013081  0  0.06904  0.087506  0  1.030784  0
H  H47  1  0.68518759  0.32228586  0.46871711  1  0  0.062981  0  0.969072  0  0  0.087537  0  1.031706  0  0  0.08729  0  1.03332  0  0.01318  0  0.069037  0.087491  0  1.030846  0
H  H48  1  0.53085692  0.88332530  0.96726585  1  0  0.067524  0  0.977999  0  0  0.090843  0  1.042616  0  0  0.09089  0  1.044391  0  -0.008859  0  0.071123  0.090813  0  1.04101  0
H  H49  1  0.46914217  0.61667669  0.46726523  1  0  0.067528  0  0.978014  0  0  0.090843  0  1.04263  0  0  0.090891  0  1.044404  0  -0.00883  0  0.071116  0.090812  0  1.041024  0
H  H50  1  0.46914830  0.11667875  0.03273539  1  0  0.067511  0  0.977996  0  0  0.090823  0  1.042621  0  0  0.090873  0  1.044393  0  -0.008822  0  0.071109  0.090793  0  1.041015  0
H  H51  1  0.53085622  0.38332036  0.53273352  1  0  0.06751  0  0.978045  0  0  0.090837  0  1.042643  0  0  0.090882  0  1.044421  0  -0.00878  0  0.071125  0.090807  0  1.041038  0
H  H52  1  0.76890499  0.92366076  0.93721061  1  0  0.068708  0  0.975752  0  0  0.091742  0  1.03973  0  0  0.091683  0  1.041891  0  0.009853  0  0.069794  0.091843  0  1.03805  0
H  H53  1  0.23109503  0.57634357  0.43720936  1  0  0.068728  0  0.975771  0  0  0.091759  0  1.039737  0  0  0.091703  0  1.041897  0  0.009865  0  0.06979  0.09186  0  1.038057  0
H  H54  1  0.23109935  0.07634446  0.06278939  1  0  0.068678  0  0.975692  0  0  0.091711  0  1.039677  0  0  0.091654  0  1.041838  0  0.009926  0  0.069783  0.091812  0  1.037997  0
H  H55  1  0.76890337  0.42365348  0.56279002  1  0  0.068682  0  0.975713  0  0  0.091699  0  1.039709  0  0  0.091646  0  1.041868  0  0.009921  0  0.069778  0.0918  0  1.038029  0
C  C56  1  0.31018913  0.93352562  0.79401436  1  0  0.741399  0  3.828439  0  0  0.698657  0  4.118818  0  0  0.732518  0  4.112017  0  1.551214  0  0.211355  0.675572  0  4.122528  0
C  C57  1  0.68981030  0.56647054  0.29401436  1  0  0.741318  0  3.828464  0  0  0.698645  0  4.118729  0  0  0.732506  0  4.111931  0  1.551217  0  0.211363  0.67556  0  4.122441  0
C  C58  1  0.68981287  0.06647377  0.20598377  1  0  0.741272  0  3.828678  0  0  0.698581  0  4.118994  0  0  0.732442  0  4.112197  0  1.551196  0  0.211385  0.675495  0  4.122702  0
C  C59  1  0.31018367  0.43352884  0.70598751  1  0  0.741121  0  3.828631  0  0  0.698603  0  4.118715  0  0  0.732465  0  4.111917  0  1.550879  0  0.211392  0.675517  0  4.122425  0
C  C60  1  0.17472275  0.83916615  0.85930141  1  0  -0.469172  0  3.66781  0  0  -0.547256  0  3.898766  0  0  -0.554791  0  3.901175  0  -0.071798  0  -0.246254  -0.541697  0  3.896972  0
C  C61  1  0.82527762  0.66083234  0.35930078  1  0  -0.469115  0  3.667856  0  0  -0.547206  0  3.898773  0  0  -0.554743  0  3.901186  0  -0.071749  0  -0.246263  -0.541648  0  3.896979  0
C  C62  1  0.82528107  0.16083440  0.14069797  1  0  -0.468972  0  3.667905  0  0  -0.547038  0  3.89885  0  0  -0.554573  0  3.901263  0  -0.071949  0  -0.246175  -0.541477  0  3.897055  0
C  C63  1  0.17471642  0.33917055  0.64070046  1  0  -0.468915  0  3.668093  0  0  -0.547026  0  3.898969  0  0  -0.554565  0  3.901384  0  -0.071979  0  -0.246213  -0.541466  0  3.897175  0
C  C64  1  0.70079755  0.82176705  0.63488736  1  0  0.12599  0  3.681806  0  0  0.095601  0  3.927905  0  0  0.102313  0  3.946092  0  0.449171  0  0.051416  0.091357  0  3.915042  0
C  C65  1  0.29921405  0.67823611  0.13488611  1  0  0.125958  0  3.681827  0  0  0.095663  0  3.927873  0  0  0.102375  0  3.946063  0  0.448819  0  0.051412  0.09142  0  3.915013  0
C  C66  1  0.29920305  0.17822883  0.36511264  1  0  0.125949  0  3.681914  0  0  0.095615  0  3.927956  0  0  0.102327  0  3.946142  0  0.449128  0  0.051401  0.091371  0  3.915096  0
C  C67  1  0.70078527  0.32176328  0.86511264  1  0  0.125927  0  3.681788  0  0  0.09564  0  3.927833  0  0  0.102353  0  3.946021  0  0.449126  0  0.051383  0.091395  0  3.914979  0
C  C68  1  0.83346385  0.85209067  0.57067412  1  0  -0.13001  0  3.750855  0  0  -0.140372  0  3.99719  0  0  -0.14831  0  4.020516  0  -0.019739  0  -0.083026  -0.135147  0  3.980999  0
C  C69  1  0.16655673  0.64791482  0.07067536  1  0  -0.130131  0  3.750828  0  0  -0.140529  0  3.99713  0  0  -0.148463  0  4.02046  0  -0.019903  0  -0.083079  -0.135322  0  3.980931  0
C  C70  1  0.16653984  0.14790288  0.42932402  1  0  -0.129997  0  3.750944  0  0  -0.14039  0  3.997258  0  0  -0.148328  0  4.020584  0  -0.02054  0  -0.083055  -0.135164  0  3.981066  0
C  C71  1  0.83344534  0.35208806  0.92932526  1  0  -0.130054  0  3.750673  0  0  -0.140419  0  3.996968  0  0  -0.148355  0  4.020295  0  -0.020211  0  -0.083027  -0.135214  0  3.98077  0
C  C72  1  0.98601329  0.79623647  0.57726205  1  0  -0.010141  0  3.723099  0  0  -0.026748  0  3.964883  0  0  -0.023335  0  3.984113  0  -0.056453  0  -0.063535  -0.028696  0  3.951902  0
C  C73  1  0.01399692  0.70376319  0.07725645  1  0  -0.010146  0  3.722698  0  0  -0.026706  0  3.964492  0  0  -0.023294  0  3.983714  0  -0.056072  0  -0.06354  -0.028661  0  3.951532  0
C  C74  1  0.01398900  0.20375359  0.42274106  1  0  -0.010151  0  3.722915  0  0  -0.026733  0  3.964702  0  0  -0.023321  0  3.983933  0  -0.056113  0  -0.063488  -0.02868  0  3.951723  0
C  C75  1  0.98600474  0.29624202  0.92274231  1  0  -0.010251  0  3.72276  0  0  -0.026801  0  3.964546  0  0  -0.023391  0  3.983778  0  -0.056211  0  -0.06353  -0.028751  0  3.951574  0
C  C76  1  0.99915025  0.70959905  0.64733075  1  0  -0.119064  0  3.718903  0  0  -0.129148  0  3.96367  0  0  -0.136648  0  3.984859  0  -0.003936  0  -0.081192  -0.124414  0  3.949607  0
C  C77  1  0.00085774  0.79040177  0.14732639  1  0  -0.119142  0  3.719014  0  0  -0.129239  0  3.963778  0  0  -0.136734  0  3.984961  0  -0.003851  0  -0.081186  -0.124505  0  3.949716  0
C  C78  1  0.00084901  0.29039683  0.35267298  1  0  -0.119049  0  3.718832  0  0  -0.129156  0  3.963613  0  0  -0.136656  0  3.984801  0  -0.003959  0  -0.081174  -0.124424  0  3.949553  0
C  C79  1  0.99914660  0.20960345  0.85267361  1  0  -0.119118  0  3.718828  0  0  -0.129207  0  3.963588  0  0  -0.136707  0  3.984774  0  -0.004035  0  -0.081203  -0.124473  0  3.949528  0
C  C80  1  0.85842719  0.68163404  0.70779690  1  0  0.132227  0  3.689855  0  0  0.104083  0  3.935245  0  0  0.110327  0  3.954151  0  0.436878  0  0.053953  0.099942  0  3.922477  0
C  C81  1  0.14157143  0.81836678  0.20779441  1  0  0.132173  0  3.68985  0  0  0.10407  0  3.935265  0  0  0.110314  0  3.954167  0  0.43678  0  0.053917  0.099924  0  3.922503  0
C  C82  1  0.14157167  0.31836418  0.29220559  1  0  0.132109  0  3.689778  0  0  0.103978  0  3.935185  0  0  0.11022  0  3.954091  0  0.436896  0  0.053904  0.099833  0  3.922425  0
C  C83  1  0.85842702  0.18163377  0.79220435  1  0  0.132095  0  3.689777  0  0  0.103999  0  3.935211  0  0  0.110242  0  3.954115  0  0.436817  0  0.053915  0.099854  0  3.922448  0
C  C84  1  0.59281431  0.67991700  0.91724872  1  0  -0.5503  0  3.757774  0  0  -0.537798  0  4.050442  0  0  -0.555338  0  4.063764  0  -0.329598  0  -0.334548  -0.525941  0  4.041025  0
C  C85  1  0.40718658  0.82008616  0.41724561  1  0  -0.550235  0  3.75769  0  0  -0.537775  0  4.05036  0  0  -0.555312  0  4.06368  0  -0.329538  0  -0.334571  -0.525918  0  4.040942  0
C  C86  1  0.40718869  0.32008822  0.08275190  1  0  -0.55028  0  3.757726  0  0  -0.537811  0  4.050415  0  0  -0.55535  0  4.063735  0  -0.329664  0  -0.334547  -0.525954  0  4.041  0
C  C87  1  0.59281181  0.17991089  0.58275377  1  0  -0.550251  0  3.75764  0  0  -0.537801  0  4.050308  0  0  -0.555339  0  4.063628  0  -0.329612  0  -0.334554  -0.525945  0  4.040894  0
C  C88  1  0.64715788  0.83408267  0.96572366  1  0  -0.210601  0  3.834084  0  0  -0.279549  0  4.070006  0  0  -0.279803  0  4.087405  0  -0.069454  0  -0.266863  -0.279103  0  4.057881  0
C  C89  1  0.35284348  0.66592166  0.46572180  1  0  -0.2107  0  3.834065  0  0  -0.279641  0  4.070007  0  0  -0.279889  0  4.087393  0  -0.069638  0  -0.266878  -0.279196  0  4.057883  0
C  C90  1  0.35284733  0.16592138  0.03427634  1  0  -0.21057  0  3.833887  0  0  -0.279507  0  4.069831  0  0  -0.279758  0  4.087222  0  -0.069462  0  -0.266852  -0.279061  0  4.057707  0
C  C91  1  0.64715492  0.33407539  0.53427634  1  0  -0.210589  0  3.833963  0  0  -0.279518  0  4.069923  0  0  -0.27977  0  4.087298  0  -0.069565  0  -0.266855  -0.279075  0  4.057801  0
N  N92  1  0.71311957  0.73795483  0.70249391  1  0  -0.30579  0  3.282951  0  0  -0.223396  0  3.54674  0  0  -0.240478  0  3.561976  0  -1.23928  0  -0.323011  -0.211947  0  3.536366  0
N  N93  1  0.28688715  0.76204949  0.20249391  1  0  -0.305772  0  3.282717  0  0  -0.223479  0  3.54657  0  0  -0.240561  0  3.561803  0  -1.238898  0  -0.323039  -0.212027  0  3.536199  0
N  N94  1  0.28688064  0.26204338  0.29750671  1  0  -0.305794  0  3.282848  0  0  -0.223415  0  3.546624  0  0  -0.240497  0  3.561859  0  -1.239151  0  -0.323009  -0.211965  0  3.536253  0
N  N95  1  0.71311311  0.23795223  0.79750671  1  0  -0.305683  0  3.282758  0  0  -0.223423  0  3.546656  0  0  -0.240505  0  3.56189  0  -1.23918  0  -0.323018  -0.211973  0  3.536285  0
O  O96  1  0.44778258  0.89189771  0.76890894  1  0  -0.633569  0  2.069153  0  0  -0.561272  0  2.336026  0  0  -0.588146  0  2.322196  0  -1.19146  0  -0.318168  -0.542547  0  2.344714  0
O  O97  1  0.55221644  0.60810078  0.26891081  1  0  -0.633551  0  2.069128  0  0  -0.561297  0  2.335997  0  0  -0.588157  0  2.322134  0  -1.191432  0  -0.318195  -0.542569  0  2.344682  0
O  O98  1  0.55221768  0.10810401  0.23108732  1  0  -0.63357  0  2.069176  0  0  -0.561314  0  2.336034  0  0  -0.588181  0  2.322192  0  -1.191396  0  -0.318244  -0.542585  0  2.344719  0
O  O99  1  0.44777840  0.39189744  0.73108919  1  0  -0.633477  0  2.069141  0  0  -0.561328  0  2.335982  0  0  -0.588194  0  2.322129  0  -1.191466  0  -0.318225  -0.5426  0  2.344668  0
O  O100  1  0.28561894  0.05847877  0.76774732  1  0  -0.627643  0  2.031191  0  0  -0.554481  0  2.28467  0  0  -0.581918  0  2.272737  0  -1.1825  0  -0.321042  -0.535073  0  2.292459  0
O  O101  1  0.71437976  0.44151918  0.26774670  1  0  -0.627614  0  2.03122  0  0  -0.554477  0  2.284668  0  0  -0.581914  0  2.272734  0  -1.182568  0  -0.321021  -0.535065  0  2.292444  0
O  O102  1  0.71437905  0.94152062  0.23224957  1  0  -0.627565  0  2.031169  0  0  -0.554437  0  2.284618  0  0  -0.581871  0  2.272686  0  -1.182487  0  -0.321049  -0.535037  0  2.292421  0
O  O103  1  0.28561689  0.55848021  0.73225642  1  0  -0.627557  0  2.031262  0  0  -0.554455  0  2.284633  0  0  -0.58189  0  2.2727  0  -1.182192  0  -0.321053  -0.535051  0  2.292427  0
