# generated using pymatgen
data_AlH4C8O5
_symmetry_space_group_name_H-M   'P 1'
_cell_length_a   11.90981847
_cell_length_b   12.09535366
_cell_length_c   12.09545164
_cell_angle_alpha   75.97241716
_cell_angle_beta   60.50637301
_cell_angle_gamma   60.50606948
_symmetry_Int_Tables_number   1
_chemical_formula_structural   AlH4C8O5
_chemical_formula_sum   'Al4 H16 C32 O20'
_cell_volume   1320.05706972
_cell_formula_units_Z   4
loop_
 _symmetry_equiv_pos_site_id
 _symmetry_equiv_pos_as_xyz
  1  'x, y, z'
loop_
 _atom_site_type_symbol
 _atom_site_label
 _atom_site_symmetry_multiplicity
 _atom_site_fract_x
 _atom_site_fract_y
 _atom_site_fract_z
 _atom_site_occupancy
 _atom_site_hle17_bader_spin_density
 _atom_site_hle17_ddec_charge
 _atom_site_hle17_ddec_spin_density
 _atom_site_hle17_ddec_sum_bond_order
 _atom_site_hle17_magmom
 _atom_site_hse06_10hf_bader_spin_density
 _atom_site_hse06_10hf_ddec_charge
 _atom_site_hse06_10hf_ddec_spin_density
 _atom_site_hse06_10hf_ddec_sum_bond_order
 _atom_site_hse06_10hf_magmom
 _atom_site_hse06_bader_spin_density
 _atom_site_hse06_ddec_charge
 _atom_site_hse06_ddec_spin_density
 _atom_site_hse06_ddec_sum_bond_order
 _atom_site_hse06_magmom
 _atom_site_pbe_bader_spin_density
 _atom_site_pbe_cm5_charge
 _atom_site_pbe_ddec_charge
 _atom_site_pbe_ddec_spin_density
 _atom_site_pbe_ddec_sum_bond_order
 _atom_site_pbe_magmom
Al  Al0  1  0.19212869  0.99999977  0.61574315  1  0  1.811259  0  2.189479  0  0  1.669791  0  2.528696  0  0  1.706366  0  2.479086  0  0  0.404287  1.643435  0  2.563866  0
Al  Al1  1  0.94208897  0.11582317  0.49999927  1  0  1.81133  0  2.189244  0  0  1.669993  0  2.528806  0  0  1.706578  0  2.479196  0  0  0.404362  1.64361  0  2.564  0
Al  Al2  1  0.55791069  0.88417727  0.50000090  1  0  1.81132  0  2.189296  0  0  1.669946  0  2.528883  0  0  1.70651  0  2.47929  0  0  0.404386  1.643578  0  2.564063  0
Al  Al3  1  0.80787190  1.00000000  0.38425573  1  0  1.811293  0  2.189431  0  0  1.669815  0  2.528644  0  0  1.706387  0  2.479037  0  0  0.404256  1.64346  0  2.563813  0
H  H4  1  0.37503509  0.06408862  0.43589140  1  0  0.439174  0  0.823527  0  0  0.422514  0  0.867147  0  0  0.430011  0  0.856274  0  0  0.340225  0.417226  0  0.874892  0
H  H5  1  0.87501381  0.93591340  0.56410978  1  0  0.439202  0  0.823497  0  0  0.422543  0  0.867108  0  0  0.430039  0  0.856236  0  0  0.340243  0.417254  0  0.874854  0
H  H6  1  0.18907293  0.93591238  0.43589103  1  0  0.439164  0  0.823499  0  0  0.422518  0  0.867131  0  0  0.430014  0  0.856259  0  0  0.340225  0.417229  0  0.874876  0
H  H7  1  0.56087657  0.06408820  0.56410838  1  0  0.439163  0  0.823535  0  0  0.422505  0  0.86716  0  0  0.430001  0  0.856288  0  0  0.340221  0.417215  0  0.874906  0
H  H8  1  0.10950350  0.99999952  0.00000044  1  0  0.124052  0  0.921463  0  0  0.131625  0  0.984389  0  0  0.135698  0  0.980646  0  0  0.119093  0.128183  0  0.988189  0
H  H9  1  0.64038320  0.50000020  0.49999631  1  0  0.123556  0  0.921406  0  0  0.131149  0  0.984344  0  0  0.135254  0  0.980592  0  0  0.119018  0.127662  0  0.988166  0
H  H10  1  0.89049891  0.99999870  0.99999937  1  0  0.124041  0  0.921463  0  0  0.131612  0  0.984394  0  0  0.135686  0  0.98065  0  0  0.119079  0.128171  0  0.988193  0
H  H11  1  0.85961706  0.50000107  0.50000100  1  0  0.123546  0  0.921401  0  0  0.131136  0  0.984341  0  0  0.135242  0  0.980589  0  0  0.119002  0.127651  0  0.988163  0
H  H12  1  0.54870805  0.94153658  0.80322724  1  0  0.106671  0  0.944012  0  0  0.113772  0  1.009842  0  0  0.118098  0  1.00588  0  0  0.10916  0.110571  0  1.012865  0
H  H13  1  0.45649421  0.30324876  0.44143647  1  0  0.106917  0  0.943913  0  0  0.114001  0  1.009734  0  0  0.118247  0  1.005865  0  0  0.109195  0.110809  0  1.012748  0
H  H14  1  0.64806591  0.05846414  0.80322669  1  0  0.106674  0  0.943987  0  0  0.113776  0  1.009815  0  0  0.118103  0  1.005851  0  0  0.109147  0.110577  0  1.012837  0
H  H15  1  0.10206941  0.69675093  0.44143543  1  0  0.106934  0  0.943864  0  0  0.114026  0  1.009671  0  0  0.118278  0  1.005793  0  0  0.109185  0.110821  0  1.0127  0
H  H16  1  0.24025506  0.30324800  0.55856599  1  0  0.106957  0  0.943872  0  0  0.114035  0  1.009694  0  0  0.118283  0  1.005825  0  0  0.109191  0.110855  0  1.012695  0
H  H17  1  0.50975627  0.94153673  0.19677166  1  0  0.106656  0  0.94402  0  0  0.113759  0  1.00985  0  0  0.118085  0  1.005889  0  0  0.109135  0.110558  0  1.012872  0
H  H18  1  0.20117643  0.69675227  0.55856866  1  0  0.106945  0  0.943878  0  0  0.114003  0  1.009732  0  0  0.118247  0  1.005866  0  0  0.109195  0.110816  0  1.012739  0
H  H19  1  0.29347222  0.05846395  0.19677119  1  0  0.106648  0  0.944043  0  0  0.113753  0  1.009865  0  0  0.11808  0  1.005901  0  0  0.109145  0.11055  0  1.012889  0
C  C20  1  0.34259958  0.95230931  0.76549936  1  0  0.718634  0  3.798595  0  0  0.662772  0  4.090379  0  0  0.698154  0  4.07952  0  0  0.269453  0.638897  0  4.096981  0
C  C21  1  0.68957066  0.26551157  0.45223049  1  0  0.7193  0  3.798003  0  0  0.663587  0  4.089512  0  0  0.698988  0  4.078644  0  0  0.270018  0.639713  0  4.096127  0
C  C22  1  0.89190312  0.04769066  0.76549870  1  0  0.718833  0  3.798288  0  0  0.662862  0  4.090203  0  0  0.698257  0  4.079336  0  0  0.269508  0.63898  0  4.096812  0
C  C23  1  0.85819690  0.73448934  0.45223117  1  0  0.719306  0  3.798096  0  0  0.663514  0  4.089688  0  0  0.698909  0  4.078822  0  0  0.269952  0.63964  0  4.096306  0
C  C24  1  0.04491645  0.26551263  0.54776915  1  0  0.719275  0  3.798087  0  0  0.663536  0  4.089642  0  0  0.698927  0  4.078773  0  0  0.269981  0.639661  0  4.096259  0
C  C25  1  0.70509088  0.95230666  0.23450143  1  0  0.718769  0  3.798553  0  0  0.662909  0  4.090306  0  0  0.698285  0  4.079447  0  0  0.26947  0.639038  0  4.096911  0
C  C26  1  0.40731437  0.73448860  0.54776882  1  0  0.719266  0  3.798117  0  0  0.663517  0  4.089677  0  0  0.698903  0  4.078811  0  0  0.269966  0.639641  0  4.096295  0
C  C27  1  0.06040713  0.04769171  0.23450109  1  0  0.718722  0  3.798555  0  0  0.662886  0  4.090293  0  0  0.698277  0  4.079429  0  0  0.269525  0.639002  0  4.096905  0
C  C28  1  0.32947606  0.97331262  0.88867174  1  0  -0.06867  0  3.774956  0  0  -0.045526  0  4.0156  0  0  -0.055223  0  4.039303  0  0  -0.011615  -0.039281  0  3.999381  0
C  C29  1  0.55850421  0.38868891  0.47320880  1  0  -0.0689  0  3.775577  0  0  -0.045793  0  4.016213  0  0  -0.055557  0  4.040002  0  0  -0.011956  -0.039553  0  3.999992  0
C  C30  1  0.78185334  0.02668663  0.88867208  1  0  -0.0688  0  3.775006  0  0  -0.045544  0  4.015572  0  0  -0.055236  0  4.039265  0  0  -0.011661  -0.039302  0  3.999362  0
C  C31  1  0.96828456  0.61131196  0.47321048  1  0  -0.068937  0  3.775565  0  0  -0.045785  0  4.016169  0  0  -0.055544  0  4.039953  0  0  -0.011924  -0.039543  0  3.999945  0
C  C32  1  0.05280508  0.38868930  0.52679171  1  0  -0.06889  0  3.775567  0  0  -0.045804  0  4.01623  0  0  -0.055535  0  4.039976  0  0  -0.01197  -0.039562  0  4.000012  0
C  C33  1  0.69721244  0.97331204  0.11132714  1  0  -0.0687  0  3.775013  0  0  -0.045516  0  4.0156  0  0  -0.055212  0  4.039306  0  0  -0.011598  -0.039276  0  3.999389  0
C  C34  1  0.42040356  0.61131150  0.52678961  1  0  -0.068904  0  3.775504  0  0  -0.04579  0  4.016143  0  0  -0.055519  0  4.039886  0  0  -0.011913  -0.039549  0  3.999921  0
C  C35  1  0.19146032  0.02668754  0.11132773  1  0  -0.068706  0  3.774993  0  0  -0.045499  0  4.015546  0  0  -0.055191  0  4.039242  0  0  -0.011614  -0.039261  0  3.999339  0
C  C36  1  0.20091630  0.00000054  0.00000004  1  0  -0.039715  0  3.653636  0  0  -0.081592  0  3.903983  0  0  -0.077784  0  3.921714  0  0  -0.061416  -0.083883  0  3.892505  0
C  C37  1  0.54896412  0.49999975  0.50000013  1  0  -0.038961  0  3.654107  0  0  -0.080835  0  3.90428  0  0  -0.077036  0  3.922097  0  0  -0.061259  -0.083068  0  3.892736  0
C  C38  1  0.79908487  0.99999799  0.99999940  1  0  -0.0397  0  3.653707  0  0  -0.081594  0  3.904037  0  0  -0.077787  0  3.921768  0  0  -0.061404  -0.083886  0  3.892562  0
C  C39  1  0.95103375  0.50000106  0.50000098  1  0  -0.038992  0  3.654066  0  0  -0.080865  0  3.90423  0  0  -0.077067  0  3.922047  0  0  -0.061264  -0.083097  0  3.892688  0
C  C40  1  0.44801582  0.96948635  0.89002145  1  0  -0.090263  0  3.684852  0  0  -0.125877  0  3.932023  0  0  -0.124793  0  3.951029  0  0  -0.072072  -0.126149  0  3.918922  0
C  C41  1  0.44245169  0.39003489  0.46940089  1  0  -0.09084  0  3.686139  0  0  -0.126806  0  3.933067  0  0  -0.12565  0  3.952126  0  0  -0.07209  -0.127074  0  3.919975  0
C  C42  1  0.66196482  0.03051336  0.89002089  1  0  -0.090298  0  3.684854  0  0  -0.12593  0  3.931993  0  0  -0.124847  0  3.950997  0  0  -0.072097  -0.126203  0  3.918896  0
C  C43  1  0.08814440  0.60996593  0.46940182  1  0  -0.090852  0  3.685952  0  0  -0.126803  0  3.932887  0  0  -0.125652  0  3.951941  0  0  -0.072084  -0.127059  0  3.9198  0
C  C44  1  0.16750974  0.39003463  0.53060057  1  0  -0.090893  0  3.685983  0  0  -0.126806  0  3.932938  0  0  -0.125666  0  3.951992  0  0  -0.07205  -0.127085  0  3.919843  0
C  C45  1  0.58249956  0.96948560  0.10997744  1  0  -0.090269  0  3.684897  0  0  -0.125903  0  3.932067  0  0  -0.12482  0  3.951075  0  0  -0.07209  -0.126169  0  3.918963  0
C  C46  1  0.30188854  0.60996523  0.53059947  1  0  -0.09088  0  3.686033  0  0  -0.126821  0  3.932957  0  0  -0.125675  0  3.952008  0  0  -0.072086  -0.12709  0  3.91986  0
C  C47  1  0.30752343  0.03051445  0.10997796  1  0  -0.090277  0  3.684882  0  0  -0.12591  0  3.932042  0  0  -0.124827  0  3.951045  0  0  -0.072097  -0.126179  0  3.918939  0
C  C48  1  0.43812503  0.99999910  0.99999949  1  0  0.047514  0  3.809789  0  0  0.065792  0  4.044161  0  0  0.063019  0  4.070474  0  0  -0.006044  0.067518  0  4.0262  0
C  C49  1  0.31183763  0.50000054  0.50000115  1  0  0.048075  0  3.810951  0  0  0.067155  0  4.043558  0  0  0.06443  0  4.069741  0  0  -0.005805  0.068856  0  4.025659  0
C  C50  1  0.56187711  0.99999991  0.99999899  1  0  0.047568  0  3.809756  0  0  0.065853  0  4.044122  0  0  0.06308  0  4.070434  0  0  -0.006015  0.067578  0  4.026164  0
C  C51  1  0.18815867  0.50000021  0.50000118  1  0  0.048215  0  3.810654  0  0  0.067155  0  4.043395  0  0  0.064431  0  4.06958  0  0  -0.005755  0.068857  0  4.0255  0
O  O52  1  0.37503116  0.99906234  0.50086145  1  0  -1.076845  0  1.917609  0  0  -1.013694  0  2.132446  0  0  -1.033279  0  2.103197  0  0  -0.451824  -0.999412  0  2.152985  0
O  O53  1  0.87495558  0.00093820  0.49913783  1  0  -1.076878  0  1.917564  0  0  -1.013724  0  2.132392  0  0  -1.033306  0  2.103139  0  0  -0.451815  -0.999446  0  2.152939  0
O  O54  1  0.12410737  0.00093898  0.50086105  1  0  -1.076842  0  1.917586  0  0  -1.013697  0  2.132423  0  0  -1.033279  0  2.103169  0  0  -0.451801  -0.999418  0  2.15297  0
O  O55  1  0.62590642  0.99906142  0.49913931  1  0  -1.076834  0  1.917585  0  0  -1.013696  0  2.132449  0  0  -1.033282  0  2.103205  0  0  -0.451814  -0.999414  0  2.152991  0
O  O56  1  0.22724132  0.00017711  0.75403520  1  0  -0.640378  0  2.109148  0  0  -0.58386  0  2.346567  0  0  -0.606352  0  2.332416  0  0  -0.227453  -0.568318  0  2.355989  0
O  O57  1  0.76851372  0.25407330  0.50009898  1  0  -0.640675  0  2.10922  0  0  -0.584266  0  2.346615  0  0  -0.606734  0  2.332426  0  0  -0.227551  -0.56872  0  2.356049  0
O  O58  1  0.01872481  0.99982201  0.75403572  1  0  -0.640386  0  2.109078  0  0  -0.583832  0  2.346542  0  0  -0.606329  0  2.332389  0  0  -0.22746  -0.56829  0  2.35597  0
O  O59  1  0.73138571  0.74592668  0.50010065  1  0  -0.640676  0  2.109296  0  0  -0.584216  0  2.346703  0  0  -0.606685  0  2.332523  0  0  -0.227531  -0.568668  0  2.356133  0
O  O60  1  0.97741307  0.25407308  0.49989946  1  0  -0.640686  0  2.109292  0  0  -0.584225  0  2.346658  0  0  -0.606691  0  2.332472  0  0  -0.227522  -0.568679  0  2.356092  0
O  O61  1  0.77257997  0.00017600  0.24596558  1  0  -0.640445  0  2.109121  0  0  -0.583927  0  2.346538  0  0  -0.606417  0  2.332386  0  0  -0.227454  -0.568385  0  2.355962  0
O  O62  1  0.52268763  0.74592653  0.49990029  1  0  -0.640624  0  2.109304  0  0  -0.584205  0  2.346723  0  0  -0.606678  0  2.332549  0  0  -0.227512  -0.568657  0  2.356153  0
O  O63  1  0.98145428  0.99982452  0.24596409  1  0  -0.640392  0  2.109159  0  0  -0.583893  0  2.346585  0  0  -0.606381  0  2.332426  0  0  -0.227474  -0.568353  0  2.356016  0
O  O64  1  0.46961569  0.89089430  0.68020783  1  0  -0.678732  0  2.109909  0  0  -0.618549  0  2.345138  0  0  -0.641957  0  2.33116  0  0  -0.239711  -0.602301  0  2.354327  0
O  O65  1  0.70925651  0.18017392  0.39086945  1  0  -0.678974  0  2.109985  0  0  -0.618802  0  2.345168  0  0  -0.642203  0  2.331162  0  0  -0.239903  -0.602566  0  2.354365  0
O  O66  1  0.85017752  0.10910540  0.68020811  1  0  -0.678817  0  2.109806  0  0  -0.618668  0  2.345129  0  0  -0.642104  0  2.331162  0  0  -0.239782  -0.602398  0  2.354307  0
O  O67  1  0.89987242  0.81982582  0.39087004  1  0  -0.678967  0  2.110027  0  0  -0.618774  0  2.345241  0  0  -0.642167  0  2.331234  0  0  -0.239893  -0.602537  0  2.354438  0
O  O68  1  0.11056903  0.18017383  0.60913025  1  0  -0.678926  0  2.109966  0  0  -0.618772  0  2.34518  0  0  -0.642173  0  2.331178  0  0  -0.239897  -0.602536  0  2.354379  0
O  O69  1  0.63948923  0.89089388  0.31979301  1  0  -0.678785  0  2.109948  0  0  -0.618622  0  2.345194  0  0  -0.642018  0  2.33121  0  0  -0.23974  -0.602377  0  2.354385  0
O  O70  1  0.28030158  0.81982644  0.60912990  1  0  -0.67895  0  2.110021  0  0  -0.618767  0  2.345217  0  0  -0.642157  0  2.331209  0  0  -0.239878  -0.602531  0  2.354416  0
O  O71  1  0.04071759  0.10910690  0.31979070  1  0  -0.678719  0  2.109832  0  0  -0.618616  0  2.345096  0  0  -0.642053  0  2.331132  0  0  -0.239727  -0.602339  0  2.354271  0
