# generated using pymatgen
data_CoH17C18(NO)4
_symmetry_space_group_name_H-M   'P 1'
_cell_length_a   10.95487269
_cell_length_b   12.76429458
_cell_length_c   14.38936411
_cell_angle_alpha   90.00016745
_cell_angle_beta   101.69935228
_cell_angle_gamma   90.00048622
_symmetry_Int_Tables_number   1
_chemical_formula_structural   CoH17C18(NO)4
_chemical_formula_sum   'Co4 H68 C72 N16 O16'
_cell_volume   1970.28156428
_cell_formula_units_Z   4
loop_
 _symmetry_equiv_pos_site_id
 _symmetry_equiv_pos_as_xyz
  1  'x, y, z'
loop_
 _atom_site_type_symbol
 _atom_site_label
 _atom_site_symmetry_multiplicity
 _atom_site_fract_x
 _atom_site_fract_y
 _atom_site_fract_z
 _atom_site_occupancy
 _atom_site_pbe_bader_charge
 _atom_site_pbe_bader_spin_density
 _atom_site_pbe_cm5_charge
 _atom_site_pbe_ddec_charge
 _atom_site_pbe_ddec_spin_density
 _atom_site_pbe_ddec_sum_bond_order
 _atom_site_pbe_magmom
Co  Co0  1  0.61019122  0.27264906  0.68778390  1  1.194479  2.555465  0.649884  0.783687  2.776737  2.533918  2.51
Co  Co1  1  0.38980530  0.77264789  0.81221999  1  1.19469  2.555426  0.649912  0.783764  2.776712  2.533931  2.51
Co  Co2  1  0.38980914  0.72735118  0.31222002  1  1.1946  2.555447  0.64989  0.783733  2.776727  2.533883  2.51
Co  Co3  1  0.61018668  0.22734922  0.18778121  1  1.194462  2.555461  0.649922  0.783722  2.77674  2.533932  2.51
H  H4  1  0.21834218  0.93240124  0.66040453  1  0.16112  0.000797  0.12437  0.129246  0.000143  1.009561  0.001
H  H5  1  0.78166819  0.43240808  0.83960406  1  0.161273  0.000796  0.124394  0.129307  0.000143  1.009522  0.001
H  H6  1  0.78166375  0.06759431  0.33960306  1  0.161444  0.000796  0.124352  0.129247  0.000143  1.009499  0.001
H  H7  1  0.21833314  0.56759765  0.16039446  1  0.16127  0.000796  0.124372  0.129222  0.000143  1.009569  0.001
H  H8  1  0.15847603  0.62134831  0.73876769  1  0.180618  0.000397  0.138498  0.108748  -0.000145  1.006263  0.0
H  H9  1  0.84152448  0.12135769  0.76122881  1  0.180762  0.000397  0.138498  0.108732  -0.000145  1.006357  0.0
H  H10  1  0.84152064  0.37864880  0.26123009  1  0.1807  0.000397  0.138524  0.108816  -0.000145  1.006218  0.0
H  H11  1  0.15847688  0.87864804  0.23876693  1  0.180673  0.000397  0.138501  0.108701  -0.000145  1.006346  0.0
H  H12  1  0.98706414  0.86365194  0.55696022  1  0.137327  0.000894  0.130476  0.13309  0.000382  0.981716  0.0
H  H13  1  0.01294737  0.36365193  0.94304489  1  0.137153  0.000894  0.130495  0.133133  0.000382  0.981865  0.0
H  H14  1  0.01294184  0.13635300  0.44304042  1  0.137317  0.000894  0.130485  0.133104  0.000382  0.981707  0.0
H  H15  1  0.98705395  0.63634909  0.05695571  1  0.137196  0.000894  0.130478  0.133111  0.000382  0.981824  0.0
H  H16  1  0.85154946  0.69119235  0.61678300  1  0.087174  0.000163  0.117716  0.101912  7.1e-05  0.973788  0.0
H  H17  1  0.14845368  0.19119313  0.88321409  1  0.08709  0.000163  0.117718  0.101916  7.1e-05  0.973762  0.0
H  H18  1  0.14845189  0.30881025  0.38321343  1  0.087175  0.000163  0.117685  0.101876  7.1e-05  0.97378  0.0
H  H19  1  0.85154672  0.80880868  0.11678428  1  0.087125  0.000163  0.117693  0.101845  7.1e-05  0.973803  0.0
H  H20  1  0.95174826  0.58109658  0.63908117  1  0.095336  8.8e-05  0.115597  0.102483  1.7e-05  0.997877  0.0
H  H21  1  0.04824898  0.08109969  0.86091818  1  0.09535  8.8e-05  0.115599  0.10247  1.7e-05  0.997918  0.0
H  H22  1  0.04825028  0.41890289  0.36091690  1  0.095322  8.8e-05  0.115622  0.10248  1.7e-05  0.997875  0.0
H  H23  1  0.95174861  0.91890369  0.13908044  1  0.095409  8.8e-05  0.115597  0.102449  1.7e-05  0.997876  0.0
H  H24  1  0.38175117  0.98664122  0.54027496  1  0.02397  0.001223  0.100866  0.089319  0.000397  0.964531  0.001
H  H25  1  0.61824770  0.48664256  0.95973054  1  0.024008  0.001223  0.100882  0.089308  0.000397  0.964528  0.001
H  H26  1  0.61825009  0.01336216  0.45973396  1  0.024001  0.001223  0.100885  0.089306  0.000397  0.964481  0.001
H  H27  1  0.38175081  0.51335768  0.04027169  1  0.023972  0.001223  0.100879  0.089311  0.000397  0.964539  0.001
H  H28  1  0.56507024  0.84254781  0.57309853  1  0.074612  0.001026  0.096189  0.118354  0.000374  1.036871  0.001
H  H29  1  0.43492428  0.34254614  0.92690105  1  0.074576  0.001026  0.096209  0.11844  0.000375  1.036803  0.001
H  H30  1  0.43492359  0.15744930  0.42690505  1  0.074641  0.001026  0.096198  0.118395  0.000375  1.036879  0.001
H  H31  1  0.56507424  0.65745098  0.07309979  1  0.074643  0.001026  0.096168  0.118331  0.000375  1.036785  0.001
H  H32  1  0.64764753  0.94239707  0.64299817  1  0.046949  0.000599  0.09944  0.123063  0.000158  1.001173  0.0
H  H33  1  0.35234997  0.44239847  0.85699937  1  0.046811  0.000599  0.099444  0.12307  0.000158  1.001171  0.0
H  H34  1  0.35234817  0.05759691  0.35700501  1  0.046881  0.000599  0.099414  0.123028  0.000158  1.001173  0.0
H  H35  1  0.64764577  0.55759864  0.14299757  1  0.046861  0.000599  0.099459  0.123064  0.000158  1.001155  0.0
H  H36  1  0.66550069  0.51414864  0.64577236  1  0.164004  0.000628  0.142893  0.122814  9.7e-05  0.990286  0.0
H  H37  1  0.33449210  0.01414285  0.85422403  1  0.164068  0.000628  0.142904  0.122794  9.7e-05  0.990374  0.0
H  H38  1  0.33449967  0.48585944  0.35423156  1  0.164144  0.000629  0.142913  0.122834  9.7e-05  0.990327  0.0
H  H39  1  0.66550086  0.98585817  0.14577038  1  0.164091  0.000628  0.142903  0.12281  9.7e-05  0.99027  0.0
H  H40  1  0.68564090  0.65929560  0.53468032  1  0.08339  0.000132  0.118664  0.105887  2.8e-05  0.978691  0.0
H  H41  1  0.31435629  0.15929317  0.96531575  1  0.083575  0.000132  0.118673  0.10589  2.8e-05  0.978705  0.0
H  H42  1  0.31435857  0.34071013  0.46531790  1  0.083622  0.000132  0.118617  0.105828  2.8e-05  0.978732  0.0
H  H43  1  0.68563947  0.84070472  0.03467840  1  0.083426  0.000132  0.118619  0.10583  2.8e-05  0.978678  0.0
H  H44  1  0.60909549  0.64082564  0.41658824  1  0.141173  -3.3e-05  0.117076  0.107048  -0.000134  1.032144  0.0
H  H45  1  0.39090966  0.14082329  0.08341077  1  0.140365  -3.3e-05  0.117069  0.106991  -0.000134  1.03223  0.0
H  H46  1  0.39090302  0.35917931  0.58341261  1  0.140432  -3.3e-05  0.117053  0.107032  -0.000135  1.032177  0.0
H  H47  1  0.60908982  0.85917460  0.91658537  1  0.14109  -3.3e-05  0.117082  0.10705  -0.000134  1.032226  0.0
H  H48  1  0.59222390  0.25602412  0.45955756  1  0.116901  0.000931  0.120709  0.119413  0.000134  1.025578  0.001
H  H49  1  0.40777597  0.75602689  0.04044369  1  0.116951  0.000931  0.120701  0.119378  0.000134  1.025607  0.001
H  H50  1  0.40776711  0.74397769  0.54044905  1  0.116844  0.000931  0.12074  0.119392  0.000134  1.02554  0.001
H  H51  1  0.59222539  0.24397336  0.95955066  1  0.116902  0.000931  0.120676  0.119353  0.000134  1.025563  0.001
H  H52  1  0.62615723  0.43165462  0.35536158  1  0.129079  0.000852  0.128763  0.136583  0.000301  1.009398  0.0
H  H53  1  0.37384832  0.93165591  0.14463753  1  0.129082  0.000852  0.128727  0.136581  0.000301  1.009463  0.0
H  H54  1  0.37383566  0.56834563  0.64464254  1  0.129013  0.000852  0.128764  0.136636  0.000301  1.009323  0.0
H  H55  1  0.62615584  0.06834042  0.85535726  1  0.129112  0.000852  0.128741  0.136618  0.000301  1.009304  0.0
H  H56  1  0.70763591  0.59546410  0.29262730  1  0.088726  0.000113  0.103764  0.105754  -7.4e-05  1.044577  0.0
H  H57  1  0.29236967  0.09546615  0.20737304  1  0.088667  0.000112  0.103748  0.105742  -7.4e-05  1.044595  0.0
H  H58  1  0.29236171  0.40453066  0.70736923  1  0.088813  0.000113  0.103795  0.105834  -7.4e-05  1.044425  0.0
H  H59  1  0.70762793  0.90453488  0.79262557  1  0.088617  0.000113  0.103735  0.105718  -7.4e-05  1.044616  0.0
H  H60  1  0.12106634  0.65327748  0.50045840  1  0.071406  -9e-06  0.097653  0.095021  -6.8e-05  1.050621  0.0
H  H61  1  0.87894101  0.15327459  0.99954343  1  0.071559  -9e-06  0.097607  0.094893  -6.8e-05  1.050693  0.0
H  H62  1  0.87893592  0.34672277  0.49954096  1  0.071427  -9e-06  0.097655  0.094992  -6.8e-05  1.050636  0.0
H  H63  1  0.12106033  0.84672174  0.00045439  1  0.071487  -9e-06  0.097607  0.094874  -6.8e-05  1.050693  0.0
H  H64  1  0.89778567  0.59574202  0.22303990  1  0.016899  4.7e-05  0.094203  0.087376  1.9e-05  1.028694  0.0
H  H65  1  0.10221897  0.09574838  0.27696238  1  0.017096  4.7e-05  0.094202  0.087391  1.9e-05  1.02869  0.0
H  H66  1  0.10221377  0.40424961  0.77696248  1  0.016862  4.7e-05  0.094213  0.087394  1.9e-05  1.028724  0.0
H  H67  1  0.89778237  0.90425186  0.72303544  1  0.016858  4.7e-05  0.094172  0.087335  1.9e-05  1.02873  0.0
H  H68  1  0.10599412  0.62518236  0.32923844  1  0.074705  1e-06  0.09553  0.089157  -0.000158  1.065579  0.0
H  H69  1  0.89401179  0.12518634  0.17075995  1  0.074792  1e-06  0.095523  0.089089  -0.000158  1.065616  0.0
H  H70  1  0.89400535  0.37481161  0.67075839  1  0.074554  1e-06  0.095502  0.089118  -0.000158  1.065555  0.0
H  H71  1  0.10599050  0.87480999  0.82923524  1  0.07471  1e-06  0.095525  0.089115  -0.000158  1.065572  0.0
C  C72  1  0.49167239  0.88427194  0.69515803  1  1.538323  -8e-06  0.190835  0.599482  -0.000911  4.178416  -0.002
C  C73  1  0.50832907  0.38427197  0.80484901  1  1.538374  -9e-06  0.190856  0.599289  -0.000911  4.178717  -0.002
C  C74  1  0.50832609  0.11572752  0.30484906  1  1.538558  -9e-06  0.190848  0.599198  -0.000911  4.178741  -0.002
C  C75  1  0.49167408  0.61572279  0.19515535  1  1.538855  -9e-06  0.190776  0.599301  -0.00091  4.178581  -0.002
C  C76  1  0.17017246  0.85835153  0.66140507  1  0.381632  -0.000554  0.000378  -0.034123  -0.001355  3.997832  0.0
C  C77  1  0.82983992  0.35836029  0.83860086  1  0.381642  -0.000553  0.000353  -0.034079  -0.001355  3.997919  0.0
C  C78  1  0.82983069  0.14164479  0.33859998  1  0.381452  -0.000553  0.000396  -0.034117  -0.001355  3.997875  0.0
C  C79  1  0.17016514  0.64164543  0.16139755  1  0.381671  -0.000553  0.000347  -0.034025  -0.001355  3.99789  0.0
C  C80  1  0.14411486  0.69738688  0.70457733  1  0.940167  0.000909  0.146814  0.09315  0.000519  3.903956  0.001
C  C81  1  0.85588834  0.19739490  0.79542117  1  0.940939  0.000907  0.146778  0.093025  0.00052  3.904218  0.001
C  C82  1  0.85587902  0.30260867  0.29542000  1  0.940182  0.000908  0.146662  0.092894  0.000519  3.904015  0.001
C  C83  1  0.14411394  0.80261083  0.20457540  1  0.940863  0.000906  0.146824  0.093212  0.000518  3.904124  0.001
C  C84  1  0.05666189  0.82566454  0.61062476  1  0.27397  0.005254  0.001904  -0.113992  0.002726  3.944423  0.003
C  C85  1  0.94334829  0.32566803  0.88937657  1  0.274044  0.005253  0.001884  -0.114088  0.002725  3.945074  0.003
C  C86  1  0.94334131  0.17433413  0.38937266  1  0.273895  0.005253  0.001869  -0.114054  0.002725  3.944664  0.003
C  C87  1  0.05665491  0.67433456  0.11062154  1  0.274073  0.005252  0.001859  -0.114138  0.002725  3.94484  0.003
C  C88  1  0.93622918  0.65586674  0.60049949  1  0.290289  0.001089  -0.040317  -0.101119  0.000607  3.899588  0.001
C  C89  1  0.06377451  0.15586932  0.89949690  1  0.290332  0.001089  -0.040271  -0.100938  0.000607  3.899491  0.001
C  C90  1  0.06376937  0.34413507  0.39949650  1  0.289892  0.001089  -0.040301  -0.100989  0.000607  3.89953  0.001
C  C91  1  0.93622684  0.84413171  0.10049883  1  0.290268  0.001089  -0.040276  -0.100906  0.000607  3.899412  0.001
C  C92  1  0.48296433  0.99917579  0.55013202  1  0.051158  0.005391  -0.082364  -0.093307  0.002947  3.824102  0.004
C  C93  1  0.51703562  0.49917793  0.94987161  1  0.026267  0.005411  -0.082329  -0.093156  0.002947  3.824112  0.004
C  C94  1  0.51703603  0.00082289  0.44987259  1  0.02629  0.005411  -0.082343  -0.093202  0.002947  3.823955  0.004
C  C95  1  0.48296290  0.50082545  0.05012924  1  0.051267  0.005391  -0.082368  -0.093291  0.002947  3.824105  0.004
C  C96  1  0.55310007  0.91320195  0.61350432  1  -0.053918  0.004629  -0.175182  -0.33364  0.002686  3.932794  0.003
C  C97  1  0.44689706  0.41320337  0.88649934  1  -0.05383  0.004628  -0.175196  -0.333787  0.002685  3.933129  0.003
C  C98  1  0.44689469  0.08679594  0.38649871  1  -0.053985  0.004628  -0.175173  -0.333651  0.002685  3.933079  0.003
C  C99  1  0.55310052  0.58679531  0.11350206  1  -0.053892  0.004628  -0.175111  -0.333513  0.002685  3.932834  0.003
C  C100  1  0.65486882  0.46636442  0.58228721  1  0.96372  0.002365  0.14101  0.081426  0.001047  3.915668  0.002
C  C101  1  0.34513173  0.96636327  0.91771226  1  0.96369  0.002365  0.140991  0.081422  0.001047  3.915615  0.002
C  C102  1  0.34513434  0.53364131  0.41771646  1  0.963786  0.002364  0.14106  0.081484  0.001046  3.91551  0.002
C  C103  1  0.65486682  0.03363620  0.08228442  1  0.963733  0.002366  0.141089  0.081597  0.001047  3.91551  0.002
C  C104  1  0.50899392  0.10687126  0.59659643  1  1.529298  0.00125  0.199683  0.587307  0.000574  4.129118  -0.001
C  C105  1  0.49101197  0.60687348  0.90340783  1  1.529425  0.001252  0.199635  0.587221  0.000576  4.129129  -0.001
C  C106  1  0.49101204  0.89312585  0.40340837  1  1.529312  0.001251  0.1997  0.587258  0.000576  4.129053  -0.001
C  C107  1  0.50898840  0.39312755  0.09659540  1  1.529396  0.001251  0.199669  0.587268  0.000575  4.12898  -0.001
C  C108  1  0.92314619  0.63800811  0.49484423  1  -0.07711  0.00037  -0.011308  0.038197  0.000194  3.933904  0.0
C  C109  1  0.07685987  0.13801183  0.00515422  1  -0.076533  0.00037  -0.011302  0.038068  0.000194  3.933966  0.0
C  C110  1  0.07685512  0.36199135  0.50515706  1  -0.076718  0.000369  -0.011334  0.038072  0.000194  3.933989  0.0
C  C111  1  0.92314336  0.86198528  0.99484043  1  -0.077076  0.00037  -0.011307  0.038081  0.000194  3.9339  0.0
C  C112  1  0.80617041  0.61976059  0.43564210  1  0.01725  0.000258  -0.007803  0.05377  0.000115  3.916847  0.0
C  C113  1  0.19383730  0.11976302  0.06435864  1  0.017017  0.000258  -0.007726  0.053932  0.000115  3.91672  0.0
C  C114  1  0.19382811  0.38023808  0.56435805  1  0.017355  0.000258  -0.007747  0.053805  0.000115  3.916909  0.0
C  C115  1  0.80616777  0.88023801  0.93563977  1  0.017322  0.000258  -0.007761  0.053826  0.000115  3.916825  0.0
C  C116  1  0.68604934  0.61186162  0.47130204  1  0.253045  0.001125  -0.046667  -0.109494  0.000626  3.873542  0.001
C  C117  1  0.31395643  0.11186010  0.02869630  1  0.253627  0.001125  -0.046809  -0.109635  0.000626  3.873857  0.001
C  C118  1  0.31395105  0.38814254  0.52869702  1  0.253464  0.001125  -0.046702  -0.109594  0.000626  3.873683  0.001
C  C119  1  0.68604586  0.88813779  0.97129958  1  0.253057  0.001125  -0.046651  -0.10948  0.000626  3.873586  0.001
C  C120  1  0.61542814  0.33509560  0.48360248  1  0.406244  0.002264  0.000182  -0.023588  0.001005  3.982276  0.002
C  C121  1  0.38457169  0.83509498  0.01639618  1  0.40617  0.002264  0.000205  -0.023446  0.001005  3.982236  0.002
C  C122  1  0.38456571  0.66490778  0.51639833  1  0.406452  0.002263  0.000232  -0.023397  0.001004  3.98227  0.002
C  C123  1  0.61542498  0.16490135  0.98360090  1  0.406476  0.002264  0.000293  -0.02338  0.001004  3.982204  0.002
C  C124  1  0.63341770  0.42135416  0.43103087  1  0.318363  0.002459  0.003097  -0.106066  0.001236  3.905176  0.002
C  C125  1  0.36658773  0.92135280  0.06897029  1  0.318299  0.00246  0.003099  -0.106187  0.001237  3.905115  0.002
C  C126  1  0.36657519  0.57864922  0.56897326  1  0.318299  0.002459  0.002993  -0.106304  0.001236  3.905058  0.002
C  C127  1  0.63341455  0.07864274  0.93102629  1  0.318279  0.002459  0.003072  -0.106126  0.001236  3.904913  0.002
C  C128  1  0.79910998  0.60560921  0.33811924  1  -0.070884  0.000294  -0.088405  -0.120771  0.000122  3.969119  0.0
C  C129  1  0.20089476  0.10561357  0.16188309  1  -0.070687  0.000294  -0.088371  -0.120741  0.000122  3.969166  0.0
C  C130  1  0.20088388  0.39438946  0.66188087  1  -0.071036  0.000294  -0.088369  -0.120715  0.000122  3.969158  0.0
C  C131  1  0.79910658  0.89439059  0.83811473  1  -0.07079  0.000294  -0.088379  -0.120683  0.000122  3.969208  0.0
C  C132  1  0.02994270  0.63918385  0.45516162  1  -0.049952  0.000107  -0.097147  -0.136131  3.7e-05  3.991139  0.0
C  C133  1  0.97006430  0.13918640  0.04483768  1  -0.050544  0.000107  -0.097121  -0.136082  3.7e-05  3.991164  0.0
C  C134  1  0.97005863  0.36081483  0.54483759  1  -0.049929  0.000107  -0.0972  -0.136142  3.7e-05  3.991206  0.0
C  C135  1  0.02994078  0.86081463  0.95515796  1  -0.049974  0.000107  -0.097147  -0.136054  3.7e-05  3.991281  0.0
C  C136  1  0.90540971  0.60684423  0.29917610  1  0.01603  0.000103  -0.101007  -0.098121  5.2e-05  4.048601  0.0
C  C137  1  0.09459227  0.10684951  0.20082301  1  0.015401  0.000103  -0.100988  -0.098222  5.2e-05  4.048898  0.0
C  C138  1  0.09458508  0.39315053  0.70082415  1  0.015794  0.000103  -0.101054  -0.098255  5.2e-05  4.048756  0.0
C  C139  1  0.90540721  0.89315152  0.79917382  1  0.015902  0.000103  -0.10098  -0.098167  5.2e-05  4.048916  0.0
C  C140  1  0.02170835  0.62329481  0.35828480  1  -0.065355  0.000198  -0.09971  -0.087622  6.5e-05  4.035991  0.0
C  C141  1  0.97829846  0.12329774  0.14171582  1  -0.065112  0.000198  -0.099732  -0.087416  6.5e-05  4.035971  0.0
C  C142  1  0.97828924  0.37670230  0.64171451  1  -0.065097  0.000198  -0.099677  -0.087508  6.5e-05  4.035823  0.0
C  C143  1  0.02170568  0.87670564  0.85828175  1  -0.065347  0.000198  -0.099688  -0.087483  6.5e-05  4.03603  0.0
N  N144  1  0.22374864  0.77754203  0.71993627  1  -1.213812  0.058901  -0.360331  -0.303264  0.031371  3.653305  0.042
N  N145  1  0.77625726  0.27755021  0.78006704  1  -1.214563  0.058901  -0.360299  -0.303166  0.03137  3.653151  0.042
N  N146  1  0.77624985  0.22245429  0.28006736  1  -1.213997  0.058898  -0.360222  -0.303022  0.03137  3.653085  0.042
N  N147  1  0.22374407  0.72245630  0.21993147  1  -1.214452  0.058899  -0.360261  -0.303281  0.031369  3.653282  0.042
N  N148  1  0.04136079  0.72379678  0.63891237  1  -1.239007  0.00238  -0.242869  0.043816  0.000767  3.794143  0.001
N  N149  1  0.95864455  0.22380186  0.86108724  1  -1.239346  0.00238  -0.242921  0.043678  0.000768  3.794346  0.001
N  N150  1  0.95864054  0.27620268  0.36108614  1  -1.238961  0.00238  -0.24281  0.043844  0.000768  3.794234  0.001
N  N151  1  0.04135586  0.77620152  0.13890974  1  -1.239255  0.00238  -0.242859  0.043829  0.000767  3.794134  0.001
N  N152  1  0.65878049  0.50352028  0.49469635  1  -1.221796  0.00475  -0.239704  0.047395  0.00214  3.768222  0.004
N  N153  1  0.34122034  0.00351810  0.00530370  1  -1.221463  0.00475  -0.239604  0.04756  0.00214  3.768237  0.004
N  N154  1  0.34121895  0.49648545  0.50530603  1  -1.221565  0.004749  -0.239643  0.047549  0.00214  3.768133  0.004
N  N155  1  0.65878100  0.99647901  0.99469342  1  -1.221917  0.00475  -0.239771  0.047254  0.00214  3.768241  0.004
N  N156  1  0.62840045  0.36397714  0.57785597  1  -1.229168  0.058387  -0.367033  -0.32028  0.031016  3.682938  0.037
N  N157  1  0.37159803  0.86397385  0.92214499  1  -1.22925  0.058394  -0.36705  -0.320323  0.03102  3.683023  0.037
N  N158  1  0.37159338  0.63602859  0.42214761  1  -1.229451  0.058389  -0.367105  -0.320409  0.031016  3.683103  0.037
N  N159  1  0.62839958  0.13602326  0.07785223  1  -1.229342  0.058385  -0.3671  -0.32045  0.031015  3.683231  0.037
O  O160  1  0.50844835  0.78912775  0.72661787  1  -1.136811  0.098886  -0.336349  -0.547831  0.050562  2.279654  0.077
O  O161  1  0.49155575  0.28912128  0.77339422  1  -1.136543  0.098876  -0.336373  -0.547742  0.050559  2.279599  0.077
O  O162  1  0.49155380  0.21087877  0.27339606  1  -1.136562  0.09888  -0.336366  -0.547697  0.05056  2.279591  0.077
O  O163  1  0.50844828  0.71086878  0.22661792  1  -1.13704  0.098887  -0.336321  -0.547746  0.050565  2.279529  0.077
O  O164  1  0.61938021  0.12325965  0.64826167  1  -1.156585  0.098859  -0.342591  -0.563061  0.050556  2.255453  0.078
O  O165  1  0.38063055  0.62326403  0.85173854  1  -1.156782  0.098866  -0.342566  -0.562959  0.050558  2.255567  0.078
O  O166  1  0.38063324  0.87673354  0.35173946  1  -1.156712  0.098859  -0.342564  -0.562954  0.050555  2.25567  0.078
O  O167  1  0.61937451  0.37673700  0.14825987  1  -1.156791  0.09886  -0.342595  -0.563049  0.050557  2.255505  0.078
O  O168  1  0.42860972  0.17816435  0.58136839  1  -1.153763  0.044393  -0.317654  -0.551411  0.021987  2.157446  0.037
O  O169  1  0.57139791  0.67816956  0.91863285  1  -1.153811  0.044396  -0.317635  -0.551473  0.021988  2.157458  0.037
O  O170  1  0.57140560  0.82183511  0.41863094  1  -1.153731  0.044401  -0.317702  -0.55149  0.021991  2.157307  0.037
O  O171  1  0.42859871  0.32183774  0.08137326  1  -1.153724  0.044393  -0.317681  -0.551442  0.021986  2.157371  0.037
O  O172  1  0.42701089  0.94922874  0.73016037  1  -1.186995  0.042637  -0.319791  -0.559743  0.021038  2.12939  0.036
O  O173  1  0.57298942  0.44923226  0.76984666  1  -1.186925  0.042634  -0.319772  -0.559599  0.021036  2.129422  0.036
O  O174  1  0.57298666  0.05077150  0.26984449  1  -1.187088  0.042636  -0.319751  -0.559555  0.021037  2.129408  0.036
O  O175  1  0.42700815  0.55076798  0.23015613  1  -1.187072  0.042633  -0.319807  -0.559686  0.021036  2.129464  0.036
