# generated using pymatgen
data_SnH22(C14O)2
_symmetry_space_group_name_H-M   'P 1'
_cell_length_a   9.92520410
_cell_length_b   10.40908920
_cell_length_c   10.98100000
_cell_angle_alpha   90.00000000
_cell_angle_beta   102.95640392
_cell_angle_gamma   90.00000000
_symmetry_Int_Tables_number   1
_chemical_formula_structural   SnH22(C14O)2
_chemical_formula_sum   'Sn2 H44 C56 O4'
_cell_volume   1105.59014601
_cell_formula_units_Z   2
loop_
 _symmetry_equiv_pos_site_id
 _symmetry_equiv_pos_as_xyz
  1  'x, y, z'
loop_
 _atom_site_type_symbol
 _atom_site_label
 _atom_site_symmetry_multiplicity
 _atom_site_fract_x
 _atom_site_fract_y
 _atom_site_fract_z
 _atom_site_occupancy
 _atom_site_pbe_bader_charge
 _atom_site_pbe_bader_spin_density
 _atom_site_pbe_cm5_charge
 _atom_site_pbe_ddec_charge
 _atom_site_pbe_ddec_spin_density
 _atom_site_pbe_ddec_sum_bond_order
 _atom_site_pbe_magmom
Sn  Sn0  1  0.42957688  0.25821471  0.01551941  1  1.697644  0  0.537273  1.074085  0  3.353288  0
Sn  Sn1  1  0.57042335  0.75821427  0.98448665  1  1.697706  0  0.537284  1.074156  0  3.353181  0
H  H2  1  0.65863720  0.39083343  0.12433407  1  0.106337  0  0.08475  0.171258  0  1.078501  0
H  H3  1  0.34136096  0.89083298  0.87566519  1  0.106344  0  0.084772  0.171292  0  1.078489  0
H  H4  1  0.70341768  0.26818581  0.02587047  1  0.044277  0  0.084629  0.162388  0  1.051588  0
H  H5  1  0.29657945  0.76818537  0.97412767  1  0.044219  0  0.084615  0.162387  0  1.051565  0
H  H6  1  0.67735104  0.22755785  0.17797531  1  0.068076  0  0.085551  0.170344  0  1.038776  0
H  H7  1  0.32265022  0.72755741  0.82202367  1  0.068064  0  0.085555  0.170345  0  1.038791  0
H  H8  1  0.58555488  0.10254980  0.83396963  1  0.060707  0  0.096272  0.086995  0  1.032611  0
H  H9  1  0.41444328  0.60254455  0.16603237  1  0.060765  0  0.096315  0.086996  0  1.032605  0
H  H10  1  0.51646118  0.98120208  0.63724656  1  0.075075  0  0.095695  0.092255  0  1.026311  0
H  H11  1  0.48354835  0.48119868  0.36275865  1  0.075231  0  0.095663  0.092181  0  1.026238  0
H  H12  1  0.26747948  0.95819142  0.53340215  1  0.079107  0  0.094336  0.089302  0  1.042657  0
H  H13  1  0.73253006  0.45819187  0.46660124  1  0.078875  0  0.094344  0.08928  0  1.042662  0
H  H14  1  0.08841131  0.05800411  0.62850050  1  0.042937  0  0.09365  0.082227  0  1.054609  0
H  H15  1  0.91159408  0.55800848  0.37150205  1  0.04322  0  0.093664  0.082243  0  1.054737  0
H  H16  1  0.15624060  0.18154326  0.82582062  1  0.047358  0  0.093868  0.083527  0  1.037978  0
H  H17  1  0.84376066  0.68154954  0.17418382  1  0.047342  0  0.093865  0.083531  0  1.038025  0
H  H18  1  0.25765577  0.52409485  0.00325090  1  0.054531  0  0.096233  0.092711  0  1.048981  0
H  H19  1  0.74234756  0.02409433  0.99674486  1  0.054609  0  0.096216  0.092731  0  1.049003  0
H  H20  1  0.03779368  0.59226411  0.05437239  1  0.084274  0  0.092738  0.084661  0  1.052194  0
H  H21  1  0.96220759  0.09225879  0.94561566  1  0.084273  0  0.092792  0.084733  0  1.052208  0
H  H22  1  0.89254320  0.43379204  0.13624985  1  0.070584  0  0.093964  0.088129  0  1.054404  0
H  H23  1  0.10744876  0.93378295  0.86373450  1  0.070645  0  0.093943  0.087991  0  1.054545  0
H  H24  1  0.96950351  0.20596423  0.16768795  1  0.060687  0  0.099354  0.095782  0  0.995154  0
H  H25  1  0.03048741  0.70595514  0.83230347  1  0.061242  0  0.099412  0.095833  0  0.995173  0
H  H26  1  0.19339742  0.13963566  0.12506714  1  0.095938  0  0.096133  0.089395  0  1.054065  0
H  H27  1  0.80659454  0.63963041  0.87493450  1  0.095929  0  0.09611  0.089388  0  1.054089  0
H  H28  1  0.24195872  0.92644993  0.13345206  1  0.062297  0  0.099324  0.1013  0  1.033375  0
H  H29  1  0.75803531  0.42644942  0.86655821  1  0.062258  0  0.099295  0.101259  0  1.033344  0
H  H30  1  0.03795392  0.82261952  0.18014569  1  0.040074  0  0.097246  0.095267  0  1.024315  0
H  H31  1  0.96204320  0.32261516  0.81987248  1  0.039954  0  0.097216  0.095319  0  1.024269  0
H  H32  1  0.05828575  0.69177042  0.37503368  1  0.055774  0  0.09644  0.094153  0  1.043591  0
H  H33  1  0.94171654  0.19176990  0.62497917  1  0.055845  0  0.096459  0.094154  0  1.043577  0
H  H34  1  0.28513775  0.66431076  0.52114693  1  0.07752  0  0.0979  0.09847  0  1.028658  0
H  H35  1  0.71486661  0.16431697  0.47886269  1  0.076998  0  0.097896  0.098449  0  1.028607  0
H  H36  1  0.53342161  0.71360903  0.58215071  1  0.076799  0  0.106362  0.115199  0  0.997749  0
H  H37  1  0.46658172  0.21361043  0.41785415  1  0.076805  0  0.106343  0.115207  0  0.997666  0
H  H38  1  0.78031286  0.75918842  0.64317826  1  0.074568  0  0.099798  0.103549  0  1.028002  0
H  H39  1  0.21968944  0.25919078  0.35682275  1  0.074583  0  0.099801  0.103557  0  1.028036  0
H  H40  1  0.99221735  0.85321970  0.59660569  1  0.076592  0  0.098174  0.093675  0  1.021805  0
H  H41  1  0.00778494  0.35322015  0.40339441  1  0.076632  0  0.098177  0.093707  0  1.02177  0
H  H42  1  0.97892815  0.97546671  0.39799966  1  0.035319  0  0.099505  0.098081  0  1.004049  0
H  H43  1  0.02107001  0.47547003  0.60199960  1  0.035298  0  0.099491  0.098062  0  1.00404  0
H  H44  1  0.75681432  0.00329712  0.24786528  1  0.061941  0  0.098762  0.099032  0  1.036078  0
H  H45  1  0.24318384  0.50330532  0.75213308  1  0.061879  0  0.098742  0.099046  0  1.03605  0
C  C46  1  0.64424487  0.28997830  0.09654721  1  -0.498786  0  -0.329622  -0.703976  0  3.715193  0
C  C47  1  0.35575329  0.78997786  0.90345297  1  -0.49875  0  -0.32964  -0.704022  0  3.715126  0
C  C48  1  0.37572844  0.15005347  0.84506678  1  -0.334795  0  -0.106202  -0.264307  0  3.973644  0
C  C49  1  0.62427489  0.65005207  0.15493536  1  -0.334762  0  -0.106234  -0.264372  0  3.973683  0
C  C50  1  0.47593916  0.09334630  0.79040796  1  -0.030839  0  -0.091091  -0.06619  0  4.055965  0
C  C51  1  0.52406520  0.59334106  0.20959256  1  -0.030602  0  -0.091208  -0.066217  0  4.05604  0
C  C52  1  0.43740421  0.02438638  0.67892969  1  -0.02578  0  -0.089921  -0.07292  0  3.975209  0
C  C53  1  0.56260222  0.52438306  0.32106760  1  -0.026069  0  -0.089789  -0.072749  0  3.97516  0
C  C54  1  0.29772910  0.01155913  0.62060416  1  -0.118646  0  -0.093476  -0.077653  0  3.991583  0
C  C55  1  0.70227837  0.51155869  0.37939881  1  -0.118451  0  -0.093501  -0.07761  0  3.991536  0
C  C56  1  0.19733228  0.06813757  0.67386656  1  -0.04038  0  -0.097116  -0.088824  0  4.011956  0
C  C57  1  0.80267518  0.56813808  0.32613550  1  -0.040962  0  -0.097143  -0.088912  0  4.012039  0
C  C58  1  0.23595718  0.13728675  0.78540767  1  -0.102966  0  -0.097262  -0.078321  0  4.067004  0
C  C59  1  0.76404512  0.63728727  0.21459425  1  -0.102846  0  -0.097244  -0.078309  0  4.066921  0
C  C60  1  0.24287885  0.32728800  0.06223337  1  -0.34184  0  -0.101639  -0.241372  0  3.920256  0
C  C61  1  0.75711931  0.82728468  0.93776680  1  -0.341906  0  -0.101659  -0.241446  0  3.920247  0
C  C62  1  0.19623536  0.45432986  0.04130932  1  -0.030449  0  -0.096712  -0.075442  0  4.043726  0
C  C63  1  0.80376177  0.95432749  0.95868609  1  -0.030401  0  -0.096671  -0.075426  0  4.043724  0
C  C64  1  0.07125239  0.49255895  0.06870320  1  -0.092964  0  -0.094827  -0.079172  0  3.989095  0
C  C65  1  0.92874370  0.99255370  0.93128472  1  -0.092744  0  -0.094869  -0.079269  0  3.989097  0
C  C66  1  0.98945178  0.40367893  0.11430223  1  -0.012774  0  -0.094056  -0.079509  0  3.998145  0
C  C67  1  0.01054017  0.90367176  0.88568485  1  -0.013338  0  -0.094011  -0.079259  0  3.997808  0
C  C68  1  0.03292421  0.27627297  0.13225818  1  -0.067645  0  -0.093143  -0.08411  0  4.008753  0
C  C69  1  0.96706775  0.77626484  0.86773163  1  -0.068033  0  -0.093212  -0.084184  0  4.008591  0
C  C70  1  0.15923982  0.23868275  0.10738189  1  -0.150749  0  -0.09807  -0.083857  0  4.064899  0
C  C71  1  0.84075524  0.73867558  0.89261584  1  -0.150663  0  -0.098093  -0.083885  0  4.064847  0
C  C72  1  0.49555970  0.99571248  0.16195081  1  1.550234  0  0.235837  0.592433  0  4.167096  0
C  C73  1  0.50443743  0.49571580  0.83805279  1  1.549992  0  0.235734  0.592275  0  4.167289  0
C  C74  1  0.50539478  0.91505605  0.27666225  1  0.005028  0  -0.014526  -0.14598  0  3.940425  0
C  C75  1  0.49460235  0.41506129  0.72334045  1  0.005244  0  -0.014497  -0.145808  0  3.940373  0
C  C76  1  0.38507657  0.85935569  0.30212011  1  -0.035137  0  -0.003534  0.057741  0  3.981431  0
C  C77  1  0.61491952  0.35935997  0.69788329  1  -0.035249  0  -0.00357  0.057666  0  3.981656  0
C  C78  1  0.25235622  0.87098014  0.21922182  1  -0.057927  0  -0.097656  -0.144821  0  3.989473  0
C  C79  1  0.74764091  0.37098058  0.78078543  1  -0.05806  0  -0.097571  -0.144632  0  3.989237  0
C  C80  1  0.13811399  0.81196729  0.24507956  1  -0.023582  0  -0.092976  -0.083299  0  4.028264  0
C  C81  1  0.86188417  0.31196582  0.75493245  1  -0.023573  0  -0.093003  -0.083465  0  4.028181  0
C  C82  1  0.14982965  0.73695977  0.35523812  1  -0.059459  0  -0.096253  -0.089696  0  4.025566  0
C  C83  1  0.85017367  0.23695925  0.64477585  1  -0.059151  0  -0.096233  -0.089635  0  4.025657  0
C  C84  1  0.27565418  0.72248204  0.43691653  1  -0.033702  0  -0.088109  -0.123096  0  3.965625  0
C  C85  1  0.72434604  0.22248248  0.56309499  1  -0.033234  0  -0.088181  -0.123127  0  3.965772  0
C  C86  1  0.39651413  0.78318668  0.41403271  1  -0.021572  0  -0.006641  0.071769  0  4.017232  0
C  C87  1  0.60348610  0.28318808  0.58597426  1  -0.021669  0  -0.006569  0.071722  0  4.017486  0
C  C88  1  0.52532754  0.77010100  0.49688599  1  -0.037091  0  -0.075471  -0.163809  0  3.922655  0
C  C89  1  0.47467475  0.27010432  0.50311684  1  -0.036135  0  -0.075457  -0.163791  0  3.922659  0
C  C90  1  0.64468840  0.82616546  0.47221764  1  0.013861  0  -0.00373  0.077669  0  4.006874  0
C  C91  1  0.35531390  0.32616879  0.52778429  1  0.013  0  -0.003665  0.07778  0  4.007121  0
C  C92  1  0.77567291  0.81200572  0.55664376  1  -0.114937  0  -0.085607  -0.117142  0  3.960067  0
C  C93  1  0.22432939  0.31200713  0.44335817  1  -0.114887  0  -0.085645  -0.117221  0  3.960343  0
C  C94  1  0.89288954  0.86489796  0.53088428  1  0.0453  0  -0.096239  -0.093653  0  4.034617  0
C  C95  1  0.10711275  0.36489840  0.46911764  1  0.045336  0  -0.096279  -0.093721  0  4.034603  0
C  C96  1  0.88503120  0.93516539  0.41853137  1  -0.067285  0  -0.091936  -0.079224  0  4.023897  0
C  C97  1  0.11496800  0.43516487  0.58147084  1  -0.06717  0  -0.091911  -0.079179  0  4.023844  0
C  C98  1  0.76055068  0.95152129  0.33482863  1  -0.077477  0  -0.095987  -0.144846  0  3.990076  0
C  C99  1  0.23944955  0.45152558  0.66517196  1  -0.077879  0  -0.095941  -0.144822  0  3.990237  0
C  C100  1  0.63596885  0.89847246  0.35833877  1  -0.015239  0  -0.001894  0.059901  0  3.973289  0
C  C101  1  0.36402828  0.39847675  0.64166120  1  -0.015021  0  -0.001929  0.059781  0  3.973574  0
O  O102  1  0.42906615  0.10147189  0.15892378  1  -1.176808  0  -0.271071  -0.513319  0  2.294692  0
O  O103  1  0.57093201  0.60147530  0.84107730  1  -1.176578  0  -0.271061  -0.513325  0  2.294721  0
O  O104  1  0.55433343  0.96076418  0.07595507  1  -1.194042  0  -0.269012  -0.526785  0  2.310956  0
O  O105  1  0.44566886  0.46076846  0.92405141  1  -1.194119  0  -0.268935  -0.52666  0  2.310974  0
