# generated using pymatgen
data_ZnH5C17NO4F5
_symmetry_space_group_name_H-M   'P 1'
_cell_length_a   11.12938817
_cell_length_b   16.60816104
_cell_length_c   17.85082858
_cell_angle_alpha   90.40044990
_cell_angle_beta   91.72613608
_cell_angle_gamma   89.77149484
_symmetry_Int_Tables_number   1
_chemical_formula_structural   ZnH5C17NO4F5
_chemical_formula_sum   'Zn2 H10 C34 N2 O8 F10'
_cell_volume   3297.92207898
_cell_formula_units_Z   2
loop_
 _symmetry_equiv_pos_site_id
 _symmetry_equiv_pos_as_xyz
  1  'x, y, z'
loop_
 _atom_site_type_symbol
 _atom_site_label
 _atom_site_symmetry_multiplicity
 _atom_site_fract_x
 _atom_site_fract_y
 _atom_site_fract_z
 _atom_site_occupancy
 _atom_site_pbe_bader_charge
 _atom_site_pbe_bader_spin_density
 _atom_site_pbe_cm5_charge
 _atom_site_pbe_ddec_charge
 _atom_site_pbe_ddec_spin_density
 _atom_site_pbe_ddec_sum_bond_order
 _atom_site_pbe_magmom
Zn  Zn0  1  0.49151610  0.41772874  0.50050377  1  1.283352  0  0.663976  0.813217  0  2.439036  0
Zn  Zn1  1  0.49046851  0.58283807  0.49889114  1  1.300172  0  0.665936  0.857569  0  2.37399  0
H  H2  1  0.87862045  0.61794503  0.48533508  1  0.084428  0  0.107072  0.106144  0  0.984129  0
H  H3  1  0.10104837  0.61923976  0.51149895  1  0.112952  0  0.107488  0.106573  0  0.982831  0
H  H4  1  0.89806408  0.44003487  0.53149689  1  0.084424  0  0.105077  0.1208  0  0.995133  0
H  H5  1  0.08599975  0.43927397  0.47009931  1  0.090634  0  0.105311  0.121402  0  0.994731  0
H  H6  1  0.56526998  0.36384735  0.86955751  1  0.051463  0  0.109082  0.116226  0  0.98391  0
H  H7  1  0.56437632  0.36275112  0.12889847  1  0.085229  0  0.109181  0.116884  0  0.984455  0
H  H8  1  0.52763606  0.37292090  0.73098413  1  0.100783  0  0.10632  0.115255  0  0.998834  0
H  H9  1  0.53791359  0.37129027  0.26743479  1  0.108276  0  0.107044  0.117049  0  0.99645  0
H  H10  1  0.35722987  0.28748020  0.41818073  1  0.173081  0  0.14272  0.14594  0  0.95282  0
H  H11  1  0.63020158  0.29118375  0.58315996  1  0.157614  0  0.141672  0.145504  0  0.957859  0
C  C12  1  0.50944743  0.50019689  0.35429770  1  1.594991  0  0.213798  0.610395  0  4.164183  0
C  C13  1  0.49513439  0.50236420  0.64582722  1  1.604282  0  0.213746  0.611434  0  4.166562  0
C  C14  1  0.25829095  0.49950887  0.49032238  1  1.494721  0  0.207728  0.637052  0  4.175941  0
C  C15  1  0.72456505  0.49865047  0.50932060  1  1.498633  0  0.204879  0.631521  0  4.180521  0
C  C16  1  0.92547096  0.56154922  0.49851390  1  -0.072584  0  -0.071805  -0.023641  0  3.988511  0
C  C17  1  0.05578651  0.56198114  0.49987710  1  -0.076355  0  -0.070956  -0.022672  0  3.987443  0
C  C18  1  0.85750224  0.49705163  0.51405528  1  0.032496  0  -0.092004  -0.224866  0  3.887335  0
C  C19  1  0.12535591  0.49721522  0.48595854  1  0.030153  0  -0.091936  -0.226255  0  3.885936  0
C  C20  1  0.55195599  0.42192791  0.84254265  1  0.066492  0  -0.087342  -0.127676  0  3.984652  0
C  C21  1  0.55684016  0.42082411  0.15709907  1  0.016812  0  -0.088004  -0.130533  0  3.988405  0
C  C22  1  0.53157768  0.42698415  0.76579228  1  -0.042107  0  -0.088212  -0.090236  0  4.021168  0
C  C23  1  0.54175671  0.42553052  0.23371268  1  -0.043829  0  -0.087928  -0.08906  0  4.019928  0
C  C24  1  0.51422602  0.50122242  0.72943334  1  0.036334  0  -0.019544  -0.116942  0  3.959352  0
C  C25  1  0.52955700  0.49968217  0.27144892  1  0.033044  0  -0.02036  -0.11781  0  3.955358  0
C  C26  1  0.51834569  0.57113022  0.77389875  1  0.520014  0  0.101578  0.170216  0  4.05488  0
C  C27  1  0.53617221  0.56993548  0.22864984  1  0.556602  0  0.102085  0.171958  0  4.052347  0
C  C28  1  0.53804647  0.56648861  0.85130548  1  0.562849  0  0.0992  0.130971  0  4.028834  0
C  C29  1  0.55211907  0.56567806  0.15149271  1  0.503956  0  0.098726  0.128997  0  4.031784  0
C  C30  1  0.55419831  0.49222359  0.88765502  1  0.101095  0  -0.005302  0.051748  0  4.152934  0
C  C31  1  0.56095827  0.49150798  0.11360489  1  0.115407  0  -0.004466  0.053885  0  4.153624  0
C  C32  1  0.56585713  0.48990357  0.96649562  1  -0.244669  0  -0.037342  -0.077905  0  4.110433  0
C  C33  1  0.56792645  0.48977988  0.03487112  1  -0.068182  0  -0.036323  -0.077512  0  4.110192  0
C  C34  1  0.42044701  0.16916881  0.45259984  1  0.412451  0  0.126488  0.234353  0  4.03181  0
C  C35  1  0.57500643  0.17118922  0.54769156  1  0.430711  0  0.126588  0.236019  0  4.030155  0
C  C36  1  0.41875783  0.25263364  0.45401473  1  0.628585  0  0.052896  -0.04381  0  3.917156  0
C  C37  1  0.57104933  0.25465593  0.54707565  1  0.606918  0  0.051651  -0.046498  0  3.918004  0
C  C38  1  0.49912811  0.12475249  0.49999431  1  0.277327  0  0.006171  -0.052769  0  4.124614  0
C  C39  1  0.50079956  0.04016998  0.49979870  1  -0.219672  0  -0.011567  -0.026384  0  4.076929  0
C  C40  1  0.50060411  0.96690239  0.49943746  1  -0.008437  0  -0.015047  -0.037296  0  4.067294  0
C  C41  1  0.41522715  0.83857541  0.45452423  1  0.567452  0  0.111939  0.097851  0  4.054505  0
C  C42  1  0.58063131  0.83692270  0.54351701  1  0.582245  0  0.111498  0.097752  0  4.053393  0
C  C43  1  0.41646775  0.75480981  0.45650996  1  1.256271  0  0.241975  0.338494  0  4.105693  0
C  C44  1  0.57498124  0.75321112  0.54164440  1  1.212371  0  0.242447  0.339124  0  4.104763  0
C  C45  1  0.49899857  0.88229548  0.49912923  1  0.204374  0  0.009705  -0.000206  0  4.156922  0
N  N46  1  0.49355760  0.29335038  0.50074001  1  -1.189029  0  -0.300929  -0.119794  0  3.547677  0
N  N47  1  0.49452823  0.71324535  0.49916331  1  -1.236886  0  -0.298286  -0.331813  0  3.473943  0
O  O48  1  0.52364318  0.43296081  0.38754738  1  -1.164033  0  -0.320668  -0.551159  0  2.302281  0
O  O49  1  0.46839713  0.43532399  0.61448075  1  -1.164075  0  -0.322429  -0.551456  0  2.292826  0
O  O50  1  0.47940105  0.56644167  0.38461853  1  -1.148624  0  -0.319354  -0.547189  0  2.339805  0
O  O51  1  0.50965882  0.56906580  0.61293569  1  -1.144342  0  -0.317325  -0.546745  0  2.349018  0
O  O52  1  0.31194231  0.43243952  0.47807692  1  -1.161101  0  -0.328733  -0.561416  0  2.279437  0
O  O53  1  0.67204344  0.43223823  0.52375200  1  -1.160617  0  -0.327928  -0.560931  0  2.279855  0
O  O54  1  0.30979747  0.56619056  0.50614413  1  -1.162118  0  -0.323905  -0.559096  0  2.316525  0
O  O55  1  0.67196566  0.56425357  0.49106354  1  -1.16321  0  -0.323562  -0.560276  0  2.321165  0
F  F56  1  0.33671368  0.71377969  0.41463794  1  -0.600854  0  -0.049001  -0.080565  0  1.385437  0
F  F57  1  0.65277066  0.71091794  0.58353063  1  -0.60012  0  -0.047976  -0.078922  0  1.396095  0
F  F58  1  0.50104361  0.64543681  0.74522326  1  -0.613233  0  -0.096769  -0.113719  0  1.379046  0
F  F59  1  0.52809986  0.64445642  0.25884850  1  -0.614369  0  -0.096902  -0.114236  0  1.378283  0
F  F60  1  0.53929542  0.63549649  0.89183553  1  -0.613657  0  -0.093626  -0.113368  0  1.357913  0
F  F61  1  0.55716512  0.63509506  0.11274626  1  -0.613832  0  -0.093934  -0.113082  0  1.357965  0
F  F62  1  0.34535787  0.12908915  0.40515360  1  -0.621986  0  -0.079194  -0.11199  0  1.333894  0
F  F63  1  0.65267873  0.13312365  0.59479305  1  -0.618328  0  -0.079572  -0.112659  0  1.332491  0
F  F64  1  0.33445243  0.87749847  0.41063762  1  -0.607336  0  -0.07285  -0.081841  0  1.370234  0
F  F65  1  0.66366548  0.87410878  0.58728384  1  -0.605407  0  -0.072898  -0.082005  0  1.369186  0
