# generated using pymatgen
data_CuH6C4N3
_symmetry_space_group_name_H-M   'P 1'
_cell_length_a   5.60241419
_cell_length_b   13.70466642
_cell_length_c   13.47000000
_cell_angle_alpha   90.00000000
_cell_angle_beta   90.00000000
_cell_angle_gamma   90.00000000
_symmetry_Int_Tables_number   1
_chemical_formula_structural   CuH6C4N3
_chemical_formula_sum   'Cu8 H48 C32 N24'
_cell_volume   1034.21606235
_cell_formula_units_Z   8
loop_
 _symmetry_equiv_pos_site_id
 _symmetry_equiv_pos_as_xyz
  1  'x, y, z'
loop_
 _atom_site_type_symbol
 _atom_site_label
 _atom_site_symmetry_multiplicity
 _atom_site_fract_x
 _atom_site_fract_y
 _atom_site_fract_z
 _atom_site_occupancy
 _atom_site_hle17_bader_spin_density
 _atom_site_hle17_ddec_charge
 _atom_site_hle17_ddec_spin_density
 _atom_site_hle17_ddec_sum_bond_order
 _atom_site_hle17_magmom
 _atom_site_hse06_10hf_bader_spin_density
 _atom_site_hse06_10hf_ddec_charge
 _atom_site_hse06_10hf_ddec_spin_density
 _atom_site_hse06_10hf_ddec_sum_bond_order
 _atom_site_hse06_10hf_magmom
 _atom_site_hse06_bader_spin_density
 _atom_site_hse06_ddec_charge
 _atom_site_hse06_ddec_spin_density
 _atom_site_hse06_ddec_sum_bond_order
 _atom_site_hse06_magmom
 _atom_site_pbe_bader_charge
 _atom_site_pbe_bader_spin_density
 _atom_site_pbe_cm5_charge
 _atom_site_pbe_ddec_charge
 _atom_site_pbe_ddec_spin_density
 _atom_site_pbe_ddec_sum_bond_order
 _atom_site_pbe_magmom
Cu  Cu0  1  0.19041255  0.60155933  0.47939941  1  0  0.435458  0  1.810372  0  0  0.309428  0  2.269324  0  0  0.318106  0  2.222466  0  0.635335  0  0.528374  0.306148  0  2.300041  0
Cu  Cu1  1  0.69124486  0.52133483  0.09732814  1  0  0.435378  0  1.81685  0  0  0.306902  0  2.279907  0  0  0.316266  0  2.231725  0  0.63531  0  0.528523  0.303035  0  2.311685  0
Cu  Cu2  1  0.69125200  0.97866665  0.40266964  1  0  0.435268  0  1.817023  0  0  0.3068  0  2.280038  0  0  0.316151  0  2.231848  0  0.635384  0  0.528509  0.302925  0  2.311813  0
Cu  Cu3  1  0.19041969  0.89843486  0.02059837  1  0  0.435459  0  1.810256  0  0  0.309358  0  2.26926  0  0  0.318031  0  2.222393  0  0.635494  0  0.528396  0.306076  0  2.299973  0
Cu  Cu4  1  0.80959027  0.39844676  0.52059243  1  0  0.435438  0  1.810564  0  0  0.309386  0  2.269578  0  0  0.318064  0  2.2227  0  0.635534  0  0.528383  0.306115  0  2.300285  0
Cu  Cu5  1  0.30875796  0.47865521  0.90266518  1  0  0.435405  0  1.816665  0  0  0.306898  0  2.279735  0  0  0.316249  0  2.23153  0  0.635231  0  0.528517  0.303022  0  2.311507  0
Cu  Cu6  1  0.30875796  0.02133434  0.59734373  1  0  0.435387  0  1.817113  0  0  0.306847  0  2.280125  0  0  0.3162  0  2.231919  0  0.635411  0  0.528518  0.30297  0  2.311902  0
Cu  Cu7  1  0.80956349  0.10155592  0.97940535  1  0  0.435343  0  1.810488  0  0  0.309286  0  2.269446  0  0  0.317961  0  2.222569  0  0.635462  0  0.528371  0.306006  0  2.300166  0
H  H8  1  0.74782939  0.77621517  0.32338530  1  0  0.118093  0  0.974247  0  0  0.140499  0  1.034568  0  0  0.142093  0  1.034407  0  0.037312  0  0.095833  0.139274  0  1.034756  0
H  H9  1  0.23500226  0.67954372  0.27515442  1  0  0.117046  0  0.976393  0  0  0.139365  0  1.036938  0  0  0.141055  0  1.036538  0  0.049088  0  0.09552  0.138067  0  1.037341  0
H  H10  1  0.23501832  0.82046069  0.22483073  1  0  0.117067  0  0.976174  0  0  0.13933  0  1.036836  0  0  0.141029  0  1.036418  0  0.049555  0  0.095512  0.138034  0  1.037236  0
H  H11  1  0.74782404  0.72379361  0.17659985  1  0  0.117859  0  0.974616  0  0  0.140249  0  1.034972  0  0  0.14184  0  1.034814  0  0.038147  0  0.095706  0.139028  0  1.035149  0
H  H12  1  0.25217343  0.22380260  0.67660356  1  0  0.117814  0  0.974671  0  0  0.140217  0  1.034988  0  0  0.141805  0  1.034829  0  0.037649  0  0.095704  0.138997  0  1.035161  0
H  H13  1  0.76501127  0.32045873  0.72484187  1  0  0.117067  0  0.976347  0  0  0.139354  0  1.036931  0  0  0.141046  0  1.036533  0  0.049101  0  0.095522  0.138058  0  1.03733  0
H  H14  1  0.76499521  0.17953228  0.77516407  1  0  0.117181  0  0.97623  0  0  0.139395  0  1.036914  0  0  0.141092  0  1.036503  0  0.049506  0  0.095537  0.138099  0  1.037315  0
H  H15  1  0.25215558  0.27619862  0.82340535  1  0  0.117878  0  0.974583  0  0  0.140206  0  1.034991  0  0  0.141796  0  1.034827  0  0.038277  0  0.095703  0.13899  0  1.035161  0
H  H16  1  0.59658567  0.66258526  0.34404157  1  0  0.125888  0  0.957142  0  0  0.144175  0  1.021796  0  0  0.146055  0  1.021551  0  0.049475  0  0.096895  0.142687  0  1.022193  0
H  H17  1  0.09901089  0.65204287  0.15788641  1  0  0.125067  0  0.961162  0  0  0.143251  0  1.026291  0  0  0.14506  0  1.02605  0  0.069145  0  0.0966  0.141837  0  1.026652  0
H  H18  1  0.09899839  0.84794111  0.34211136  1  0  0.125049  0  0.96119  0  0  0.143237  0  1.026307  0  0  0.145051  0  1.026058  0  0.069042  0  0.096594  0.141822  0  1.026671  0
H  H19  1  0.59663921  0.83740820  0.15593987  1  0  0.125956  0  0.957425  0  0  0.144352  0  1.021902  0  0  0.146232  0  1.021659  0  0.049038  0  0.096985  0.142861  0  1.022298  0
H  H20  1  0.40340466  0.33742448  0.65595620  1  0  0.125845  0  0.957259  0  0  0.144157  0  1.021855  0  0  0.146036  0  1.021617  0  0.049066  0  0.096897  0.142668  0  1.022251  0
H  H21  1  0.90100978  0.34795958  0.84211210  1  0  0.125012  0  0.96119  0  0  0.14316  0  1.026382  0  0  0.144974  0  1.026133  0  0.068991  0  0.096562  0.141743  0  1.02675  0
H  H22  1  0.90099372  0.15205551  0.65789013  1  0  0.125107  0  0.961181  0  0  0.143314  0  1.026265  0  0  0.145129  0  1.026015  0  0.069175  0  0.096643  0.141902  0  1.026627  0
H  H23  1  0.40334576  0.16258039  0.84406682  1  0  0.125908  0  0.957417  0  0  0.144276  0  1.021909  0  0  0.146153  0  1.021675  0  0.048889  0  0.096919  0.142787  0  1.022308  0
H  H24  1  0.83259285  0.69884882  0.42284633  1  0  0.111827  0  0.981953  0  0  0.12564  0  1.059567  0  0  0.130226  0  1.05493  0  0.068337  0  0.087156  0.122166  0  1.063029  0
H  H25  1  0.33903598  0.58086127  0.20209651  1  0  0.112718  0  0.983368  0  0  0.127377  0  1.059218  0  0  0.131589  0  1.055037  0  0.069809  0  0.088221  0.12419  0  1.062336  0
H  H26  1  0.33903420  0.91914386  0.29790275  1  0  0.112754  0  0.983341  0  0  0.1274  0  1.059213  0  0  0.131609  0  1.055037  0  0.069769  0  0.088231  0.124216  0  1.062325  0
H  H27  1  0.83259820  0.80114172  0.07715145  1  0  0.111836  0  0.982023  0  0  0.125654  0  1.059634  0  0  0.130238  0  1.054997  0  0.068269  0  0.087143  0.122182  0  1.063094  0
H  H28  1  0.16743318  0.30115655  0.57714996  1  0  0.111878  0  0.981802  0  0  0.125704  0  1.059416  0  0  0.130288  0  1.05478  0  0.068432  0  0.087184  0.122233  0  1.062875  0
H  H29  1  0.66098469  0.41914118  0.79789681  1  0  0.112699  0  0.983395  0  0  0.127391  0  1.059203  0  0  0.131597  0  1.055025  0  0.069904  0  0.088257  0.124206  0  1.062321  0
H  H30  1  0.66097398  0.08086370  0.70210022  1  0  0.112698  0  0.983356  0  0  0.127365  0  1.059197  0  0  0.131575  0  1.055018  0  0.069909  0  0.088238  0.124179  0  1.062316  0
H  H31  1  0.16738855  0.19884468  0.92285672  1  0  0.111919  0  0.981934  0  0  0.125703  0  1.059564  0  0  0.130285  0  1.054928  0  0.068236  0  0.087155  0.122239  0  1.063021  0
H  H32  1  0.99072646  0.85913073  0.66022569  1  0  0.127556  0  0.965823  0  0  0.145877  0  1.02726  0  0  0.147935  0  1.02634  0  0.071977  0  0.096546  0.144336  0  1.02799  0
H  H33  1  0.47698187  0.35121395  0.36272235  1  0  0.127635  0  0.96015  0  0  0.145715  0  1.022942  0  0  0.148068  0  1.021445  0  0.069863  0  0.096191  0.143922  0  1.024147  0
H  H34  1  0.47690690  0.14875298  0.13726206  1  0  0.127682  0  0.959961  0  0  0.145678  0  1.022875  0  0  0.148021  0  1.021386  0  0.069825  0  0.096222  0.143885  0  1.024081  0
H  H35  1  0.99069255  0.64088390  0.83976615  1  0  0.127611  0  0.965808  0  0  0.145914  0  1.027218  0  0  0.147967  0  1.026296  0  0.072177  0  0.09652  0.144371  0  1.027962  0
H  H36  1  0.00921388  0.14090383  0.33972532  1  0  0.127538  0  0.965627  0  0  0.145802  0  1.027165  0  0  0.147859  0  1.026242  0  0.071861  0  0.096512  0.144262  0  1.0279  0
H  H37  1  0.52296740  0.64880383  0.63727171  1  0  0.127536  0  0.960179  0  0  0.14564  0  1.022943  0  0  0.147987  0  1.021451  0  0.069785  0  0.096138  0.143849  0  1.024148  0
H  H38  1  0.52302095  0.85120861  0.86274239  1  0  0.127571  0  0.960083  0  0  0.145685  0  1.022879  0  0  0.148033  0  1.021384  0  0.069789  0  0.096209  0.143897  0  1.024078  0
H  H39  1  0.00932455  0.35913169  0.16021381  1  0  0.127637  0  0.965681  0  0  0.145948  0  1.027112  0  0  0.148005  0  1.026188  0  0.072091  0  0.096543  0.144407  0  1.027849  0
H  H40  1  0.03365513  0.72931363  0.65882999  1  0  0.122782  0  0.953128  0  0  0.144389  0  1.011459  0  0  0.145498  0  1.012042  0  0.064211  0  0.09579  0.143546  0  1.01111  0
H  H41  1  0.54771388  0.33676485  0.23384929  1  0  0.122602  0  0.951939  0  0  0.145077  0  1.008906  0  0  0.145883  0  1.010016  0  0.0261  0  0.096118  0.144454  0  1.008194  0
H  H42  1  0.54773530  0.16324804  0.26612175  1  0  0.122577  0  0.951894  0  0  0.145134  0  1.008784  0  0  0.145944  0  1.009884  0  0.02534  0  0.096108  0.144507  0  1.008073  0
H  H43  1  0.03362122  0.77068275  0.84118560  1  0  0.122851  0  0.953224  0  0  0.144486  0  1.011488  0  0  0.145594  0  1.012071  0  0.063967  0  0.095837  0.143635  0  1.011144  0
H  H44  1  0.96644586  0.27071071  0.34122569  1  0  0.122808  0  0.953367  0  0  0.144379  0  1.011706  0  0  0.145491  0  1.012289  0  0.064413  0  0.095858  0.143544  0  1.011346  0
H  H45  1  0.45231215  0.66323614  0.76615961  1  0  0.122729  0  0.951822  0  0  0.145194  0  1.008778  0  0  0.146001  0  1.009882  0  0.02517  0  0.096158  0.14457  0  1.008065  0
H  H46  1  0.45229430  0.83677119  0.73386934  1  0  0.122628  0  0.951909  0  0  0.145142  0  1.008858  0  0  0.14595  0  1.00996  0  0.026213  0  0.096133  0.144519  0  1.008147  0
H  H47  1  0.96634055  0.22932919  0.15883667  1  0  0.122837  0  0.953089  0  0  0.144453  0  1.011394  0  0  0.145561  0  1.011979  0  0.063522  0  0.095821  0.143621  0  1.011032  0
H  H48  1  0.84324897  0.78600892  0.57092873  1  0  0.126137  0  0.971502  0  0  0.146137  0  1.031561  0  0  0.147238  0  1.032237  0  0.042938  0  0.095481  0.145238  0  1.031192  0
H  H49  1  0.35122537  0.43029723  0.27249963  1  0  0.124428  0  0.967516  0  0  0.145688  0  1.026645  0  0  0.146794  0  1.027132  0  0.060429  0  0.095662  0.144825  0  1.026375  0
H  H50  1  0.35122002  0.06969743  0.22753823  1  0  0.124284  0  0.967622  0  0  0.145614  0  1.026676  0  0  0.146715  0  1.027152  0  0.060352  0  0.095678  0.144751  0  1.026403  0
H  H51  1  0.84327931  0.71398600  0.92906162  1  0  0.126071  0  0.971728  0  0  0.146049  0  1.031771  0  0  0.147148  0  1.032442  0  0.043173  0  0.095461  0.145145  0  1.031424  0
H  H52  1  0.15674493  0.21392713  0.42906236  1  0  0.126026  0  0.971625  0  0  0.146012  0  1.031698  0  0  0.14711  0  1.032373  0  0.043541  0  0.095445  0.145116  0  1.031331  0
H  H53  1  0.64880601  0.56970157  0.72746474  1  0  0.124606  0  0.967261  0  0  0.145841  0  1.026402  0  0  0.146946  0  1.026888  0  0.060313  0  0.095724  0.14498  0  1.026127  0
H  H54  1  0.64877924  0.93029700  0.77251373  1  0  0.124401  0  0.967474  0  0  0.145683  0  1.026593  0  0  0.146787  0  1.027081  0  0.060422  0  0.095691  0.144822  0  1.02632  0
H  H55  1  0.15669138  0.28597850  0.07093838  1  0  0.126072  0  0.971799  0  0  0.146048  0  1.031831  0  0  0.147144  0  1.032514  0  0.043448  0  0.095426  0.145149  0  1.031467  0
C  C56  1  0.50563380  0.77727612  0.44385672  1  0  0.383683  0  3.780806  0  0  0.37555  0  4.032175  0  0  0.388579  0  4.049761  0  0.937543  0  0.199271  0.366833  0  4.02023  0
C  C57  1  0.00592959  0.55680669  0.27644395  1  0  0.381707  0  3.791523  0  0  0.37445  0  4.042144  0  0  0.387204  0  4.060038  0  0.930729  0  0.199203  0.365929  0  4.029968  0
C  C58  1  0.00593316  0.94318895  0.22355085  1  0  0.381717  0  3.791259  0  0  0.374368  0  4.042059  0  0  0.387122  0  4.059957  0  0.931123  0  0.199155  0.365858  0  4.029866  0
C  C59  1  0.50562666  0.72272098  0.05613363  1  0  0.383518  0  3.781336  0  0  0.375413  0  4.032691  0  0  0.388447  0  4.050266  0  0.937469  0  0.19922  0.366695  0  4.020755  0
C  C60  1  0.49437080  0.22271611  0.55614551  1  0  0.38359  0  3.781052  0  0  0.375465  0  4.032457  0  0  0.388493  0  4.050027  0  0.93756  0  0.19933  0.366747  0  4.020525  0
C  C61  1  0.99407859  0.44320670  0.72356199  1  0  0.38156  0  3.791527  0  0  0.374319  0  4.042183  0  0  0.387073  0  4.060076  0  0.931197  0  0.199265  0.365809  0  4.029995  0
C  C62  1  0.99406609  0.05680693  0.77644766  1  0  0.381701  0  3.791411  0  0  0.374436  0  4.04207  0  0  0.38719  0  4.05997  0  0.931229  0  0.199224  0.365925  0  4.029882  0
C  C63  1  0.49433867  0.27727563  0.94386934  1  0  0.383778  0  3.780975  0  0  0.375717  0  4.032237  0  0  0.388751  0  4.0498  0  0.937401  0  0.199299  0.366999  0  4.020313  0
C  C64  1  0.21808991  0.80749430  0.54543281  1  0  0.383813  0  3.755962  0  0  0.371763  0  4.017316  0  0  0.384634  0  4.034291  0  0.946529  0  0.199133  0.363087  0  4.005956  0
C  C65  1  0.72005744  0.45623000  0.30641203  1  0  0.383355  0  3.760444  0  0  0.369033  0  4.025503  0  0  0.381683  0  4.042606  0  0.922767  0  0.198796  0.360535  0  4.014008  0
C  C66  1  0.72001817  0.04376028  0.19358203  1  0  0.383441  0  3.760453  0  0  0.36914  0  4.025529  0  0  0.381788  0  4.042636  0  0.922501  0  0.198738  0.360641  0  4.014034  0
C  C67  1  0.21809883  0.69251157  0.95456496  1  0  0.383654  0  3.756462  0  0  0.371697  0  4.017711  0  0  0.384568  0  4.034685  0  0.944909  0  0.199037  0.363025  0  4.006343  0
C  C68  1  0.78191470  0.19252202  0.45456793  1  0  0.383526  0  3.756975  0  0  0.371701  0  4.018056  0  0  0.384524  0  4.0351  0  0.94421  0  0.19907  0.363039  0  4.006678  0
C  C69  1  0.27994360  0.54378631  0.69356941  1  0  0.383184  0  3.761138  0  0  0.368911  0  4.026126  0  0  0.381562  0  4.043231  0  0.922807  0  0.198736  0.360411  0  4.014633  0
C  C70  1  0.27996323  0.95623707  0.80641500  1  0  0.383257  0  3.760393  0  0  0.368965  0  4.025485  0  0  0.38161  0  4.042595  0  0.922559  0  0.198688  0.360469  0  4.013988  0
C  C71  1  0.78189149  0.30748067  0.04543950  1  0  0.383902  0  3.756405  0  0  0.371949  0  4.017643  0  0  0.384825  0  4.034615  0  0.945272  0  0.199166  0.363272  0  4.006283  0
C  C72  1  0.67892874  0.72606364  0.37976689  1  0  -0.381854  0  3.706492  0  0  -0.461377  0  3.937828  0  0  -0.465787  0  3.943269  0  -0.025518  0  -0.24041  -0.458012  0  3.934334  0
C  C73  1  0.17792508  0.62099140  0.22522123  1  0  -0.385169  0  3.715679  0  0  -0.465958  0  3.947254  0  0  -0.470103  0  3.952701  0  -0.052932  0  -0.24226  -0.462807  0  3.943756  0
C  C74  1  0.17793579  0.87900352  0.27478174  1  0  -0.38512  0  3.715334  0  0  -0.465862  0  3.946928  0  0  -0.470011  0  3.952376  0  -0.052852  0  -0.242206  -0.462712  0  3.943416  0
C  C75  1  0.67892517  0.77392763  0.12020861  1  0  -0.381568  0  3.707394  0  0  -0.461156  0  3.938665  0  0  -0.465569  0  3.944116  0  -0.025216  0  -0.240278  -0.457802  0  3.935182  0
C  C76  1  0.32109907  0.27394246  0.62022494  1  0  -0.381494  0  3.706836  0  0  -0.460986  0  3.938089  0  0  -0.465394  0  3.94354  0  -0.025382  0  -0.240261  -0.457632  0  3.934606  0
C  C77  1  0.82208309  0.37901105  0.77477728  1  0  -0.384983  0  3.715585  0  0  -0.465737  0  3.947201  0  0  -0.469879  0  3.952654  0  -0.052899  0  -0.242253  -0.462595  0  3.943697  0
C  C78  1  0.82207952  0.12099601  0.72522049  1  0  -0.385277  0  3.715602  0  0  -0.466001  0  3.947165  0  0  -0.470153  0  3.952616  0  -0.052924  0  -0.242282  -0.462855  0  3.943659  0
C  C79  1  0.32105802  0.22605804  0.87979510  1  0  -0.38177  0  3.707244  0  0  -0.461294  0  3.93866  0  0  -0.465697  0  3.944098  0  -0.024995  0  -0.240277  -0.457936  0  3.935141  0
C  C80  1  0.01016883  0.79473587  0.61271344  1  0  -0.389428  0  3.701894  0  0  -0.466479  0  3.931491  0  0  -0.469181  0  3.937362  0  -0.041594  0  -0.240215  -0.464432  0  3.927635  0
C  C81  1  0.51280393  0.38989712  0.29319376  1  0  -0.386642  0  3.70456  0  0  -0.464624  0  3.936447  0  0  -0.467318  0  3.942747  0  -0.007506  0  -0.239243  -0.462615  0  3.932266  0
C  C82  1  0.51277180  0.11009535  0.20680401  1  0  -0.386606  0  3.704375  0  0  -0.464656  0  3.93642  0  0  -0.467331  0  3.942713  0  -0.007624  0  -0.239303  -0.462639  0  3.932236  0
C  C83  1  0.01020096  0.70526270  0.88729844  1  0  -0.389555  0  3.702732  0  0  -0.466586  0  3.93234  0  0  -0.469278  0  3.938209  0  -0.040107  0  -0.2402  -0.46455  0  3.928485  0
C  C84  1  0.98980365  0.20526512  0.38729993  1  0  -0.389262  0  3.702716  0  0  -0.466292  0  3.932344  0  0  -0.468979  0  3.938234  0  -0.040235  0  -0.240166  -0.464263  0  3.928467  0
C  C85  1  0.48721139  0.61011262  0.70680475  1  0  -0.386893  0  3.704268  0  0  -0.464926  0  3.936263  0  0  -0.467615  0  3.942561  0  -0.007464  0  -0.239347  -0.462914  0  3.93208  0
C  C86  1  0.48721139  0.88989762  0.79321307  1  0  -0.386611  0  3.704279  0  0  -0.464694  0  3.936263  0  0  -0.467381  0  3.942559  0  -0.007586  0  -0.239317  -0.462685  0  3.932081  0
C  C87  1  0.98979115  0.29473392  0.11270453  1  0  -0.389573  0  3.702532  0  0  -0.4666  0  3.93216  0  0  -0.4693  0  3.938027  0  -0.041396  0  -0.240173  -0.464571  0  3.928298  0
N  N88  1  0.31822710  0.73393833  0.49078396  1  0  -0.516788  0  3.297227  0  0  -0.442061  0  3.595027  0  0  -0.460632  0  3.59928  0  -1.221842  0  -0.401615  -0.430093  0  3.591731  0
N  N89  1  0.82014286  0.51022548  0.23191017  1  0  -0.516887  0  3.301785  0  0  -0.441269  0  3.599142  0  0  -0.45983  0  3.60344  0  -1.228743  0  -0.402983  -0.429242  0  3.595766  0
N  N90  1  0.82013929  0.98977090  0.26808612  1  0  -0.516993  0  3.301397  0  0  -0.441354  0  3.598796  0  0  -0.459916  0  3.603093  0  -1.228892  0  -0.402972  -0.429331  0  3.595418  0
N  N91  1  0.31823959  0.76607264  0.00920787  1  0  -0.516639  0  3.297168  0  0  -0.441969  0  3.594962  0  0  -0.460536  0  3.599207  0  -1.220445  0  -0.401645  -0.430001  0  3.591662  0
N  N92  1  0.68175252  0.26608309  0.50921826  1  0  -0.516751  0  3.297095  0  0  -0.442133  0  3.594894  0  0  -0.460692  0  3.599162  0  -1.219556  0  -0.401705  -0.430167  0  3.591588  0
N  N93  1  0.17988138  0.48978500  0.76807572  1  0  -0.516806  0  3.302007  0  0  -0.441175  0  3.599299  0  0  -0.459735  0  3.603591  0  -1.228774  0  -0.403007  -0.429149  0  3.595914  0
N  N94  1  0.17984747  0.01023228  0.73191759  1  0  -0.516886  0  3.30165  0  0  -0.441276  0  3.599026  0  0  -0.459833  0  3.603315  0  -1.229217  0  -0.402984  -0.429252  0  3.595643  0
N  N95  1  0.68174717  0.23391303  0.99079510  1  0  -0.516854  0  3.296839  0  0  -0.442151  0  3.594545  0  0  -0.460725  0  3.598791  0  -1.220116  0  -0.401642  -0.430181  0  3.591249  0
N  N96  1  0.51980270  0.87249260  0.46635857  1  0  -0.327666  0  3.321361  0  0  -0.266266  0  3.634119  0  0  -0.278022  0  3.639117  0  -0.781153  0  -0.311882  -0.258966  0  3.630994  0
N  N97  1  0.01930239  0.53475654  0.37324350  1  0  -0.323154  0  3.309519  0  0  -0.263429  0  3.622167  0  0  -0.275333  0  3.627966  0  -0.771562  0  -0.309696  -0.256065  0  3.618515  0
N  N98  1  0.01929704  0.96524203  0.12675650  1  0  -0.323084  0  3.309434  0  0  -0.263316  0  3.622102  0  0  -0.275219  0  3.6279  0  -0.772207  0  -0.309611  -0.255954  0  3.618443  0
N  N99  1  0.51979377  0.62750743  0.03363252  1  0  -0.327784  0  3.3217  0  0  -0.266424  0  3.634533  0  0  -0.278188  0  3.639543  0  -0.783461  0  -0.311936  -0.259135  0  3.631424  0
N  N100  1  0.48023225  0.12750693  0.53363697  1  0  -0.327711  0  3.321725  0  0  -0.266347  0  3.634537  0  0  -0.278083  0  3.639511  0  -0.784063  0  -0.311931  -0.259066  0  3.631433  0
N  N101  1  0.98067901  0.46524007  0.62675724  1  0  -0.32316  0  3.309412  0  0  -0.263476  0  3.622088  0  0  -0.275383  0  3.627888  0  -0.771373  0  -0.309753  -0.256118  0  3.618435  0
N  N102  1  0.98068972  0.03475021  0.87324722  1  0  -0.32304  0  3.30932  0  0  -0.263317  0  3.621939  0  0  -0.275222  0  3.627741  0  -0.772019  0  -0.309641  -0.255957  0  3.618287  0
N  N103  1  0.48021084  0.37247897  0.96636897  1  0  -0.32779  0  3.321908  0  0  -0.266472  0  3.634776  0  0  -0.278219  0  3.639757  0  -0.783875  0  -0.31203  -0.259189  0  3.631672  0
N  N104  1  0.33496274  0.89180208  0.53182925  1  0  -0.319328  0  3.264302  0  0  -0.265072  0  3.58173  0  0  -0.274577  0  3.584915  0  -0.785036  0  -0.301042  -0.259536  0  3.580233  0
N  N105  1  0.83586822  0.46965098  0.39238604  1  0  -0.318188  0  3.260077  0  0  -0.263671  0  3.57825  0  0  -0.273064  0  3.581765  0  -0.7718  0  -0.299951  -0.258215  0  3.576535  0
N  N106  1  0.83584680  0.03034368  0.10761544  1  0  -0.31822  0  3.260086  0  0  -0.263714  0  3.578216  0  0  -0.273107  0  3.581732  0  -0.771182  0  -0.299942  -0.258258  0  3.576503  0
N  N107  1  0.33495024  0.60820306  0.96816481  1  0  -0.31913  0  3.264348  0  0  -0.264896  0  3.581749  0  0  -0.274401  0  3.584943  0  -0.782646  0  -0.30101  -0.259355  0  3.580248  0
N  N108  1  0.66508292  0.10821569  0.46816852  1  0  -0.319065  0  3.264635  0  0  -0.264869  0  3.581978  0  0  -0.274371  0  3.585189  0  -0.782755  0  -0.300964  -0.259334  0  3.580482  0
N  N109  1  0.16411496  0.53035147  0.60760505  1  0  -0.318131  0  3.260496  0  0  -0.263601  0  3.578635  0  0  -0.272993  0  3.582147  0  -0.772549  0  -0.299859  -0.258151  0  3.576929  0
N  N110  1  0.16414888  0.96965366  0.89238307  1  0  -0.318187  0  3.260063  0  0  -0.263639  0  3.578161  0  0  -0.273034  0  3.581682  0  -0.771447  0  -0.299903  -0.258182  0  3.576444  0
N  N111  1  0.66505615  0.39178699  0.03183370  1  0  -0.319248  0  3.264377  0  0  -0.265011  0  3.581772  0  0  -0.274527  0  3.58497  0  -0.783071  0  -0.301018  -0.259468  0  3.58028  0
