# generated using pymatgen
data_NaH11(C3O2)3
_symmetry_space_group_name_H-M   'P 1'
_cell_length_a   6.77668863
_cell_length_b   10.43669865
_cell_length_c   15.13926775
_cell_angle_alpha   104.62449009
_cell_angle_beta   90.00002020
_cell_angle_gamma   89.99998273
_symmetry_Int_Tables_number   1
_chemical_formula_structural   NaH11(C3O2)3
_chemical_formula_sum   'Na4 H44 C36 O24'
_cell_volume   1036.05308005
_cell_formula_units_Z   4
loop_
 _symmetry_equiv_pos_site_id
 _symmetry_equiv_pos_as_xyz
  1  'x, y, z'
loop_
 _atom_site_type_symbol
 _atom_site_label
 _atom_site_symmetry_multiplicity
 _atom_site_fract_x
 _atom_site_fract_y
 _atom_site_fract_z
 _atom_site_occupancy
 _atom_site_hle17_bader_spin_density
 _atom_site_hle17_ddec_charge
 _atom_site_hle17_ddec_spin_density
 _atom_site_hle17_ddec_sum_bond_order
 _atom_site_hle17_magmom
 _atom_site_hse06_10hf_bader_spin_density
 _atom_site_hse06_10hf_ddec_charge
 _atom_site_hse06_10hf_ddec_spin_density
 _atom_site_hse06_10hf_ddec_sum_bond_order
 _atom_site_hse06_10hf_magmom
 _atom_site_hse06_bader_spin_density
 _atom_site_hse06_ddec_charge
 _atom_site_hse06_ddec_spin_density
 _atom_site_hse06_ddec_sum_bond_order
 _atom_site_hse06_magmom
 _atom_site_pbe_bader_spin_density
 _atom_site_pbe_cm5_charge
 _atom_site_pbe_ddec_charge
 _atom_site_pbe_ddec_spin_density
 _atom_site_pbe_ddec_sum_bond_order
 _atom_site_pbe_magmom
Na  Na0  1  0.48495958  0.61758656  0.38590282  1  0  0.907559  0  0.358567  0  0  0.868549  0  0.496216  0  0  0.878797  0  0.47525  0  0  0.664516  0.860863  0  0.511559  0
Na  Na1  1  0.98495897  0.88241469  0.61409770  1  0  0.907577  0  0.358562  0  0  0.868541  0  0.496228  0  0  0.878788  0  0.475262  0  0  0.664527  0.860861  0  0.511572  0
Na  Na2  1  0.51504373  0.38241402  0.61409797  1  0  0.907575  0  0.358551  0  0  0.86856  0  0.496193  0  0  0.878812  0  0.475228  0  0  0.664528  0.860875  0  0.511538  0
Na  Na3  1  0.01504286  0.11758688  0.38590260  1  0  0.907555  0  0.358559  0  0  0.868536  0  0.496214  0  0  0.878787  0  0.47525  0  0  0.664522  0.860853  0  0.511558  0
H  H4  1  0.27256519  0.87746384  0.29531174  1  0  0.153943  0  0.956036  0  0  0.167951  0  1.020401  0  0  0.170804  0  1.019466  0  0  0.110677  0.165896  0  1.021161  0
H  H5  1  0.77256772  0.62253645  0.70468726  1  0  0.153952  0  0.956067  0  0  0.167967  0  1.020434  0  0  0.170821  0  1.0195  0  0  0.110686  0.165912  0  1.021194  0
H  H6  1  0.72743221  0.12253476  0.70468805  1  0  0.153984  0  0.956071  0  0  0.167997  0  1.02043  0  0  0.170851  0  1.019496  0  0  0.1107  0.165944  0  1.021188  0
H  H7  1  0.22743264  0.37746413  0.29531221  1  0  0.153922  0  0.95607  0  0  0.16794  0  1.020435  0  0  0.170793  0  1.0195  0  0  0.110676  0.165886  0  1.021194  0
H  H8  1  0.52669668  0.92066127  0.31199302  1  0  0.163341  0  0.930601  0  0  0.183534  0  0.984576  0  0  0.186068  0  0.98403  0  0  0.117428  0.181717  0  0.985042  0
H  H9  1  0.02669753  0.57933708  0.68800692  1  0  0.163301  0  0.930644  0  0  0.18352  0  0.984606  0  0  0.186055  0  0.984057  0  0  0.117431  0.181702  0  0.985072  0
H  H10  1  0.47330220  0.07933535  0.68800576  1  0  0.163317  0  0.930627  0  0  0.18353  0  0.984593  0  0  0.186066  0  0.984043  0  0  0.11743  0.181714  0  0.985059  0
H  H11  1  0.97330430  0.42066251  0.31199436  1  0  0.163297  0  0.930643  0  0  0.183507  0  0.984623  0  0  0.186041  0  0.984076  0  0  0.117425  0.18169  0  0.985088  0
H  H12  1  0.44511699  0.82697048  0.20313581  1  0  0.148724  0  0.92639  0  0  0.165872  0  0.987115  0  0  0.168427  0  0.986401  0  0  0.104872  0.163925  0  0.988013  0
H  H13  1  0.94511957  0.67302978  0.79686387  1  0  0.148718  0  0.926375  0  0  0.165883  0  0.9871  0  0  0.168435  0  0.986389  0  0  0.104868  0.163935  0  0.988001  0
H  H14  1  0.55488336  0.17302911  0.79686481  1  0  0.148734  0  0.926307  0  0  0.165884  0  0.987057  0  0  0.168438  0  0.986344  0  0  0.104882  0.163936  0  0.987956  0
H  H15  1  0.05488227  0.32696783  0.20313508  1  0  0.148721  0  0.926381  0  0  0.165889  0  0.987099  0  0  0.168442  0  0.986388  0  0  0.104872  0.163941  0  0.988  0
H  H16  1  0.35825313  0.08026399  0.01915880  1  0  0.112175  0  0.954937  0  0  0.119744  0  1.021226  0  0  0.123051  0  1.019895  0  0  0.105007  0.117406  0  1.022331  0
H  H17  1  0.85825721  0.41973587  0.98084099  1  0  0.112198  0  0.954947  0  0  0.119755  0  1.021255  0  0  0.123059  0  1.019924  0  0  0.105011  0.117415  0  1.022359  0
H  H18  1  0.64173984  0.91973758  0.98083952  1  0  0.112216  0  0.954888  0  0  0.119762  0  1.021234  0  0  0.123063  0  1.019908  0  0  0.105014  0.117423  0  1.022338  0
H  H19  1  0.14174167  0.58026273  0.01916011  1  0  0.112195  0  0.954908  0  0  0.119748  0  1.021238  0  0  0.123049  0  1.019911  0  0  0.105007  0.117409  0  1.022342  0
H  H20  1  0.36805764  0.28750740  0.96625753  1  0  0.087607  0  0.958515  0  0  0.097324  0  1.020564  0  0  0.0994  0  1.020634  0  0  0.099702  0.095824  0  1.020585  0
H  H21  1  0.86805667  0.21249146  0.03374077  1  0  0.087653  0  0.958454  0  0  0.097338  0  1.020536  0  0  0.099413  0  1.020608  0  0  0.099723  0.095844  0  1.02055  0
H  H22  1  0.63194124  0.71249416  0.03373815  1  0  0.087684  0  0.958444  0  0  0.097341  0  1.02054  0  0  0.099414  0  1.020614  0  0  0.099718  0.095829  0  1.020572  0
H  H23  1  0.13194221  0.78750912  0.96626134  1  0  0.087665  0  0.958479  0  0  0.097321  0  1.020584  0  0  0.099395  0  1.020659  0  0  0.099717  0.095823  0  1.020602  0
H  H24  1  0.51853340  0.49278745  0.06833089  1  0  0.085937  0  0.962131  0  0  0.098941  0  1.020787  0  0  0.10157  0  1.019899  0  0  0.099604  0.096978  0  1.021717  0
H  H25  1  0.01853005  0.00721246  0.93166688  1  0  0.085955  0  0.962088  0  0  0.098966  0  1.020742  0  0  0.101594  0  1.019855  0  0  0.09963  0.097004  0  1.02167  0
H  H26  1  0.48147285  0.50721313  0.93166726  1  0  0.085945  0  0.962119  0  0  0.098955  0  1.020774  0  0  0.101584  0  1.019886  0  0  0.099624  0.096993  0  1.021703  0
H  H27  1  0.98147326  0.99278911  0.06833474  1  0  0.08588  0  0.962056  0  0  0.098889  0  1.02073  0  0  0.101517  0  1.019843  0  0  0.099607  0.096928  0  1.021659  0
H  H28  1  0.65061272  0.48658030  0.21904589  1  0  0.102011  0  0.976876  0  0  0.103081  0  1.053244  0  0  0.107916  0  1.048804  0  0  0.107425  0.099486  0  1.056658  0
H  H29  1  0.15061072  0.01341860  0.78095370  1  0  0.101997  0  0.976872  0  0  0.103052  0  1.053249  0  0  0.107886  0  1.048809  0  0  0.107411  0.099458  0  1.05666  0
H  H30  1  0.34939206  0.51341434  0.78095255  1  0  0.101972  0  0.976846  0  0  0.103025  0  1.053238  0  0  0.107861  0  1.048796  0  0  0.107405  0.099429  0  1.056654  0
H  H31  1  0.84939406  0.98658396  0.21904743  1  0  0.101964  0  0.976853  0  0  0.103029  0  1.053243  0  0  0.107865  0  1.048802  0  0  0.107411  0.099432  0  1.056664  0
H  H32  1  0.55503214  0.86825500  0.51724953  1  0  0.418191  0  0.891925  0  0  0.38902  0  0.953079  0  0  0.399919  0  0.937282  0  0  0.286197  0.381345  0  0.964177  0
H  H33  1  0.05503282  0.63174532  0.48275141  1  0  0.418209  0  0.891901  0  0  0.389037  0  0.953055  0  0  0.399936  0  0.937258  0  0  0.286209  0.381362  0  0.964153  0
H  H34  1  0.44496969  0.13174459  0.48275108  1  0  0.418203  0  0.891919  0  0  0.389033  0  0.953069  0  0  0.399933  0  0.937269  0  0  0.286211  0.381357  0  0.964167  0
H  H35  1  0.94497049  0.36825526  0.51724938  1  0  0.418238  0  0.89187  0  0  0.389067  0  0.953021  0  0  0.399967  0  0.937221  0  0  0.286219  0.381392  0  0.964119  0
H  H36  1  0.37928557  0.80550684  0.56254717  1  0  0.410352  0  0.896391  0  0  0.380074  0  0.960251  0  0  0.390819  0  0.944478  0  0  0.290152  0.372497  0  0.971369  0
H  H37  1  0.87928491  0.69449343  0.43745250  1  0  0.410332  0  0.896414  0  0  0.380053  0  0.960275  0  0  0.390796  0  0.944505  0  0  0.290158  0.372475  0  0.971395  0
H  H38  1  0.62071626  0.19449373  0.43745296  1  0  0.410345  0  0.896399  0  0  0.38007  0  0.960248  0  0  0.390815  0  0.944477  0  0  0.290176  0.372493  0  0.971368  0
H  H39  1  0.12071692  0.30550616  0.56254812  1  0  0.410341  0  0.896409  0  0  0.380069  0  0.960255  0  0  0.390814  0  0.944482  0  0  0.290164  0.372492  0  0.971374  0
H  H40  1  0.30135227  0.56693769  0.53829815  1  0  0.406377  0  0.913754  0  0  0.371981  0  0.984777  0  0  0.384216  0  0.966804  0  0  0.285822  0.363365  0  0.997431  0
H  H41  1  0.80135152  0.93306259  0.46170217  1  0  0.406248  0  0.913926  0  0  0.371887  0  0.984909  0  0  0.38412  0  0.966939  0  0  0.285794  0.363271  0  0.997562  0
H  H42  1  0.69865103  0.43306190  0.46170115  1  0  0.406262  0  0.913901  0  0  0.371909  0  0.98487  0  0  0.384145  0  0.966895  0  0  0.285799  0.363293  0  0.997525  0
H  H43  1  0.19865178  0.06693898  0.53829813  1  0  0.406248  0  0.913922  0  0  0.371896  0  0.984889  0  0  0.38413  0  0.966917  0  0  0.285795  0.36328  0  0.997542  0
H  H44  1  0.19643378  0.44518963  0.47315845  1  0  0.412889  0  0.891053  0  0  0.386303  0  0.948341  0  0  0.396643  0  0.933108  0  0  0.291871  0.378962  0  0.959137  0
H  H45  1  0.69643177  0.05480927  0.52684247  1  0  0.412906  0  0.891034  0  0  0.386315  0  0.948328  0  0  0.396655  0  0.933097  0  0  0.291879  0.378975  0  0.959124  0
H  H46  1  0.80356953  0.55480996  0.52684217  1  0  0.412898  0  0.891039  0  0  0.386311  0  0.948326  0  0  0.396651  0  0.933094  0  0  0.291869  0.378973  0  0.959119  0
H  H47  1  0.30356858  0.94519131  0.47315832  1  0  0.4129  0  0.891037  0  0  0.386313  0  0.948324  0  0  0.396653  0  0.933091  0  0  0.291882  0.378973  0  0.959119  0
C  C48  1  0.57960906  0.28206265  0.20613185  1  0  -0.168805  0  3.72182  0  0  -0.152749  0  3.9605  0  0  -0.162611  0  3.981837  0  0  -0.020581  -0.146425  0  3.946187  0
C  C49  1  0.07961288  0.21793923  0.79386891  1  0  -0.168709  0  3.721661  0  0  -0.152748  0  3.960439  0  0  -0.162612  0  3.981779  0  0  -0.020539  -0.146422  0  3.946125  0
C  C50  1  0.42038245  0.71793595  0.79386728  1  0  -0.168999  0  3.721929  0  0  -0.152902  0  3.960516  0  0  -0.162767  0  3.981852  0  0  -0.020639  -0.146577  0  3.946206  0
C  C51  1  0.92038748  0.78206432  0.20613305  1  0  -0.168722  0  3.721777  0  0  -0.152681  0  3.960424  0  0  -0.162543  0  3.981763  0  0  -0.02056  -0.146355  0  3.946111  0
C  C52  1  0.49880853  0.16846734  0.14699256  1  0  0.267583  0  3.749616  0  0  0.250228  0  4.011324  0  0  0.261749  0  4.027033  0  0  0.086722  0.242476  0  4.000753  0
C  C53  1  0.99881255  0.33153547  0.85300711  1  0  0.267499  0  3.749691  0  0  0.250253  0  4.01132  0  0  0.261777  0  4.027028  0  0  0.086724  0.242502  0  4.000749  0
C  C54  1  0.50117854  0.83153423  0.85300510  1  0  0.267531  0  3.749803  0  0  0.250233  0  4.011403  0  0  0.26176  0  4.027108  0  0  0.086724  0.242482  0  4.000832  0
C  C55  1  0.00119075  0.66846610  0.14699518  1  0  0.267492  0  3.749634  0  0  0.250206  0  4.011239  0  0  0.26173  0  4.026944  0  0  0.086728  0.242455  0  4.000668  0
C  C56  1  0.42333211  0.17015662  0.06172232  1  0  -0.177745  0  3.750924  0  0  -0.19984  0  4.008319  0  0  -0.205411  0  4.027654  0  0  -0.099741  -0.196291  0  3.995456  0
C  C57  1  0.92333472  0.32984323  0.93827682  1  0  -0.177748  0  3.75099  0  0  -0.199869  0  4.008384  0  0  -0.205435  0  4.027714  0  0  -0.09972  -0.196321  0  3.995527  0
C  C58  1  0.57666087  0.82984297  0.93827499  1  0  -0.177727  0  3.751018  0  0  -0.199855  0  4.008413  0  0  -0.205423  0  4.027742  0  0  -0.099714  -0.196305  0  3.995548  0
C  C59  1  0.07666711  0.67015834  0.06172481  1  0  -0.177738  0  3.750946  0  0  -0.199863  0  4.008335  0  0  -0.205427  0  4.027662  0  0  -0.099723  -0.196314  0  3.995476  0
C  C60  1  0.42958144  0.28667498  0.03267055  1  0  -0.040685  0  3.774932  0  0  -0.054834  0  4.026519  0  0  -0.054057  0  4.047538  0  0  -0.086306  -0.055099  0  4.012038  0
C  C61  1  0.92958265  0.21332487  0.96732793  1  0  -0.040654  0  3.774872  0  0  -0.054776  0  4.026467  0  0  -0.053996  0  4.047481  0  0  -0.08631  -0.055047  0  4.011988  0
C  C62  1  0.57041154  0.71332758  0.96732662  1  0  -0.040753  0  3.775008  0  0  -0.054839  0  4.026582  0  0  -0.054061  0  4.047606  0  0  -0.086328  -0.055094  0  4.012101  0
C  C63  1  0.07041771  0.78667472  0.03267400  1  0  -0.040726  0  3.774939  0  0  -0.054826  0  4.026532  0  0  -0.054045  0  4.047544  0  0  -0.086336  -0.055095  0  4.012055  0
C  C64  1  0.51285072  0.40042966  0.08939954  1  0  -0.087743  0  3.774265  0  0  -0.103282  0  4.027373  0  0  -0.107193  0  4.048435  0  0  -0.096763  -0.100745  0  4.013052  0
C  C65  1  0.01285025  0.09957025  0.91059955  1  0  -0.087803  0  3.774255  0  0  -0.103357  0  4.027364  0  0  -0.107267  0  4.048426  0  0  -0.096803  -0.10082  0  4.013047  0
C  C66  1  0.48714816  0.59957092  0.91060125  1  0  -0.087813  0  3.774255  0  0  -0.103372  0  4.027356  0  0  -0.107284  0  4.048418  0  0  -0.096834  -0.100833  0  4.013036  0
C  C67  1  0.98715305  0.90043033  0.08940058  1  0  -0.087718  0  3.774103  0  0  -0.103258  0  4.027207  0  0  -0.107167  0  4.04827  0  0  -0.09678  -0.10072  0  4.012887  0
C  C68  1  0.58643241  0.39764419  0.17473594  1  0  -0.054411  0  3.740077  0  0  -0.078003  0  3.994022  0  0  -0.076649  0  4.012893  0  0  -0.079913  -0.078535  0  3.981175  0
C  C69  1  0.08643336  0.10235571  0.82526382  1  0  -0.054458  0  3.740024  0  0  -0.077999  0  3.99399  0  0  -0.076646  0  4.012865  0  0  -0.079942  -0.078533  0  3.981147  0
C  C70  1  0.41356647  0.60235342  0.82526302  1  0  -0.054274  0  3.739896  0  0  -0.077848  0  3.993786  0  0  -0.076495  0  4.012663  0  0  -0.079865  -0.078383  0  3.980942  0
C  C71  1  0.91356995  0.89764586  0.17473780  1  0  -0.054365  0  3.739978  0  0  -0.077963  0  3.993941  0  0  -0.07661  0  4.012809  0  0  -0.079908  -0.078497  0  3.981096  0
C  C72  1  0.64506141  0.29089787  0.30297142  1  0  0.686179  0  3.908095  0  0  0.636289  0  4.206542  0  0  0.669985  0  4.197585  0  0  0.217313  0.613535  0  4.211775  0
C  C73  1  0.14506369  0.20910301  0.69702852  1  0  0.686185  0  3.907834  0  0  0.636285  0  4.206343  0  0  0.66998  0  4.197387  0  0  0.217316  0.613531  0  4.211576  0
C  C74  1  0.35493747  0.70910171  0.69702656  1  0  0.686311  0  3.907706  0  0  0.636419  0  4.206118  0  0  0.670117  0  4.197155  0  0  0.217369  0.613666  0  4.211351  0
C  C75  1  0.85493814  0.79089856  0.30297245  1  0  0.686145  0  3.907987  0  0  0.636266  0  4.20642  0  0  0.669962  0  4.197463  0  0  0.217319  0.613513  0  4.211653  0
C  C76  1  0.37117399  0.03376581  0.23879893  1  0  0.727605  0  3.72209  0  0  0.682648  0  4.025342  0  0  0.715862  0  4.01544  0  0  0.251133  0.659869  0  4.031656  0
C  C77  1  0.87118526  0.46623702  0.76120006  1  0  0.727647  0  3.721886  0  0  0.682718  0  4.025118  0  0  0.715936  0  4.01521  0  0  0.25114  0.659928  0  4.031448  0
C  C78  1  0.62881161  0.96623576  0.76120005  1  0  0.727588  0  3.721917  0  0  0.682657  0  4.025142  0  0  0.71588  0  4.01523  0  0  0.251152  0.659857  0  4.031492  0
C  C79  1  0.12881952  0.53376554  0.23880107  1  0  0.727735  0  3.721938  0  0  0.682776  0  4.025196  0  0  0.715996  0  4.015285  0  0  0.251121  0.659978  0  4.031544  0
C  C80  1  0.40380183  0.90575408  0.26294577  1  0  -0.4647  0  3.642511  0  0  -0.545392  0  3.881361  0  0  -0.552884  0  3.883381  0  0  -0.23473  -0.540091  0  3.880154  0
C  C81  1  0.90380292  0.59424718  0.73705342  1  0  -0.46463  0  3.642632  0  0  -0.545397  0  3.881526  0  0  -0.552887  0  3.883548  0  0  -0.234725  -0.540093  0  3.880323  0
C  C82  1  0.59619852  0.09424451  0.73705336  1  0  -0.46467  0  3.642628  0  0  -0.545398  0  3.881479  0  0  -0.552894  0  3.883497  0  0  -0.234719  -0.540089  0  3.880268  0
C  C83  1  0.09619743  0.40575439  0.26294623  1  0  -0.464626  0  3.642551  0  0  -0.545383  0  3.881408  0  0  -0.552873  0  3.883429  0  0  -0.23471  -0.540075  0  3.8802  0
O  O84  1  0.62297835  0.40456538  0.35784762  1  0  -0.691272  0  2.014368  0  0  -0.634912  0  2.249425  0  0  -0.659547  0  2.23695  0  0  -0.373843  -0.61764  0  2.257753  0
O  O85  1  0.12297916  0.09543749  0.64215265  1  0  -0.691263  0  2.014351  0  0  -0.634862  0  2.249364  0  0  -0.659497  0  2.236889  0  0  -0.37382  -0.617595  0  2.257694  0
O  O86  1  0.37702496  0.59543421  0.64215233  1  0  -0.691349  0  2.014301  0  0  -0.634966  0  2.249342  0  0  -0.659603  0  2.236867  0  0  -0.373863  -0.617696  0  2.257671  0
O  O87  1  0.87702267  0.90456408  0.35784831  1  0  -0.69126  0  2.01436  0  0  -0.634886  0  2.249385  0  0  -0.659521  0  2.236913  0  0  -0.373851  -0.617615  0  2.257713  0
O  O88  1  0.71505580  0.19018350  0.32493253  1  0  -0.6939  0  1.93627  0  0  -0.643277  0  2.165708  0  0  -0.66649  0  2.153982  0  0  -0.371683  -0.627044  0  2.173495  0
O  O89  1  0.21505212  0.30981935  0.67506710  1  0  -0.69392  0  1.936101  0  0  -0.64332  0  2.165607  0  0  -0.66653  0  2.153876  0  0  -0.371723  -0.627084  0  2.173392  0
O  O90  1  0.28494603  0.80981807  0.67506447  1  0  -0.693902  0  1.93606  0  0  -0.6433  0  2.165521  0  0  -0.666511  0  2.153786  0  0  -0.371707  -0.627068  0  2.173308  0
O  O91  1  0.78494528  0.69018222  0.32493320  1  0  -0.693884  0  1.936179  0  0  -0.643289  0  2.165658  0  0  -0.666498  0  2.153928  0  0  -0.371693  -0.627053  0  2.173443  0
O  O92  1  0.49336196  0.04650551  0.16974726  1  0  -0.352258  0  2.315887  0  0  -0.279716  0  2.545001  0  0  -0.302009  0  2.544885  0  0  -0.142059  -0.264015  0  2.544503  0
O  O93  1  0.99336295  0.45349532  0.83025272  1  0  -0.352223  0  2.315885  0  0  -0.279741  0  2.544989  0  0  -0.302037  0  2.544875  0  0  -0.142065  -0.264038  0  2.544495  0
O  O94  1  0.50663102  0.95349210  0.83025037  1  0  -0.352162  0  2.316003  0  0  -0.279667  0  2.545105  0  0  -0.301964  0  2.544989  0  0  -0.142065  -0.263961  0  2.544615  0
O  O95  1  0.00663593  0.54650427  0.16974922  1  0  -0.352289  0  2.315866  0  0  -0.279743  0  2.544934  0  0  -0.302039  0  2.544817  0  0  -0.142065  -0.264038  0  2.544443  0
O  O96  1  0.25324175  0.12008255  0.27467769  1  0  -0.587876  0  1.946036  0  0  -0.545646  0  2.166253  0  0  -0.565957  0  2.15787  0  0  -0.330255  -0.531797  0  2.172194  0
O  O97  1  0.75324566  0.37991237  0.72531726  1  0  -0.587987  0  1.945822  0  0  -0.545722  0  2.165984  0  0  -0.566035  0  2.1576  0  0  -0.330291  -0.53187  0  2.171934  0
O  O98  1  0.74675712  0.87990911  0.72531627  1  0  -0.587948  0  1.945705  0  0  -0.545693  0  2.165873  0  0  -0.566009  0  2.15749  0  0  -0.330285  -0.531837  0  2.171828  0
O  O99  1  0.24675617  0.62008326  0.27468200  1  0  -0.587949  0  1.945932  0  0  -0.545705  0  2.166129  0  0  -0.56602  0  2.157745  0  0  -0.33023  -0.531851  0  2.172085  0
O  O100  1  0.24988907  0.53433165  0.47379274  1  0  -0.88398  0  1.868091  0  0  -0.832018  0  2.040421  0  0  -0.85177  0  2.007628  0  0  -0.638973  -0.817956  0  2.063339  0
O  O101  1  0.74988983  0.96566766  0.52620806  1  0  -0.883902  0  1.868202  0  0  -0.831967  0  2.040469  0  0  -0.851716  0  2.007681  0  0  -0.638967  -0.817906  0  2.063386  0
O  O102  1  0.75011424  0.46566695  0.52620704  1  0  -0.883889  0  1.868178  0  0  -0.831962  0  2.040442  0  0  -0.851715  0  2.007651  0  0  -0.638948  -0.817902  0  2.063358  0
O  O103  1  0.25011348  0.03433292  0.47379339  1  0  -0.883874  0  1.868203  0  0  -0.831948  0  2.040461  0  0  -0.851699  0  2.007672  0  0  -0.638964  -0.817885  0  2.063377  0
O  O104  1  0.43170200  0.81264401  0.50263845  1  0  -0.887088  0  1.794736  0  0  -0.831854  0  1.953346  0  0  -0.850637  0  1.919911  0  0  -0.643592  -0.81849  0  1.976721  0
O  O105  1  0.93170139  0.68735823  0.49736223  1  0  -0.887096  0  1.794754  0  0  -0.831855  0  1.953367  0  0  -0.850635  0  1.919933  0  0  -0.643616  -0.818493  0  1.976744  0
O  O106  1  0.56829983  0.18735756  0.49736251  1  0  -0.887095  0  1.794758  0  0  -0.831864  0  1.953377  0  0  -0.850647  0  1.919942  0  0  -0.643633  -0.818501  0  1.976754  0
O  O107  1  0.06830044  0.31264135  0.50263773  1  0  -0.887128  0  1.794719  0  0  -0.831898  0  1.953339  0  0  -0.850682  0  1.919902  0  0  -0.643638  -0.818535  0  1.976716  0
