# generated using pymatgen
data_CdH24C12S4(NO2)2
_symmetry_space_group_name_H-M   'P 1'
_cell_length_a   8.23373580
_cell_length_b   10.61999229
_cell_length_c   12.48168749
_cell_angle_alpha   111.59907868
_cell_angle_beta   108.81468168
_cell_angle_gamma   91.34035589
_symmetry_Int_Tables_number   1
_chemical_formula_structural   CdH24C12S4(NO2)2
_chemical_formula_sum   'Cd2 H48 C24 S8 N4 O8'
_cell_volume   947.96054060
_cell_formula_units_Z   2
loop_
 _symmetry_equiv_pos_site_id
 _symmetry_equiv_pos_as_xyz
  1  'x, y, z'
loop_
 _atom_site_type_symbol
 _atom_site_label
 _atom_site_symmetry_multiplicity
 _atom_site_fract_x
 _atom_site_fract_y
 _atom_site_fract_z
 _atom_site_occupancy
 _atom_site_hle17_bader_spin_density
 _atom_site_hle17_ddec_charge
 _atom_site_hle17_ddec_spin_density
 _atom_site_hle17_ddec_sum_bond_order
 _atom_site_hle17_magmom
 _atom_site_hse06_10hf_bader_spin_density
 _atom_site_hse06_10hf_ddec_charge
 _atom_site_hse06_10hf_ddec_spin_density
 _atom_site_hse06_10hf_ddec_sum_bond_order
 _atom_site_hse06_10hf_magmom
 _atom_site_hse06_bader_spin_density
 _atom_site_hse06_ddec_charge
 _atom_site_hse06_ddec_spin_density
 _atom_site_hse06_ddec_sum_bond_order
 _atom_site_hse06_magmom
 _atom_site_pbe_bader_spin_density
 _atom_site_pbe_cm5_charge
 _atom_site_pbe_ddec_charge
 _atom_site_pbe_ddec_spin_density
 _atom_site_pbe_ddec_sum_bond_order
 _atom_site_pbe_magmom
Cd  Cd0  1  0.24506226  0.00391779  0.99707989  1  0  0.664959  0  2.172598  0  0  0.529992  0  2.612343  0  0  0.567241  0  2.592679  0  0  0.476089  0.50434  0  2.624893  0
Cd  Cd1  1  0.75494123  0.99608616  0.00292304  1  0  0.664961  0  2.172587  0  0  0.53  0  2.612321  0  0  0.567251  0  2.592654  0  0  0.476073  0.504349  0  2.624867  0
H  H2  1  0.52246626  0.40713430  0.89730839  1  0  0.008248  0  0.928834  0  0  0.017108  0  1.001297  0  0  0.017121  0  0.999672  0  0  0.104237  0.017178  0  1.002064  0
H  H3  1  0.47753559  0.59286147  0.10269646  1  0  0.008277  0  0.92881  0  0  0.017143  0  1.001252  0  0  0.017152  0  0.999633  0  0  0.104257  0.017214  0  1.00202  0
H  H4  1  0.90185783  0.37423867  0.36210798  1  0  0.107164  0  0.940699  0  0  0.118362  0  1.005158  0  0  0.120568  0  1.003689  0  0  0.117396  0.116774  0  1.006206  0
H  H5  1  0.09815129  0.62576118  0.63789964  1  0  0.107122  0  0.940716  0  0  0.118359  0  1.005157  0  0  0.120565  0  1.003689  0  0  0.117369  0.116769  0  1.006221  0
H  H6  1  0.87760754  0.33223764  0.20445698  1  0  0.088071  0  0.968185  0  0  0.097532  0  1.043233  0  0  0.098906  0  1.042184  0  0  0.100016  0.096497  0  1.044021  0
H  H7  1  0.12239409  0.66776326  0.79554861  1  0  0.087984  0  0.968198  0  0  0.097467  0  1.043255  0  0  0.098841  0  1.042208  0  0  0.099996  0.096433  0  1.044042  0
H  H8  1  0.68325197  0.19158208  0.73688778  1  0  0.092669  0  0.919249  0  0  0.109496  0  0.979202  0  0  0.110986  0  0.977619  0  0  0.11295  0.108451  0  0.980199  0
H  H9  1  0.31673767  0.80841776  0.26310139  1  0  0.092634  0  0.919209  0  0  0.109452  0  0.979158  0  0  0.110946  0  0.977569  0  0  0.112958  0.108411  0  0.980152  0
H  H10  1  0.70672730  0.21949636  0.89084764  1  0  0.08865  0  0.978782  0  0  0.100289  0  1.050252  0  0  0.101188  0  1.049893  0  0  0.097498  0.099334  0  1.05099  0
H  H11  1  0.29327345  0.78050139  0.10914317  1  0  0.088556  0  0.978867  0  0  0.100248  0  1.050277  0  0  0.101148  0  1.049919  0  0  0.097475  0.099286  0  1.051025  0
H  H12  1  0.42128844  0.96966430  0.58709677  1  0  0.093277  0  0.954133  0  0  0.114172  0  1.020528  0  0  0.115238  0  1.019802  0  0  0.095393  0.113237  0  1.021196  0
H  H13  1  0.57870667  0.03033043  0.41289994  1  0  0.093298  0  0.954024  0  0  0.114172  0  1.020458  0  0  0.11524  0  1.019729  0  0  0.09538  0.113238  0  1.021126  0
H  H14  1  0.40364728  0.13786424  0.58647093  1  0  0.113554  0  0.94703  0  0  0.133636  0  1.007473  0  0  0.135116  0  1.006869  0  0  0.11011  0.132482  0  1.008009  0
H  H15  1  0.59634397  0.86213050  0.41352419  1  0  0.113578  0  0.947076  0  0  0.133647  0  1.007536  0  0  0.135127  0  1.006935  0  0  0.110117  0.132494  0  1.008072  0
H  H16  1  0.23246826  0.04433470  0.59968664  1  0  0.098072  0  0.967882  0  0  0.116315  0  1.035676  0  0  0.117955  0  1.034335  0  0  0.097516  0.11518  0  1.036349  0
H  H17  1  0.76752541  0.95565903  0.40031267  1  0  0.098107  0  0.967865  0  0  0.116347  0  1.035657  0  0  0.117987  0  1.034317  0  0  0.097533  0.115212  0  1.036329  0
H  H18  1  0.14779772  0.15807588  0.41612283  1  0  0.088422  0  0.953993  0  0  0.107529  0  1.022877  0  0  0.10838  0  1.022214  0  0  0.090531  0.106977  0  1.02301  0
H  H19  1  0.85220989  0.84191679  0.58388224  1  0  0.088395  0  0.954016  0  0  0.107513  0  1.022879  0  0  0.108362  0  1.022219  0  0  0.090536  0.106961  0  1.023012  0
H  H20  1  0.11821929  0.33129821  0.49205897  1  0  0.119369  0  0.965155  0  0  0.131774  0  1.035791  0  0  0.134592  0  1.033377  0  0  0.110187  0.129572  0  1.037812  0
H  H21  1  0.88178517  0.66869756  0.50794882  1  0  0.119406  0  0.965085  0  0  0.131796  0  1.035714  0  0  0.13463  0  1.033281  0  0  0.110225  0.129594  0  1.037741  0
H  H22  1  0.31458392  0.29745544  0.46308643  1  0  0.098138  0  0.953302  0  0  0.119188  0  1.017598  0  0  0.119916  0  1.017291  0  0  0.099845  0.118513  0  1.018005  0
H  H23  1  0.68542373  0.70254340  0.53692217  1  0  0.098178  0  0.95329  0  0  0.119216  0  1.017591  0  0  0.119943  0  1.017288  0  0  0.099849  0.11854  0  1.018  0
H  H24  1  0.71212425  0.61084378  0.03042340  1  0  0.067051  0  0.969593  0  0  0.078729  0  1.050455  0  0  0.079578  0  1.050119  0  0  0.080457  0.078009  0  1.050714  0
H  H25  1  0.28787655  0.38916014  0.96957174  1  0  0.067099  0  0.969545  0  0  0.07879  0  1.050396  0  0  0.079638  0  1.05006  0  0  0.080501  0.078071  0  1.050654  0
H  H26  1  0.93438705  0.59768562  0.04700569  1  0  0.096841  0  0.961203  0  0  0.113576  0  1.025162  0  0  0.114533  0  1.025021  0  0  0.097405  0.112687  0  1.025543  0
H  H27  1  0.06561265  0.40231317  0.95298603  1  0  0.096768  0  0.961208  0  0  0.113504  0  1.025179  0  0  0.114461  0  1.025036  0  0  0.097376  0.112615  0  1.025559  0
H  H28  1  0.80952126  0.47519893  0.06852306  1  0  0.077821  0  0.953633  0  0  0.089993  0  1.028174  0  0  0.091646  0  1.026614  0  0  0.087533  0.088676  0  1.029545  0
H  H29  1  0.19048128  0.52480705  0.93147469  1  0  0.077908  0  0.953676  0  0  0.090074  0  1.02821  0  0  0.091726  0  1.026652  0  0  0.087576  0.088758  0  1.029578  0
H  H30  1  0.40291544  0.55678143  0.80930779  1  0  0.076804  0  0.962549  0  0  0.092702  0  1.035414  0  0  0.093691  0  1.034343  0  0  0.087287  0.092086  0  1.035802  0
H  H31  1  0.59707536  0.44322165  0.19071227  1  0  0.076708  0  0.962393  0  0  0.092521  0  1.035352  0  0  0.093519  0  1.03427  0  0  0.087235  0.091898  0  1.035748  0
H  H32  1  0.36910383  0.51153775  0.65007340  1  0  0.093205  0  0.963073  0  0  0.110491  0  1.027741  0  0  0.111043  0  1.027854  0  0  0.102077  0.11  0  1.027786  0
H  H33  1  0.63086751  0.48847667  0.34994456  1  0  0.093147  0  0.963055  0  0  0.110422  0  1.027755  0  0  0.110972  0  1.027864  0  0  0.102076  0.109932  0  1.027801  0
H  H34  1  0.58121119  0.59098597  0.76601512  1  0  0.078223  0  0.95316  0  0  0.089945  0  1.028352  0  0  0.090881  0  1.027631  0  0  0.085372  0.089397  0  1.028521  0
H  H35  1  0.41876815  0.40902429  0.23399679  1  0  0.078053  0  0.95322  0  0  0.089859  0  1.028324  0  0  0.090792  0  1.027606  0  0  0.085311  0.08931  0  1.028491  0
H  H36  1  0.14083466  0.51405023  0.27810691  1  0  0.026057  0  0.930068  0  0  0.032235  0  1.000806  0  0  0.032942  0  0.998797  0  0  0.110121  0.031456  0  1.002598  0
H  H37  1  0.85917060  0.48594963  0.72189911  1  0  0.026028  0  0.930074  0  0  0.03221  0  1.000873  0  0  0.032929  0  0.998847  0  0  0.110134  0.031428  0  1.002667  0
H  H38  1  0.03361752  0.80036579  0.41111924  1  0  0.067652  0  0.950654  0  0  0.084859  0  1.016873  0  0  0.085952  0  1.015816  0  0  0.088731  0.0842  0  1.017141  0
H  H39  1  0.96638632  0.19963403  0.58887846  1  0  0.067665  0  0.950619  0  0  0.084915  0  1.016791  0  0  0.086005  0  1.015744  0  0  0.088766  0.084254  0  1.01706  0
H  H40  1  0.85887447  0.75269383  0.26690534  1  0  0.089266  0  0.955331  0  0  0.106973  0  1.0187  0  0  0.107065  0  1.019828  0  0  0.096235  0.106903  0  1.017658  0
H  H41  1  0.14112522  0.24729784  0.73309697  1  0  0.089165  0  0.955401  0  0  0.106923  0  1.018724  0  0  0.107014  0  1.019853  0  0  0.096234  0.106851  0  1.017683  0
H  H42  1  0.07025691  0.71621240  0.26865198  1  0  0.073938  0  0.959574  0  0  0.090389  0  1.029106  0  0  0.091364  0  1.028222  0  0  0.094534  0.089631  0  1.029699  0
H  H43  1  0.92973807  0.28378133  0.73134920  1  0  0.073952  0  0.959625  0  0  0.090396  0  1.029176  0  0  0.091372  0  1.028292  0  0  0.094541  0.089638  0  1.029768  0
H  H44  1  0.38826040  0.62997497  0.43116718  1  0  0.082789  0  0.980246  0  0  0.096131  0  1.052206  0  0  0.097832  0  1.050691  0  0  0.09188  0.094793  0  1.05349  0
H  H45  1  0.61174049  0.37002898  0.56883280  1  0  0.082805  0  0.980211  0  0  0.096136  0  1.052191  0  0  0.097837  0  1.050676  0  0  0.091869  0.094798  0  1.053477  0
H  H46  1  0.40806992  0.67114979  0.58851001  1  0  0.084396  0  0.970317  0  0  0.099749  0  1.041218  0  0  0.100284  0  1.041398  0  0  0.091744  0.099433  0  1.040875  0
H  H47  1  0.59194449  0.32885106  0.41149580  1  0  0.084417  0  0.970336  0  0  0.099778  0  1.041242  0  0  0.100315  0  1.04142  0  0  0.091744  0.099461  0  1.040901  0
H  H48  1  0.28539789  0.76347558  0.50690349  1  0  0.0608  0  0.984493  0  0  0.076309  0  1.058353  0  0  0.076873  0  1.058018  0  0  0.082613  0.075773  0  1.05874  0
H  H49  1  0.71460147  0.23652638  0.49310677  1  0  0.0608  0  0.984585  0  0  0.076316  0  1.058422  0  0  0.07688  0  1.058088  0  0  0.082635  0.075781  0  1.058807  0
C  C50  1  0.59390239  0.37328223  0.83261834  1  0  0.346358  0  3.678731  0  0  0.302685  0  3.946254  0  0  0.316468  0  3.949203  0  0  0.083802  0.293024  0  3.944365  0
C  C51  1  0.40609359  0.62671661  0.16737983  1  0  0.346395  0  3.678621  0  0  0.302633  0  3.946202  0  0  0.316402  0  3.949152  0  0  0.083775  0.292963  0  3.944324  0
C  C52  1  0.39673700  0.09520111  0.83388445  1  0  0.235104  0  3.765166  0  0  0.207533  0  4.060171  0  0  0.232031  0  4.069928  0  0  0.118939  0.191283  0  4.052899  0
C  C53  1  0.60326495  0.90480181  0.16611542  1  0  0.235168  0  3.765135  0  0  0.207573  0  4.060161  0  0  0.232071  0  4.069915  0  0  0.118919  0.191328  0  4.05289  0
C  C54  1  0.13707113  0.19676184  0.21089103  1  0  0.234267  0  3.765275  0  0  0.206351  0  4.059647  0  0  0.230631  0  4.06951  0  0  0.120016  0.190205  0  4.052172  0
C  C55  1  0.86293712  0.80324007  0.78911625  1  0  0.234168  0  3.765235  0  0  0.206239  0  4.059618  0  0  0.230519  0  4.069475  0  0  0.11995  0.190092  0  4.052145  0
C  C56  1  0.97080787  0.36943392  0.29913085  1  0  -0.103457  0  3.630184  0  0  -0.174419  0  3.886363  0  0  -0.1724  0  3.89581  0  0  -0.067775  -0.175618  0  3.879892  0
C  C57  1  0.02919607  0.63055978  0.70087137  1  0  -0.103405  0  3.629994  0  0  -0.174338  0  3.886083  0  0  -0.172329  0  3.895537  0  0  -0.067776  -0.175537  0  3.879613  0
C  C58  1  0.61992782  0.22444539  0.80552695  1  0  -0.106607  0  3.652785  0  0  -0.179368  0  3.908726  0  0  -0.176217  0  3.917502  0  0  -0.07051  -0.181237  0  3.902627  0
C  C59  1  0.38006911  0.77555239  0.19446468  1  0  -0.10654  0  3.652908  0  0  -0.179265  0  3.908675  0  0  -0.176121  0  3.917454  0  0  -0.070507  -0.181123  0  3.902583  0
C  C60  1  0.37342941  0.06639826  0.62456753  1  0  -0.175081  0  3.641481  0  0  -0.278281  0  3.885861  0  0  -0.274761  0  3.893373  0  0  -0.140577  -0.280355  0  3.880931  0
C  C61  1  0.62656439  0.93359647  0.37542732  1  0  -0.175187  0  3.641487  0  0  -0.27837  0  3.885874  0  0  -0.274856  0  3.893388  0  0  -0.140591  -0.280439  0  3.880948  0
C  C62  1  0.17338655  0.26502085  0.42700559  1  0  -0.171721  0  3.636571  0  0  -0.275982  0  3.887806  0  0  -0.27195  0  3.894596  0  0  -0.145198  -0.278552  0  3.883629  0
C  C63  1  0.82662022  0.73497388  0.57300075  1  0  -0.171719  0  3.636381  0  0  -0.275977  0  3.887644  0  0  -0.271957  0  3.894419  0  0  -0.145205  -0.278548  0  3.88347  0
C  C64  1  0.80509675  0.53903694  0.01559205  1  0  -0.080166  0  3.65569  0  0  -0.173979  0  3.923956  0  0  -0.168182  0  3.927551  0  0  -0.15693  -0.177553  0  3.921665  0
C  C65  1  0.19490255  0.46096596  0.98440247  1  0  -0.080233  0  3.655706  0  0  -0.174062  0  3.924004  0  0  -0.168261  0  3.927594  0  0  -0.156988  -0.177642  0  3.921713  0
C  C66  1  0.46229312  0.51934957  0.73836754  1  0  -0.073995  0  3.630804  0  0  -0.170696  0  3.897192  0  0  -0.163824  0  3.899374  0  0  -0.155007  -0.175004  0  3.895203  0
C  C67  1  0.53768840  0.48065864  0.26164659  1  0  -0.073716  0  3.63039  0  0  -0.17041  0  3.896788  0  0  -0.163566  0  3.898965  0  0  -0.154957  -0.174714  0  3.8948  0
C  C68  1  0.06206915  0.51392733  0.33514596  1  0  0.34005  0  3.635663  0  0  0.293519  0  3.908051  0  0  0.307935  0  3.909576  0  0  0.08516  0.283401  0  3.907355  0
C  C69  1  0.93793528  0.48606844  0.66486022  1  0  0.34039  0  3.635427  0  0  0.293731  0  3.908089  0  0  0.308143  0  3.909593  0  0  0.085226  0.283615  0  3.907395  0
C  C70  1  0.97679440  0.72222647  0.31600201  1  0  -0.06655  0  3.651916  0  0  -0.158274  0  3.909705  0  0  -0.15234  0  3.914469  0  0  -0.1448  -0.161712  0  3.905676  0
C  C71  1  0.02320424  0.27776623  0.68400122  1  0  -0.066457  0  3.65194  0  0  -0.158242  0  3.909773  0  0  -0.152315  0  3.914533  0  0  -0.144858  -0.16168  0  3.905746  0
C  C72  1  0.32103600  0.66193232  0.49767649  1  0  -0.087319  0  3.667349  0  0  -0.184134  0  3.9334  0  0  -0.178053  0  3.936279  0  0  -0.158399  -0.188119  0  3.931643  0
C  C73  1  0.67897375  0.33807061  0.50233141  1  0  -0.087374  0  3.667537  0  0  -0.184201  0  3.933593  0  0  -0.178121  0  3.936474  0  0  -0.158428  -0.18818  0  3.931822  0
S  S74  1  0.03198220  0.19501023  0.06503308  1  0  -0.384051  0  2.145342  0  0  -0.339268  0  2.494509  0  0  -0.357633  0  2.488964  0  0  -0.183008  -0.326703  0  2.498144  0
S  S75  1  0.96802456  0.80499066  0.93497357  1  0  -0.384028  0  2.145257  0  0  -0.33925  0  2.494427  0  0  -0.357617  0  2.488886  0  0  -0.182988  -0.326685  0  2.498063  0
S  S76  1  0.50553497  0.17168358  0.99225345  1  0  -0.404944  0  2.178872  0  0  -0.361198  0  2.534432  0  0  -0.379901  0  2.529012  0  0  -0.185267  -0.348224  0  2.536843  0
S  S77  1  0.49446993  0.82832138  0.00774526  1  0  -0.404929  0  2.178848  0  0  -0.36119  0  2.534451  0  0  -0.379892  0  2.529028  0  0  -0.185253  -0.348215  0  2.536862  0
S  S78  1  0.21241858  0.97651434  0.77294825  1  0  -0.352929  0  2.07985  0  0  -0.326437  0  2.414572  0  0  -0.345246  0  2.412963  0  0  -0.180676  -0.313453  0  2.414328  0
S  S79  1  0.78758088  0.02348861  0.22705512  1  0  -0.352944  0  2.079871  0  0  -0.326445  0  2.414593  0  0  -0.345254  0  2.412986  0  0  -0.180663  -0.313461  0  2.414345  0
S  S80  1  0.29528362  0.09768836  0.23301487  1  0  -0.367768  0  2.135825  0  0  -0.33808  0  2.480047  0  0  -0.358346  0  2.479452  0  0  -0.177127  -0.324244  0  2.479374  0
S  S81  1  0.70472436  0.90231250  0.76698802  1  0  -0.367762  0  2.135772  0  0  -0.338074  0  2.48  0  0  -0.35834  0  2.479405  0  0  -0.177137  -0.324234  0  2.479325  0
N  N82  1  0.09407121  0.27382454  0.30750767  1  0  -0.067087  0  3.443789  0  0  0.038096  0  3.659311  0  0  0.020555  0  3.683337  0  0  -0.263137  0.049551  0  3.642935  0
N  N83  1  0.90593583  0.72617739  0.69250336  1  0  -0.06711  0  3.443604  0  0  0.038098  0  3.659157  0  0  0.020565  0  3.683166  0  0  -0.263108  0.049551  0  3.642786  0
N  N84  1  0.45804555  0.12962086  0.75858811  1  0  -0.073794  0  3.443114  0  0  0.031648  0  3.661293  0  0  0.013943  0  3.685102  0  0  -0.266821  0.04317  0  3.645165  0
N  N85  1  0.54195274  0.87037694  0.24140862  1  0  -0.073823  0  3.443173  0  0  0.031613  0  3.661328  0  0  0.013911  0  3.685131  0  0  -0.266822  0.043115  0  3.645229  0
O  O86  1  0.49969054  0.38331086  0.72101568  1  0  -0.318396  0  2.28329  0  0  -0.246472  0  2.534068  0  0  -0.262842  0  2.534414  0  0  -0.229619  -0.235223  0  2.53363  0
O  O87  1  0.50029487  0.61669831  0.27898994  1  0  -0.31841  0  2.283222  0  0  -0.246368  0  2.533925  0  0  -0.262688  0  2.53425  0  0  -0.229543  -0.235114  0  2.533485  0
O  O88  1  0.17189946  0.56245746  0.46115747  1  0  -0.31571  0  2.261137  0  0  -0.239767  0  2.508566  0  0  -0.255974  0  2.508843  0  0  -0.23046  -0.228482  0  2.508222  0
O  O89  1  0.82811158  0.43753931  0.53884958  1  0  -0.315825  0  2.261212  0  0  -0.239807  0  2.508672  0  0  -0.256017  0  2.508949  0  0  -0.230476  -0.228524  0  2.508328  0
O  O90  1  0.92643127  0.59125224  0.31379457  1  0  -0.315003  0  2.276357  0  0  -0.237369  0  2.521117  0  0  -0.254352  0  2.522827  0  0  -0.226181  -0.225736  0  2.519829  0
O  O91  1  0.07357320  0.40874354  0.68621402  1  0  -0.315103  0  2.276321  0  0  -0.237476  0  2.521199  0  0  -0.254443  0  2.522893  0  0  -0.226164  -0.225844  0  2.519915  0
O  O92  1  0.76010167  0.45649231  0.88678822  1  0  -0.326607  0  2.259524  0  0  -0.253607  0  2.510419  0  0  -0.270464  0  2.511956  0  0  -0.234181  -0.242019  0  2.509279  0
O  O93  1  0.23989661  0.54350548  0.11320770  1  0  -0.326593  0  2.259431  0  0  -0.253593  0  2.510351  0  0  -0.270457  0  2.511893  0  0  -0.23417  -0.241997  0  2.509208  0
