# generated using pymatgen
data_NiH17C23N3Cl4O5
_symmetry_space_group_name_H-M   'P 1'
_cell_length_a   8.44921527
_cell_length_b   17.48520804
_cell_length_c   20.77298028
_cell_angle_alpha   69.25153434
_cell_angle_beta   79.61145629
_cell_angle_gamma   82.72595474
_symmetry_Int_Tables_number   1
_chemical_formula_structural   NiH17C23N3Cl4O5
_chemical_formula_sum   'Ni4 H68 C92 N12 Cl16 O20'
_cell_volume   2816.26967508
_cell_formula_units_Z   4
loop_
 _symmetry_equiv_pos_site_id
 _symmetry_equiv_pos_as_xyz
  1  'x, y, z'
loop_
 _atom_site_type_symbol
 _atom_site_label
 _atom_site_symmetry_multiplicity
 _atom_site_fract_x
 _atom_site_fract_y
 _atom_site_fract_z
 _atom_site_occupancy
 _atom_site_pbe_bader_charge
 _atom_site_pbe_bader_spin_density
 _atom_site_pbe_cm5_charge
 _atom_site_pbe_ddec_charge
 _atom_site_pbe_ddec_spin_density
 _atom_site_pbe_ddec_sum_bond_order
 _atom_site_pbe_magmom
Ni  Ni0  1  0.45741193  0.48067055  0.23542195  1  1.153253  1.542363  0.649736  0.713408  2.03262  2.526123  1.529
Ni  Ni1  1  0.54350424  0.52027841  0.76431560  1  1.098881  -0.027219  0.634995  0.655493  -0.11981  2.569073  -0.027
Ni  Ni2  1  0.01184701  0.01371339  0.76898552  1  1.094591  0.031199  0.633679  0.652026  -0.024171  2.556982  0.031
Ni  Ni3  1  0.98833291  0.98639696  0.23094618  1  1.098692  0.029561  0.633546  0.65246  -0.027581  2.562589  0.029
H  H4  1  0.58488223  0.58249244  0.27104101  1  0.651522  7.4e-05  0.289548  0.371034  0.000398  0.976265  0.0
H  H5  1  0.41188535  0.41733736  0.72903346  1  0.651929  2.5e-05  0.288031  0.369212  -0.000632  0.979261  0.0
H  H6  1  0.48010614  0.52647809  0.34135278  1  0.618569  0.000351  0.328595  0.406824  0.000466  0.86056  0.0
H  H7  1  0.51545888  0.47261599  0.65807275  1  0.5946  -0.000748  0.327085  0.404601  -0.001119  0.864653  0.0
H  H8  1  0.98427592  0.95618636  0.66876979  1  0.605757  0.000777  0.328165  0.405488  0.000745  0.861181  0.0
H  H9  1  0.01525590  0.04386914  0.33163037  1  0.599775  0.000806  0.327947  0.405713  0.000751  0.862591  0.0
H  H10  1  0.88120012  0.90474599  0.74162401  1  0.643371  0.000114  0.28875  0.371083  0.000416  0.976087  0.0
H  H11  1  0.11936723  0.09490761  0.25900435  1  0.641858  3.3e-05  0.28874  0.370587  0.000353  0.977109  0.0
H  H12  1  0.35934510  0.65451633  0.23681588  1  0.099772  0.001934  0.108768  0.076128  0.000763  1.05683  0.001
H  H13  1  0.63295528  0.34922439  0.76353257  1  0.106815  0.000421  0.111417  0.078974  0.000262  1.061431  0.0
H  H14  1  0.10681077  0.73160184  0.26770432  1  0.093582  0.0012  0.099945  0.105544  0.000649  1.030967  0.001
H  H15  1  0.88416251  0.27081089  0.73380703  1  0.096033  0.000282  0.101499  0.108188  0.000173  1.025646  0.0
H  H16  1  0.84315192  0.66802673  0.29304776  1  0.139197  0.000149  0.112496  0.123891  7.7e-05  0.984896  0.0
H  H17  1  0.14941385  0.33339195  0.70851899  1  0.136597  -0.00013  0.113163  0.124635  -0.00014  0.983772  0.0
H  H18  1  0.84672159  0.52473627  0.28887666  1  0.1401  0.001071  0.103628  0.121609  0.00059  1.022275  0.001
H  H19  1  0.14804483  0.47679500  0.71185755  1  0.110879  -0.00016  0.104462  0.123033  -0.000151  1.019869  0.0
H  H20  1  0.11202839  0.45371621  0.26067394  1  0.123778  0.002061  0.11174  0.082573  0.000837  1.030332  0.001
H  H21  1  0.88357451  0.54953311  0.73871624  1  0.137426  0.000278  0.113792  0.084905  5.8e-05  1.033559  0.0
H  H22  1  0.31410052  0.57171615  0.10737492  1  0.12785  0.002446  0.106695  0.078326  0.001087  1.041205  0.002
H  H23  1  0.68485086  0.42769578  0.89352700  1  0.125185  -0.002766  0.107406  0.079622  -0.001764  1.038871  -0.002
H  H24  1  0.25969895  0.54665386  0.00285563  1  0.100411  0.001207  0.098606  0.10119  0.00064  1.023577  0.001
H  H25  1  0.74009286  0.45296497  0.99786071  1  0.089664  -0.001389  0.099555  0.102385  -0.000917  1.0238  -0.001
H  H26  1  0.30994939  0.40286781  0.99846035  1  0.089669  -7e-05  0.09975  0.099365  -9.2e-05  1.025639  0.0
H  H27  1  0.69065527  0.59677507  0.00205928  1  0.083734  -6.2e-05  0.099318  0.099041  -5.6e-05  1.028366  0.0
H  H28  1  0.39541700  0.29001541  0.10457938  1  0.09234  0.001051  0.097294  0.103041  0.000545  1.052356  0.001
H  H29  1  0.60614539  0.70967305  0.89571290  1  0.096549  -0.001193  0.097304  0.103165  -0.000789  1.053417  -0.001
H  H30  1  0.43286860  0.32626652  0.20608318  1  0.152578  0.002255  0.118302  0.091098  0.000926  1.038628  0.001
H  H31  1  0.56967005  0.67346034  0.79407694  1  0.158247  -0.00263  0.118044  0.091008  -0.001683  1.037855  -0.002
H  H32  1  0.70669662  0.46422811  0.11851278  1  0.107482  0.001839  0.111516  0.085026  0.00074  1.019027  0.001
H  H33  1  0.30050948  0.53399280  0.88114959  1  0.107762  0.00019  0.114013  0.0889  3.9e-05  1.018957  0.0
H  H34  1  0.98050237  0.39336032  0.10262220  1  0.078926  0.000988  0.094538  0.098586  0.000488  1.030555  0.0
H  H35  1  0.02665183  0.60447105  0.89709087  1  0.072221  0.000276  0.095952  0.100387  0.000149  1.028208  0.0
H  H36  1  0.09805270  0.30077152  0.20934210  1  0.144462  3.7e-05  0.108653  0.120728  -1.4e-05  1.012285  0.0
H  H37  1  0.90834494  0.69691202  0.79041353  1  0.134456  7.2e-05  0.109254  0.121469  5.3e-05  1.008568  0.0
H  H38  1  0.93942213  0.28680946  0.32606096  1  0.131467  0.000976  0.105597  0.116253  0.000539  1.008325  0.0
H  H39  1  0.06731316  0.71111582  0.67359010  1  0.120881  8e-05  0.106499  0.117596  4.9e-05  1.008139  0.0
H  H40  1  0.66508000  0.36189765  0.33252048  1  0.130477  0.001797  0.113596  0.091153  0.000732  1.023628  0.001
H  H41  1  0.34229204  0.63683479  0.66700238  1  0.13967  -4.7e-05  0.115946  0.095279  -7.5e-05  1.024633  0.0
H  H42  1  0.10728360  0.83935269  0.77763016  1  0.127431  -0.000641  0.110913  0.076802  -0.000472  1.064006  0.0
H  H43  1  0.89276794  0.16073554  0.22252996  1  0.128375  -0.000511  0.110938  0.07686  -0.000408  1.0637  0.0
H  H44  1  0.36102248  0.75992018  0.75299856  1  0.100578  -0.000367  0.100244  0.1042  -0.000269  1.034782  0.0
H  H45  1  0.63908983  0.24016303  0.24709270  1  0.099773  -0.000158  0.100741  0.105397  -0.000118  1.034376  0.0
H  H46  1  0.62407988  0.82705498  0.72115569  1  0.146761  0.00015  0.111401  0.123486  0.000119  0.991635  0.0
H  H47  1  0.37599145  0.17305627  0.27887418  1  0.140979  0.000174  0.111339  0.123883  0.000143  0.992903  0.0
H  H48  1  0.61678529  0.97395633  0.71563128  1  0.114283  5.4e-05  0.104171  0.122216  3.4e-05  1.021034  0.0
H  H49  1  0.38324737  0.02621166  0.28426523  1  0.115706  0.00011  0.104146  0.122283  6.1e-05  1.021019  0.0
H  H50  1  0.34956447  0.04689357  0.73879248  1  0.14634  -0.000518  0.114333  0.086494  -0.000324  1.035715  0.0
H  H51  1  0.65045445  0.95333462  0.26097308  1  0.104138  -0.000372  0.114055  0.085882  -0.000232  1.036738  0.0
H  H52  1  0.16632526  0.92988167  0.89527408  1  0.10578  0.002709  0.108283  0.080243  0.001279  1.035888  0.002
H  H53  1  0.83343652  0.07021267  0.10447835  1  0.102687  0.00273  0.107969  0.079842  0.00129  1.036741  0.002
H  H54  1  0.23292360  0.96219168  0.99446229  1  0.067252  0.001423  0.099543  0.102237  0.000715  1.022355  0.001
H  H55  1  0.76685786  0.03800366  0.00521751  1  0.079958  0.001426  0.099461  0.102516  0.000717  1.022241  0.001
H  H56  1  0.17693386  0.10699471  0.99525462  1  0.097739  6e-05  0.099516  0.099718  4e-06  1.033745  0.0
H  H57  1  0.82289263  0.89323613  0.00434030  1  0.093707  5e-05  0.099429  0.100115  1e-06  1.034387  0.0
H  H58  1  0.07190459  0.21443513  0.89074041  1  0.077638  0.001201  0.096096  0.101905  0.000607  1.046965  0.001
H  H59  1  0.92789780  0.78569170  0.10886918  1  0.077059  0.001212  0.096286  0.101616  0.000601  1.045696  0.001
H  H60  1  0.02484046  0.17165997  0.79387485  1  0.111978  0.002651  0.116665  0.086649  0.001267  1.042994  0.002
H  H61  1  0.97517513  0.82847926  0.20565906  1  0.11315  0.002694  0.11651  0.085263  0.001293  1.047099  0.002
H  H62  1  0.81022354  0.12470171  0.66931712  1  0.147922  -0.000125  0.115776  0.095785  -7.7e-05  1.026277  0.0
H  H63  1  0.19031896  0.87548411  0.33055017  1  0.150192  1.6e-05  0.115522  0.095225  2e-06  1.026759  0.0
H  H64  1  0.53725744  0.20133871  0.67303610  1  0.154178  -0.000155  0.1067  0.117544  -0.000113  1.00651  0.0
H  H65  1  0.46307694  0.79867731  0.32683553  1  0.1538  -5.4e-05  0.106546  0.117132  -3.3e-05  1.006943  0.0
H  H66  1  0.37962275  0.19483095  0.78861076  1  0.133559  -8.3e-05  0.10903  0.119496  -7.2e-05  1.005195  0.0
H  H67  1  0.62057455  0.80515814  0.21125214  1  0.142182  -7.8e-05  0.108967  0.118982  -7.3e-05  1.005046  0.0
H  H68  1  0.49632133  0.10661173  0.89698567  1  0.084482  -0.000341  0.096226  0.101058  -0.000235  1.027337  0.0
H  H69  1  0.50374622  0.89327072  0.10289030  1  0.082206  -0.000278  0.095933  0.100529  -0.000196  1.027069  0.0
H  H70  1  0.76759999  0.03286171  0.88388007  1  0.087476  -0.000283  0.113854  0.089713  -0.000158  1.017708  -0.001
H  H71  1  0.23251614  0.96709310  0.11603338  1  0.08496  -0.000134  0.113599  0.089186  -7.3e-05  1.017493  0.0
C  C72  1  0.61924878  0.64207457  0.14900550  1  1.65029  -0.00066  0.203481  0.580138  -8.4e-05  4.250296  -0.001
C  C73  1  0.37878931  0.35622266  0.85170571  1  1.627564  0.000721  0.20046  0.577074  0.001128  4.263693  0.0
C  C74  1  0.67881782  0.69819890  0.07613071  1  0.100097  0.001815  -0.019523  -0.120076  0.000865  3.971631  0.002
C  C75  1  0.31947287  0.29974030  0.92435767  1  0.099456  0.001974  -0.020856  -0.120126  0.000976  3.976824  0.002
C  C76  1  0.84187311  0.69261612  0.04822465  1  0.047102  0.003373  0.004081  0.041117  0.002084  4.076353  0.002
C  C77  1  0.15665357  0.30565593  0.95243540  1  0.078916  0.003703  0.004438  0.041308  0.002306  4.075859  0.002
C  C78  1  0.89770322  0.74167592  0.97993288  1  0.103787  -0.002993  0.006797  0.055567  -0.002551  4.048262  -0.002
C  C79  1  0.10111827  0.25710012  0.02087661  1  0.078943  -0.003254  0.00697  0.056222  -0.002785  4.049354  -0.002
C  C80  1  0.78990930  0.79584246  0.93830628  1  0.056531  -0.001705  -0.020188  -0.121239  -0.00208  3.983131  -0.001
C  C81  1  0.20931846  0.20323855  0.06246344  1  0.01399  -0.00138  -0.021859  -0.125213  -0.001886  3.988601  -0.001
C  C82  1  0.62695204  0.80162617  0.96626000  1  0.129596  -0.003197  0.003752  0.04106  -0.002734  4.071531  -0.002
C  C83  1  0.37221801  0.19735159  0.03444621  1  0.090441  -0.003295  0.00346  0.041488  -0.002809  4.074222  -0.002
C  C84  1  0.57109664  0.75277269  0.03464146  1  0.060283  0.003243  0.007527  0.058947  0.001988  4.042659  0.002
C  C85  1  0.42761582  0.24562745  0.96587935  1  0.145992  0.003589  0.007145  0.058243  0.002236  4.04491  0.002
C  C86  1  0.84926389  0.85043536  0.86483183  1  1.6388  -0.000432  0.199784  0.574867  -0.001614  4.269534  0.0
C  C87  1  0.15052156  0.14883517  0.13592991  1  1.659827  -0.00053  0.200704  0.575513  -0.001839  4.26817  0.0
C  C88  1  0.30222663  0.32802802  0.34724746  1  1.65003  -0.001051  0.196326  0.582152  -0.00017  4.27965  -0.002
C  C89  1  0.69903223  0.67251568  0.65153225  1  1.62776  0.000294  0.194  0.576841  0.001115  4.291802  -0.001
C  C90  1  0.26588940  0.28562931  0.42589324  1  0.09954  0.004372  -0.023368  -0.116309  0.002819  3.957778  0.004
C  C91  1  0.73629465  0.71594987  0.57320683  1  0.085078  0.004723  -0.022636  -0.114138  0.003065  3.964627  0.004
C  C92  1  0.12298566  0.30595149  0.46416118  1  0.123622  0.003218  0.004819  0.060922  0.001979  4.041393  0.002
C  C93  1  0.87901747  0.69556696  0.53494557  1  0.063074  0.003462  0.004108  0.059887  0.002137  4.042545  0.002
C  C94  1  0.08931936  0.26588520  0.53629875  1  0.05494  -0.003066  0.005139  0.064647  -0.002588  4.036147  -0.002
C  C95  1  0.91205176  0.73529811  0.46279500  1  0.157803  -0.003247  0.005212  0.065279  -0.002748  4.036154  -0.002
C  C96  1  0.19797025  0.20507628  0.57180711  1  0.08403  -0.00454  -0.022943  -0.115225  -0.004635  3.961706  -0.004
C  C97  1  0.80269206  0.79574121  0.42738005  1  0.106287  -0.00445  -0.022914  -0.116263  -0.004654  3.962553  -0.004
C  C98  1  0.34048022  0.18444572  0.53349915  1  0.188299  -0.003172  0.004381  0.060737  -0.00269  4.042262  -0.002
C  C99  1  0.66036065  0.81649612  0.46571412  1  0.09001  -0.003446  0.004206  0.060757  -0.002918  4.043309  -0.002
C  C100  1  0.37377012  0.22413377  0.46129439  1  0.014973  0.003146  0.005124  0.063645  0.001918  4.036278  0.002
C  C101  1  0.62789284  0.77715629  0.53795830  1  0.085836  0.003373  0.004635  0.062551  0.002079  4.039606  0.002
C  C102  1  0.16267601  0.16287709  0.65040736  1  1.635241  -0.000131  0.19172  0.574059  -0.0021  4.296887  0.001
C  C103  1  0.83720589  0.83772607  0.34878080  1  1.628823  -0.000179  0.192762  0.573543  -0.002209  4.296236  0.001
C  C104  1  0.24346966  0.62756495  0.24903309  1  0.42037  -0.002796  0.029636  0.063699  -0.002047  3.969391  -0.002
C  C105  1  0.74923336  0.37569954  0.75133179  1  0.440895  0.000243  0.031629  0.061161  0.000128  3.955136  0.0
C  C106  1  0.10145666  0.67081993  0.26531693  1  -0.067479  0.005493  -0.093578  -0.134162  0.00366  4.002453  0.004
C  C107  1  0.89076304  0.33175112  0.73563338  1  0.017463  0.000375  -0.09214  -0.13398  0.000279  4.000799  0.0
C  C108  1  0.95518087  0.63466945  0.28008270  1  -0.018805  -0.005917  -0.066142  -0.018856  -0.005089  3.930076  -0.004
C  C109  1  0.03768368  0.36726317  0.72099854  1  -0.062275  0.000137  -0.063439  -0.015434  5e-06  3.927625  0.0
C  C110  1  0.95757978  0.55572254  0.27786307  1  -0.02902  0.004981  -0.091151  -0.128439  0.003378  3.967537  0.004
C  C111  1  0.03655298  0.44633816  0.72278174  1  -0.043417  0.000441  -0.090352  -0.129274  0.000202  3.967774  0.0
C  C112  1  0.10473862  0.51589064  0.26187308  1  0.440286  -0.004234  0.036643  0.080497  -0.003562  3.948982  -0.003
C  C113  1  0.89013830  0.48718227  0.73803164  1  0.425506  0.000359  0.039114  0.078993  0.000221  3.938061  0.0
C  C114  1  0.32828515  0.51019237  0.10458355  1  0.428869  -0.004368  0.040445  0.090651  -0.003332  3.934718  -0.003
C  C115  1  0.67147041  0.48929795  0.89614089  1  0.452777  -0.000249  0.039959  0.089447  -0.001859  3.932462  0.0
C  C116  1  0.30002411  0.49552803  0.04615751  1  -0.047551  0.006033  -0.092642  -0.137953  0.004  3.997287  0.005
C  C117  1  0.69999270  0.50405346  0.95449599  1  -0.055036  -0.005304  -0.092463  -0.138577  -0.004768  3.996856  -0.004
C  C118  1  0.32672121  0.41593925  0.04424884  1  -0.069907  -0.007291  -0.073945  -0.031198  -0.006259  3.953695  -0.004
C  C119  1  0.67387451  0.58369591  0.95628775  1  -0.038431  0.0025  -0.074177  -0.03146  0.001673  3.954514  0.002
C  C120  1  0.37652577  0.35359437  0.10209470  1  0.040461  0.005636  -0.087649  -0.122338  0.003785  3.953006  0.004
C  C121  1  0.62464828  0.64606138  0.89833173  1  -0.023389  -0.005331  -0.088181  -0.123225  -0.004772  3.957665  -0.004
C  C122  1  0.39996271  0.37306382  0.15890012  1  0.394645  -0.004483  0.049108  0.088525  -0.003675  3.936169  -0.003
C  C123  1  0.60145859  0.62662584  0.84148731  1  0.429728  0.00014  0.048693  0.086695  -0.001373  3.936399  0.0
C  C124  1  0.76258634  0.42341378  0.16286539  1  0.392164  -0.003884  0.033978  0.070339  -0.003128  3.970821  -0.003
C  C125  1  0.24467900  0.57489376  0.83685823  1  0.441345  0.000865  0.035597  0.067616  0.00085  3.958921  0.001
C  C126  1  0.91460984  0.38401701  0.15462754  1  -0.021283  0.004896  -0.098028  -0.146769  0.003263  4.020751  0.004
C  C127  1  0.09240499  0.61402104  0.84503855  1  -0.056411  0.001375  -0.095835  -0.14417  0.000928  4.017899  0.001
C  C128  1  0.98014088  0.33322243  0.21362991  1  -0.051175  -0.006395  -0.066475  -0.014944  -0.005493  3.920772  -0.004
C  C129  1  0.02652157  0.66468219  0.78608861  1  -0.047104  -0.000309  -0.065292  -0.014462  -0.000263  3.919468  0.0
C  C130  1  0.89059553  0.32457233  0.27886228  1  -0.018462  0.005388  -0.084989  -0.126651  0.003596  3.960954  0.004
C  C131  1  0.11613900  0.67351616  0.72083156  1  -0.019869  0.000468  -0.082869  -0.1252  0.000337  3.960039  0.0
C  C132  1  0.73954162  0.36640402  0.28293661  1  0.436792  -0.003862  0.04302  0.083488  -0.003094  3.931931  -0.003
C  C133  1  0.26760388  0.63215041  0.71655015  1  0.472427  -0.000389  0.044431  0.081304  -0.000514  3.91568  -0.001
C  C134  1  0.22237845  0.86730706  0.76334529  1  0.417919  -0.000299  0.031904  0.062582  -0.000627  3.957091  0.0
C  C135  1  0.77768139  0.13279779  0.23670807  1  0.427077  -0.000224  0.031204  0.061357  -0.000484  3.958843  0.0
C  C136  1  0.36554413  0.82299769  0.75016608  1  -0.010123  -0.00088  -0.092361  -0.132676  -0.000831  3.996133  -0.001
C  C137  1  0.63451706  0.17710583  0.24987796  1  -0.022003  -0.000428  -0.092582  -0.133203  -0.000423  3.996352  0.0
C  C138  1  0.51082899  0.86065024  0.73241172  1  -0.086482  0.000187  -0.065728  -0.021709  0.000169  3.936939  0.0
C  C139  1  0.48921967  0.13947259  0.26758740  1  -0.081506  5.4e-05  -0.065589  -0.021431  8e-05  3.937134  0.0
C  C140  1  0.50643100  0.94198496  0.72903926  1  -0.014253  -0.000784  -0.088593  -0.124725  -0.000683  3.958936  -0.001
C  C141  1  0.49360108  0.05817588  0.27087824  1  -0.013217  -0.00053  -0.089272  -0.12549  -0.00047  3.959949  0.0
C  C142  1  0.35861502  0.98292036  0.74215515  1  0.423113  -0.000229  0.03926  0.077201  -0.000454  3.932399  0.0
C  C143  1  0.64141342  0.01726768  0.25771678  1  0.461799  -0.000277  0.03867  0.07692  -0.000456  3.933802  0.0
C  C144  1  0.15044416  0.99230474  0.89605203  1  0.480184  -0.000169  0.042167  0.09104  8.8e-05  3.925434  0.0
C  C145  1  0.84932310  0.00780981  0.10364090  1  0.488625  -0.000149  0.042033  0.091458  9.4e-05  3.927443  0.0
C  C146  1  0.18541449  0.01096058  0.95153228  1  -0.030099  0.005384  -0.091052  -0.136097  0.003622  3.997976  0.004
C  C147  1  0.81435547  0.98920340  0.04813287  1  -0.063981  0.005327  -0.092236  -0.138924  0.003576  3.998854  0.004
C  C148  1  0.15550779  0.09128525  0.95141313  1  -0.008003  -0.002955  -0.073721  -0.030755  -0.002589  3.95301  -0.002
C  C149  1  0.84423005  0.90888852  0.04821721  1  0.002056  -0.002874  -0.074554  -0.031601  -0.002518  3.955492  -0.002
C  C150  1  0.09545581  0.15051201  0.89442053  1  -0.02308  0.005151  -0.087245  -0.123882  0.003526  3.956342  0.004
C  C151  1  0.90431119  0.84962011  0.10519051  1  -0.027438  0.005208  -0.087845  -0.123683  0.003541  3.958018  0.004
C  C152  1  0.06619309  0.12729276  0.84036816  1  0.458347  -0.000537  0.049074  0.088446  -0.000309  3.938092  -0.001
C  C153  1  0.93353326  0.87283621  0.15925404  1  0.469612  -0.000431  0.048527  0.088424  -0.000189  3.93982  -0.001
C  C154  1  0.73594788  0.12317967  0.71826833  1  0.44268  0.000359  0.043803  0.079523  0.000212  3.915652  0.0
C  C155  1  0.26445689  0.87688175  0.28160792  1  0.44442  0.000385  0.043456  0.079821  0.00029  3.915707  0.001
C  C156  1  0.58556953  0.16588222  0.72093381  1  -0.046705  -0.000928  -0.082912  -0.123309  -0.000847  3.955634  -0.001
C  C157  1  0.41472146  0.83409555  0.27893772  1  -0.043963  -0.000617  -0.083398  -0.123646  -0.000559  3.955517  -0.001
C  C158  1  0.49656136  0.16120696  0.78551237  1  -0.048925  0.000556  -0.064353  -0.010625  0.000359  3.920086  0.0
C  C159  1  0.50357388  0.83871152  0.21435106  1  -0.058265  0.000414  -0.063814  -0.009513  0.000266  3.921252  0.0
C  C160  1  0.56162078  0.11292807  0.84536400  1  -0.060172  -0.001769  -0.095902  -0.144374  -0.001563  4.019139  -0.001
C  C161  1  0.43846634  0.88697690  0.15451186  1  -0.061956  -0.001498  -0.096097  -0.14413  -0.001325  4.018669  -0.001
C  C162  1  0.71263131  0.07207543  0.83876383  1  0.479529  -0.000773  0.035514  0.067142  -0.001248  3.960025  -0.001
C  C163  1  0.28751502  0.92787835  0.16113811  1  0.481647  -0.000768  0.03522  0.066295  -0.001177  3.960946  -0.001
N  N164  1  0.24600212  0.55079294  0.24785274  1  -1.217898  0.071244  -0.335877  -0.236712  0.048738  3.610288  0.063
N  N165  1  0.74819321  0.45274396  0.75188298  1  -1.210471  0.008816  -0.336253  -0.209641  0.005658  3.627428  0.007
N  N166  1  0.37857407  0.45015619  0.16001124  1  -1.19798  0.080603  -0.326721  -0.224722  0.054922  3.597002  0.072
N  N167  1  0.62194556  0.54942829  0.84059689  1  -1.20275  -0.0936  -0.323299  -0.215929  -0.082646  3.594088  -0.078
N  N168  1  0.67576097  0.41478310  0.22583742  1  -1.204839  0.068971  -0.33227  -0.220517  0.047341  3.579911  0.062
N  N169  1  0.33157162  0.58389322  0.77374297  1  -1.209808  0.012861  -0.33225  -0.195221  0.008546  3.596936  0.011
N  N170  1  0.21817088  0.94649289  0.75880036  1  -1.211781  -0.015651  -0.33628  -0.210899  -0.013759  3.630275  -0.012
N  N171  1  0.78187665  0.05365596  0.24116058  1  -1.208423  -0.010865  -0.336543  -0.210658  -0.009618  3.630382  -0.009
N  N172  1  0.09102024  0.04938275  0.84132528  1  -1.217804  0.090856  -0.322973  -0.213285  0.060361  3.593239  0.076
N  N173  1  0.90871105  0.95070489  0.15834333  1  -1.219424  0.091826  -0.321744  -0.213096  0.060985  3.590194  0.077
N  N174  1  0.79933824  0.07735878  0.77630911  1  -1.216287  -0.019174  -0.332215  -0.193788  -0.017067  3.593736  -0.016
N  N175  1  0.20098889  0.92269576  0.22359706  1  -1.218959  -0.014659  -0.331688  -0.192588  -0.013162  3.592536  -0.012
Cl  Cl176  1  0.97261027  0.62348513  0.09879849  1  -0.177676  0.000635  0.035453  -0.028099  0.000304  1.712925  0.0
Cl  Cl177  1  0.02587942  0.37487497  0.90184612  1  -0.18889  0.000687  0.032929  -0.031859  0.000396  1.710136  0.0
Cl  Cl178  1  0.09996430  0.73711070  0.94704374  1  -0.190542  -0.000436  0.024256  -0.040545  -0.000392  1.652077  0.0
Cl  Cl179  1  0.89893330  0.26168675  0.05383262  1  -0.190389  -0.000495  0.025009  -0.039117  -0.000451  1.654006  0.0
Cl  Cl180  1  0.36899330  0.75788335  0.06749507  1  -0.182126  0.000626  0.023523  -0.041266  0.000355  1.658581  0.0
Cl  Cl181  1  0.62966598  0.24066648  0.93283817  1  -0.188578  0.000564  0.022454  -0.042607  0.000288  1.657724  0.0
Cl  Cl182  1  0.49633098  0.86990886  0.91495539  1  -0.185732  -0.00055  0.031479  -0.031249  -0.000522  1.695763  0.0
Cl  Cl183  1  0.50321970  0.12948007  0.08579949  1  -0.184826  -0.000509  0.031686  -0.031171  -0.000511  1.699541  0.0
Cl  Cl184  1  0.91167492  0.29177087  0.58215217  1  -0.199127  -0.000671  0.005434  -0.061694  -0.00066  1.61867  0.0
Cl  Cl185  1  0.08946796  0.70931795  0.41690375  1  -0.200997  -0.000599  0.007079  -0.060345  -0.00062  1.624731  0.0
Cl  Cl186  1  0.98750715  0.38119976  0.42170284  1  -0.194602  0.000489  0.008722  -0.053397  0.000221  1.626989  0.0
Cl  Cl187  1  0.01463490  0.62039135  0.57738174  1  -0.195883  0.000679  0.008465  -0.054026  0.000392  1.625284  0.0
Cl  Cl188  1  0.54910213  0.19679852  0.41494075  1  -0.196628  0.000614  0.006044  -0.057999  0.000344  1.616273  0.0
Cl  Cl189  1  0.45260027  0.80420439  0.58449616  1  -0.195705  0.000735  0.00532  -0.058409  0.000433  1.613975  0.0
Cl  Cl190  1  0.47538913  0.10898054  0.57599721  1  -0.194022  -0.000624  0.007215  -0.054341  -0.000567  1.616815  0.0
Cl  Cl191  1  0.52472645  0.89152805  0.42324455  1  -0.192332  -0.000647  0.008091  -0.053207  -0.000598  1.617913  0.0
O  O192  1  0.55786773  0.57910168  0.14959198  1  -1.148186  0.05796  -0.30176  -0.544347  0.038787  2.394596  0.054
O  O193  1  0.44042756  0.41863718  0.85183710  1  -1.145301  0.053729  -0.299548  -0.543367  0.035444  2.372138  0.047
O  O194  1  0.63492833  0.66214547  0.19995325  1  -1.159444  -0.000718  -0.303366  -0.527695  -0.001101  2.171356  -0.001
O  O195  1  0.36259370  0.33707031  0.80028581  1  -1.157524  0.000526  -0.305579  -0.53035  0.000155  2.169431  0.0
O  O196  1  0.83285741  0.82801189  0.81508840  1  -1.162977  -0.000562  -0.304966  -0.52977  -0.000512  2.172637  -0.001
O  O197  1  0.16806516  0.17110539  0.18557769  1  -1.166054  -0.00047  -0.303845  -0.528362  -0.000428  2.178505  0.0
O  O198  1  0.91093896  0.91400626  0.86226533  1  -1.14557  -0.048096  -0.299159  -0.5436  -0.042175  2.353476  -0.042
O  O199  1  0.08805001  0.08540359  0.13859115  1  -1.147213  -0.05192  -0.299074  -0.541996  -0.045533  2.361573  -0.045
O  O200  1  0.37761604  0.39336401  0.32957630  1  -1.153875  0.079575  -0.320455  -0.556641  0.052263  2.350955  0.074
O  O201  1  0.62167131  0.60820628  0.66764599  1  -1.143303  0.079668  -0.317029  -0.549311  0.051386  2.331995  0.071
O  O202  1  0.25709316  0.29619897  0.30914197  1  -1.165736  -0.00011  -0.318128  -0.544289  -0.000679  2.139522  0.0
O  O203  1  0.74520476  0.70224372  0.69090210  1  -1.166494  0.000744  -0.320554  -0.547474  -3.3e-05  2.136194  0.001
O  O204  1  0.20968487  0.19431163  0.68844441  1  -1.17209  -0.000786  -0.320908  -0.547886  -0.00054  2.129664  -0.001
O  O205  1  0.78880243  0.80657324  0.31089179  1  -1.172075  -0.000641  -0.319035  -0.545952  -0.00044  2.13586  -0.001
O  O206  1  0.08660790  0.09787035  0.66848183  1  -1.134095  -0.075822  -0.316911  -0.549676  -0.065058  2.323344  -0.068
O  O207  1  0.91421906  0.90245699  0.33062546  1  -1.134371  -0.079779  -0.316131  -0.54688  -0.068531  2.331589  -0.071
O  O208  1  0.56256571  0.52469894  0.30254098  1  -1.229088  0.057623  -0.557661  -0.718738  0.038313  2.148027  0.049
O  O209  1  0.43367748  0.47489366  0.69694457  1  -1.207723  -0.062839  -0.556765  -0.717253  -0.054938  2.13203  -0.051
O  O210  1  0.90381611  0.96120102  0.70719720  1  -1.205487  0.0634  -0.553229  -0.71177  0.041671  2.138343  0.051
O  O211  1  0.09656397  0.03856157  0.29357101  1  -1.200104  0.064027  -0.555928  -0.715269  0.042063  2.133775  0.052
