# generated using pymatgen
data_CdH14C24(NO2)2
_symmetry_space_group_name_H-M   'P 1'
_cell_length_a   10.73299835
_cell_length_b   13.65589346
_cell_length_c   14.69066732
_cell_angle_alpha   80.47468989
_cell_angle_beta   84.02138625
_cell_angle_gamma   67.97528876
_symmetry_Int_Tables_number   1
_chemical_formula_structural   CdH14C24(NO2)2
_chemical_formula_sum   'Cd4 H56 C96 N8 O16'
_cell_volume   1966.44785558
_cell_formula_units_Z   4
loop_
 _symmetry_equiv_pos_site_id
 _symmetry_equiv_pos_as_xyz
  1  'x, y, z'
loop_
 _atom_site_type_symbol
 _atom_site_label
 _atom_site_symmetry_multiplicity
 _atom_site_fract_x
 _atom_site_fract_y
 _atom_site_fract_z
 _atom_site_occupancy
 _atom_site_pbe_bader_charge
 _atom_site_pbe_bader_spin_density
 _atom_site_pbe_cm5_charge
 _atom_site_pbe_ddec_charge
 _atom_site_pbe_ddec_spin_density
 _atom_site_pbe_ddec_sum_bond_order
 _atom_site_pbe_magmom
Cd  Cd0  1  0.92470518  0.00244052  0.11659584  1  1.303442  0  0.786396  0.935151  0  2.154583  0
Cd  Cd1  1  0.07529603  0.99755921  0.88340434  1  1.303413  0  0.786403  0.935175  0  2.154594  0
Cd  Cd2  1  0.95717913  0.95254273  0.38968250  1  1.314992  0  0.780883  0.942134  0  2.12707  0
Cd  Cd3  1  0.04282244  0.04745620  0.61031710  1  1.31499  0  0.780874  0.942104  0  2.127102  0
H  H4  1  0.39585867  0.65190475  0.99835818  1  0.076492  0  0.0992  0.099174  0  1.051767  0
H  H5  1  0.60414197  0.34809418  0.00164081  1  0.076515  0  0.099195  0.099165  0  1.051788  0
H  H6  1  0.62204751  0.50994863  0.01677026  1  0.07338  0  0.10137  0.104336  0  1.017145  0
H  H7  1  0.37795219  0.49005030  0.98323016  1  0.073393  0  0.101382  0.104354  0  1.017126  0
H  H8  1  0.80280353  0.38911833  0.11813886  1  0.101638  0  0.100714  0.106776  0  1.037885  0
H  H9  1  0.19719654  0.61087980  0.88186166  1  0.10165  0  0.100722  0.106761  0  1.03792  0
H  H10  1  0.78628135  0.40366193  0.28668347  1  0.062469  0  0.097431  0.098506  0  1.028465  0
H  H11  1  0.21371855  0.59633860  0.71331669  1  0.062495  0  0.09743  0.098535  0  1.028442  0
H  H12  1  0.58689223  0.53971830  0.35346891  1  0.057597  0  0.097849  0.096179  0  1.002158  0
H  H13  1  0.41310673  0.46028222  0.64653064  1  0.057594  0  0.097862  0.096184  0  1.002177  0
H  H14  1  0.36337469  0.69195948  0.33078605  1  0.085779  0  0.103356  0.108183  0  1.009599  0
H  H15  1  0.63662427  0.30804105  0.66921349  1  0.085764  0  0.103344  0.108157  0  1.009625  0
H  H16  1  0.04727312  0.27035741  0.10309053  1  0.109361  0  0.109566  0.120989  0  1.01594  0
H  H17  1  0.95272585  0.72964311  0.89690969  1  0.109346  0  0.109557  0.120987  0  1.01597  0
H  H18  1  0.08920130  0.43717151  0.04010796  1  0.053711  0  0.097536  0.09491  0  1.038907  0
H  H19  1  0.91080007  0.56282583  0.95989258  1  0.053706  0  0.097535  0.094901  0  1.038843  0
H  H20  1  0.12542954  0.60029251  0.06702236  1  0.129436  0  0.100072  0.107756  0  1.041687  0
H  H21  1  0.87457276  0.39970482  0.93297538  1  0.129455  0  0.100049  0.10773  0  1.041723  0
H  H22  1  0.12045220  0.63827676  0.22638683  1  0.088185  0  0.097388  0.097874  0  1.052389  0
H  H23  1  0.87954696  0.36172535  0.77361040  1  0.088129  0  0.097388  0.097881  0  1.052349  0
H  H24  1  0.08895037  0.51206436  0.36145431  1  0.05402  0  0.099583  0.100557  0  0.997346  0
H  H25  1  0.91104712  0.48793935  0.63854417  1  0.053999  0  0.099611  0.100607  0  0.99731  0
H  H26  1  0.05141249  0.34209577  0.42345829  1  0.091127  0  0.101105  0.107618  0  1.012673  0
H  H27  1  0.94858891  0.65790556  0.57654230  1  0.09114  0  0.10111  0.107645  0  1.012621  0
H  H28  1  0.72613552  0.23788441  0.18305977  1  0.136531  0  0.116642  0.092082  0  1.013728  0
H  H29  1  0.27386625  0.76211611  0.81693955  1  0.136554  0  0.11667  0.092088  0  1.013698  0
H  H30  1  0.48129786  0.35077811  0.19879886  1  0.120598  0  0.107183  0.114889  0  1.000685  0
H  H31  1  0.51870504  0.64922400  0.80119741  1  0.121214  0  0.107196  0.114892  0  1.000735  0
H  H32  1  0.31049169  0.27290921  0.17585075  1  0.109932  0  0.102803  0.103338  0  1.039219  0
H  H33  1  0.68950935  0.72709291  0.82414702  1  0.109978  0  0.102811  0.1033  0  1.039286  0
H  H34  1  0.26178839  0.11540743  0.14221262  1  0.088324  0  0.102444  0.111069  0  1.055634  0
H  H35  1  0.73821133  0.88459549  0.85778649  1  0.088356  0  0.102436  0.111063  0  1.055614  0
H  H36  1  0.34401272  0.93299649  0.10656218  1  0.097454  0  0.10741  0.123225  0  1.002352  0
H  H37  1  0.65598457  0.06700563  0.89343997  1  0.097393  0  0.10741  0.123266  0  1.002356  0
H  H38  1  0.53886460  0.76593195  0.07755036  1  0.092118  0  0.102582  0.101754  0  1.041947  0
H  H39  1  0.46112988  0.23407017  0.92245133  1  0.093042  0  0.102586  0.101768  0  1.042013  0
H  H40  1  0.78847923  0.66923797  0.06282591  1  0.045419  0  0.102969  0.103962  0  1.025091  0
H  H41  1  0.21151599  0.33076255  0.93717529  1  0.045561  0  0.102932  0.103898  0  1.025037  0
H  H42  1  0.94056668  0.76813924  0.07528596  1  0.136839  0  0.117258  0.08962  0  1.031873  0
H  H43  1  0.05943021  0.23185968  0.92471400  1  0.136802  0  0.117264  0.089597  0  1.031881  0
H  H44  1  0.77307764  0.18918353  0.46267783  1  0.148365  0  0.117183  0.095778  0  1.017554  0
H  H45  1  0.22692299  0.81081540  0.53732047  1  0.148222  0  0.117182  0.095798  0  1.01754  0
H  H46  1  0.53570050  0.31828952  0.46688157  1  0.055038  0  0.106747  0.108593  0  0.992111  0
H  H47  1  0.46430013  0.68170941  0.53311810  1  0.055005  0  0.106754  0.108606  0  0.992185  0
H  H48  1  0.35119553  0.26235925  0.42826263  1  0.071294  0  0.107799  0.108486  0  0.987055  0
H  H49  1  0.64880547  0.73763888  0.57173714  1  0.071297  0  0.107794  0.10843  0  0.987039  0
H  H50  1  0.28476408  0.11886126  0.38598124  1  0.092693  0  0.101837  0.10816  0  1.032196  0
H  H51  1  0.71523524  0.88113846  0.61401772  1  0.092688  0  0.101834  0.108172  0  1.032177  0
H  H52  1  0.34789554  0.93909346  0.34326505  1  0.145724  0  0.111242  0.13079  0  0.994306  0
H  H53  1  0.65210509  0.06090547  0.65673461  1  0.145742  0  0.111242  0.130792  0  0.99431  0
H  H54  1  0.53020864  0.76747908  0.30926165  1  0.106692  0  0.106006  0.105686  0  1.024953  0
H  H55  1  0.46979143  0.23251905  0.69073818  1  0.106707  0  0.105999  0.105687  0  1.024945  0
H  H56  1  0.77636093  0.65325814  0.30396688  1  0.109241  0  0.104238  0.109442  0  1.017877  0
H  H57  1  0.22363970  0.34674079  0.69603278  1  0.109284  0  0.104218  0.109445  0  1.01779  0
H  H58  1  0.94227616  0.72924696  0.34023975  1  0.090002  0  0.117757  0.090442  0  0.994794  0
H  H59  1  0.05772316  0.27075276  0.65975921  1  0.090011  0  0.117748  0.090425  0  0.994715  0
C  C60  1  0.17249140  0.80293508  0.03725827  1  1.635315  0  0.201158  0.576689  0  4.224188  0
C  C61  1  0.82750830  0.19706386  0.96274283  1  1.635327  0  0.201215  0.576727  0  4.224232  0
C  C62  1  0.27821989  0.73725914  0.10613826  1  -0.058516  0  -0.009863  -0.034166  0  3.926046  0
C  C63  1  0.72177980  0.26273978  0.89386080  1  -0.05849  0  -0.009898  -0.034183  0  3.925972  0
C  C64  1  0.39022689  0.66038909  0.07133097  1  -0.010274  0  -0.088994  -0.164766  0  3.971133  0
C  C65  1  0.60977150  0.33961064  0.92867011  1  -0.00695  0  -0.088986  -0.164748  0  3.971021  0
C  C66  1  0.49789077  0.59282424  0.12696064  1  -0.080614  0  -0.011742  0.068317  0  4.026716  0
C  C67  1  0.50210819  0.40717628  0.87303891  1  -0.083958  0  -0.011755  0.068289  0  4.02672  0
C  C68  1  0.61416602  0.51587852  0.09047094  1  -0.018852  0  -0.090761  -0.134116  0  3.96951  0
C  C69  1  0.38583405  0.48411961  0.90952889  1  -0.018923  0  -0.090751  -0.134118  0  3.969483  0
C  C70  1  0.71571418  0.44926598  0.14709692  1  -0.087433  0  -0.092785  -0.085947  0  4.008554  0
C  C71  1  0.28428458  0.55073295  0.85290289  1  -0.087374  0  -0.092793  -0.085902  0  4.008652  0
C  C72  1  0.70557085  0.45737970  0.24271503  1  -0.017011  0  -0.094686  -0.083161  0  4.010088  0
C  C73  1  0.29442979  0.54261923  0.75728600  1  -0.017028  0  -0.094715  -0.083249  0  4.010211  0
C  C74  1  0.59449053  0.53272518  0.27989831  1  -0.091214  0  -0.094598  -0.141118  0  3.998222  0
C  C75  1  0.40550880  0.46727454  0.72010133  1  -0.091216  0  -0.094559  -0.141021  0  3.998166  0
C  C76  1  0.48844508  0.60279335  0.22336244  1  -0.052209  0  -0.012606  0.064887  0  4.026117  0
C  C77  1  0.51155425  0.39720637  0.77663788  1  -0.052212  0  -0.012639  0.064792  0  4.026143  0
C  C78  1  0.37377522  0.68302816  0.25755187  1  -0.007275  0  -0.084966  -0.156265  0  3.968399  0
C  C79  1  0.62622374  0.31697236  0.74244699  1  -0.007264  0  -0.084925  -0.156155  0  3.968317  0
C  C80  1  0.27091132  0.75017390  0.20144748  1  -0.053505  0  -0.01341  -0.04807  0  3.945284  0
C  C81  1  0.72909083  0.24982583  0.79855262  1  -0.053493  0  -0.01343  -0.048155  0  3.94539  0
C  C82  1  0.14729513  0.82583870  0.24621344  1  1.588401  0  0.200555  0.574867  0  4.214742  0
C  C83  1  0.85270534  0.17416261  0.75378518  1  1.588364  0  0.200579  0.574893  0  4.214707  0
C  C84  1  0.00460963  0.12329174  0.22322768  1  1.587232  0  0.20135  0.575994  0  4.206866  0
C  C85  1  0.99539141  0.87671038  0.77677349  1  1.587255  0  0.201366  0.575958  0  4.206906  0
C  C86  1  0.03528289  0.21454401  0.24661485  1  -0.050727  0  -0.008466  -0.032936  0  3.925226  0
C  C87  1  0.96471701  0.78545652  0.75338531  1  -0.05071  0  -0.008503  -0.032939  0  3.925225  0
C  C88  1  0.05110627  0.28684815  0.17275230  1  -0.003346  0  -0.080672  -0.154355  0  3.944094  0
C  C89  1  0.94889232  0.71315317  0.82724783  1  -0.00335  0  -0.080671  -0.154398  0  3.944166  0
C  C90  1  0.06869212  0.38126277  0.18550424  1  -0.072157  0  -0.010533  0.066731  0  4.025159  0
C  C91  1  0.93130685  0.61873775  0.81449667  1  -0.072413  0  -0.010515  0.066752  0  4.025138  0
C  C92  1  0.08853032  0.45432882  0.11012453  1  -0.075328  0  -0.092901  -0.141993  0  3.986578  0
C  C93  1  0.91146938  0.54567011  0.88987521  1  -0.075334  0  -0.092887  -0.141892  0  3.986518  0
C  C94  1  0.10838941  0.54449258  0.12487648  1  -0.052518  0  -0.092787  -0.079726  0  3.989686  0
C  C95  1  0.89161179  0.45550714  0.87512166  1  -0.052542  0  -0.09277  -0.079812  0  3.989768  0
C  C96  1  0.10711202  0.56573941  0.21621450  1  0.000154  0  -0.092891  -0.076456  0  4.000963  0
C  C97  1  0.89288713  0.43426270  0.78378342  1  0.000198  0  -0.092871  -0.076323  0  4.000978  0
C  C98  1  0.08875601  0.49598949  0.29104741  1  -0.122293  0  -0.093926  -0.14165  0  3.992907  0
C  C99  1  0.91124185  0.50401343  0.70895252  1  -0.122246  0  -0.093934  -0.141765  0  3.993099  0
C  C100  1  0.06971415  0.40195747  0.27796951  1  -0.021623  0  -0.011707  0.066778  0  4.032079  0
C  C101  1  0.93028538  0.59804385  0.72202987  1  -0.021331  0  -0.01174  0.066775  0  4.032102  0
C  C102  1  0.05168044  0.32751347  0.35256751  1  -0.027829  0  -0.086754  -0.160029  0  3.972592  0
C  C103  1  0.94832154  0.67248865  0.64743291  1  -0.027995  0  -0.086762  -0.160081  0  3.972587  0
C  C104  1  0.03485766  0.23537980  0.33886427  1  -0.064025  0  -0.013407  -0.046095  0  3.950386  0
C  C105  1  0.96514355  0.76461993  0.66113659  1  -0.0639  0  -0.013452  -0.046168  0  3.950459  0
C  C106  1  0.02593395  0.15845377  0.42330137  1  1.559822  0  0.195096  0.561451  0  4.229592  0
C  C107  1  0.97406689  0.84154676  0.57669871  1  1.559763  0  0.195123  0.561497  0  4.229488  0
C  C108  1  0.64909643  0.20781283  0.17210147  1  0.507019  0  0.056569  0.120057  0  3.931064  0
C  C109  1  0.35090440  0.79218769  0.82789657  1  0.507069  0  0.056579  0.120146  0  3.930877  0
C  C110  1  0.51152122  0.27030661  0.18122704  1  -0.049433  0  -0.086529  -0.136195  0  3.987915  0
C  C111  1  0.48848148  0.72969391  0.81877017  1  -0.050054  0  -0.086521  -0.136186  0  3.987789  0
C  C112  1  0.41788416  0.22736886  0.16837943  1  -0.109597  0  -0.065416  -0.067778  0  3.917844  0
C  C113  1  0.58211744  0.77263405  0.83161817  1  -0.109683  0  -0.065424  -0.06774  0  3.917942  0
C  C114  1  0.46127123  0.12249626  0.14617912  1  0.036605  0  -0.002157  0.041755  0  4.009205  0
C  C115  1  0.53873147  0.87750427  0.85381877  1  0.036112  0  -0.002185  0.041686  0  4.009259  0
C  C116  1  0.36972397  0.07220531  0.13456131  1  0.081867  0  -0.084104  -0.113531  0  3.968953  0
C  C117  1  0.63027353  0.92779841  0.86543853  1  0.082337  0  -0.084093  -0.113477  0  3.968962  0
C  C118  1  0.41558142  0.97002501  0.11483493  1  -0.115072  0  -0.08075  -0.107962  0  3.938489  0
C  C119  1  0.58441775  0.02997712  0.88516776  1  -0.11513  0  -0.080776  -0.108083  0  3.938593  0
C  C120  1  0.55683524  0.91086026  0.10431055  1  -0.06124  0  -0.002144  0.038442  0  4.018417  0
C  C121  1  0.44316222  0.08913947  0.89569128  1  -0.061197  0  -0.002111  0.038558  0  4.018415  0
C  C122  1  0.60852490  0.80478235  0.08494623  1  0.079102  0  -0.065718  -0.071638  0  3.935484  0
C  C123  1  0.39147297  0.19522058  0.91505643  1  0.078215  0  -0.065669  -0.071627  0  3.935402  0
C  C124  1  0.74595469  0.75188924  0.07590078  1  -0.101268  0  -0.083905  -0.128157  0  3.976111  0
C  C125  1  0.25403997  0.24811049  0.92410127  1  -0.101453  0  -0.083962  -0.128176  0  3.976112  0
C  C126  1  0.83179391  0.80605845  0.08424850  1  0.550947  0  0.060481  0.121828  0  3.910965  0
C  C127  1  0.16820542  0.19394128  0.91575318  1  0.550911  0  0.060483  0.121866  0  3.911048  0
C  C128  1  0.65123050  0.95862796  0.11379097  1  0.528271  0  0.119432  0.121657  0  3.970817  0
C  C129  1  0.34876883  0.04137177  0.88621003  1  0.528227  0  0.119425  0.121655  0  3.970853  0
C  C130  1  0.60239900  0.06617891  0.13670642  1  0.470664  0  0.117319  0.120807  0  3.968065  0
C  C131  1  0.39760073  0.93382401  0.86329337  1  0.470822  0  0.11735  0.120855  0  3.967943  0
C  C132  1  0.69179802  0.16793016  0.44375147  1  0.498933  0  0.061075  0.120785  0  3.91098  0
C  C133  1  0.30820299  0.83206797  0.55624830  1  0.499044  0  0.061135  0.120828  0  3.910917  0
C  C134  1  0.55759066  0.23985293  0.44704960  1  -0.001135  0  -0.085937  -0.134043  0  4.001036  0
C  C135  1  0.44241165  0.76014441  0.55295087  1  -0.001026  0  -0.085974  -0.134141  0  4.001138  0
C  C136  1  0.45653955  0.20909706  0.42573382  1  -0.059789  0  -0.065827  -0.078898  0  3.956919  0
C  C137  1  0.54345921  0.79090186  0.57426532  1  -0.059903  0  -0.065754  -0.078697  0  3.956806  0
C  C138  1  0.48969382  0.10633679  0.40105325  1  0.04407  0  -0.003192  0.03876  0  4.015167  0
C  C139  1  0.51030587  0.89366213  0.59894649  1  0.043998  0  -0.00325  0.038688  0  4.015153  0
C  C140  1  0.39030264  0.06740527  0.38131332  1  -0.103542  0  -0.084842  -0.111731  0  3.96662  0
C  C141  1  0.60969742  0.93259286  0.61868720  1  -0.103503  0  -0.084857  -0.111737  0  3.966568  0
C  C142  1  0.42533372  0.96774139  0.35741578  1  0.032164  0  -0.079966  -0.110135  0  3.948835  0
C  C143  1  0.57466598  0.03225753  0.64258328  1  0.032176  0  -0.079952  -0.110115  0  3.948906  0
C  C144  1  0.56402283  0.89970780  0.35108326  1  0.038415  0  -0.003172  0.037194  0  4.009908  0
C  C145  1  0.43597874  0.10029112  0.64891565  1  0.038475  0  -0.003191  0.037174  0  4.009901  0
C  C146  1  0.60588348  0.79609827  0.32635678  1  -0.062989  0  -0.065168  -0.073483  0  3.941346  0
C  C147  1  0.39411659  0.20389986  0.67364373  1  -0.063126  0  -0.065131  -0.073457  0  3.941342  0
C  C148  1  0.74112293  0.73323634  0.32333699  1  -0.068865  0  -0.089768  -0.143056  0  3.996956  0
C  C149  1  0.25887787  0.26676019  0.67666304  1  -0.068983  0  -0.089842  -0.143198  0  3.997089  0
C  C150  1  0.83463868  0.77530784  0.34362135  1  0.545517  0  0.057078  0.120207  0  3.948215  0
C  C151  1  0.16536362  0.22468950  0.65637843  1  0.545691  0  0.057194  0.120393  0  3.948272  0
C  C152  1  0.66620172  0.93514023  0.37057632  1  0.432921  0  0.118313  0.124837  0  3.964491  0
C  C153  1  0.33379741  0.06485789  0.62942359  1  0.433042  0  0.118259  0.124871  0  3.964435  0
C  C154  1  0.62846305  0.04029311  0.39712246  1  0.476572  0  0.119217  0.122084  0  3.967191  0
C  C155  1  0.37153738  0.95970422  0.60287747  1  0.476568  0  0.119223  0.121897  0  3.967319  0
N  N156  1  0.69275388  0.10943734  0.15007920  1  -1.218829  0  -0.317557  -0.269779  0  3.481235  0
N  N157  1  0.30724732  0.89056239  0.84992097  1  -1.21878  0  -0.317595  -0.269848  0  3.48112  0
N  N158  1  0.78564261  0.90611053  0.10265737  1  -1.241988  0  -0.3152  -0.252566  0  3.458184  0
N  N159  1  0.21435615  0.09388840  0.89734312  1  -1.242006  0  -0.315203  -0.252596  0  3.458156  0
N  N160  1  0.72602364  0.07172265  0.41860227  1  -1.199393  0  -0.3083  -0.250466  0  3.466391  0
N  N161  1  0.27397606  0.92827628  0.58139747  1  -1.199406  0  -0.308273  -0.250322  0  3.466456  0
N  N162  1  0.79844970  0.87309432  0.36561494  1  -1.222755  0  -0.317211  -0.2717  0  3.487375  0
N  N163  1  0.20155094  0.12690460  0.63438473  1  -1.22282  0  -0.317239  -0.27179  0  3.487526  0
O  O164  1  0.13219093  0.90568918  0.03246036  1  -1.190491  0  -0.343447  -0.589429  0  2.340828  0
O  O165  1  0.86780803  0.09431134  0.96753987  1  -1.190472  0  -0.343445  -0.589402  0  2.340801  0
O  O166  1  0.13861419  0.75387402  0.98559932  1  -1.186324  0  -0.31489  -0.5454  0  2.165931  0
O  O167  1  0.86138364  0.24612491  0.01440057  1  -1.186301  0  -0.314931  -0.545436  0  2.166052  0
O  O168  1  0.03432645  0.84289980  0.21361411  1  -1.188407  0  -0.337451  -0.600633  0  2.329938  0
O  O169  1  0.96567569  0.15709993  0.78638600  1  -1.188386  0  -0.337469  -0.600679  0  2.329877  0
O  O170  1  0.16247956  0.86269616  0.31647763  1  -1.143653  0  -0.318534  -0.524812  0  2.214152  0
O  O171  1  0.83752221  0.13730437  0.68352169  1  -1.143646  0  -0.318529  -0.524768  0  2.21419  0
O  O172  1  0.91079634  0.09909601  0.27003052  1  -1.186322  0  -0.3381  -0.602604  0  2.352644  0
O  O173  1  0.08920393  0.90090372  0.72997041  1  -1.186346  0  -0.338133  -0.602631  0  2.352725  0
O  O174  1  0.06519170  0.08156372  0.15225061  1  -1.135413  0  -0.309878  -0.509443  0  2.239761  0
O  O175  1  0.93480970  0.91843760  0.84774794  1  -1.135424  0  -0.309842  -0.509381  0  2.239876  0
O  O176  1  0.07929293  0.05854737  0.41967425  1  -1.171622  0  -0.330908  -0.568387  0  2.278724  0
O  O177  1  0.92070604  0.94145316  0.58032733  1  -1.171541  0  -0.330899  -0.568362  0  2.278703  0
O  O178  1  0.97136725  0.19839511  0.49667118  1  -1.157074  0  -0.333654  -0.558913  0  2.210669  0
O  O179  1  0.02863228  0.80160621  0.50332888  1  -1.15706  0  -0.333681  -0.55895  0  2.210673  0
