# generated using pymatgen
data_ZnH4C17NCl3O4F5
_symmetry_space_group_name_H-M   'P 1'
_cell_length_a   12.20156063
_cell_length_b   13.07844786
_cell_length_c   16.02665932
_cell_angle_alpha   89.73497862
_cell_angle_beta   87.00980373
_cell_angle_gamma   86.24113607
_symmetry_Int_Tables_number   1
_chemical_formula_structural   ZnH4C17NCl3O4F5
_chemical_formula_sum   'Zn2 H8 C34 N2 Cl6 O8 F10'
_cell_volume   2548.51565370
_cell_formula_units_Z   2
loop_
 _symmetry_equiv_pos_site_id
 _symmetry_equiv_pos_as_xyz
  1  'x, y, z'
loop_
 _atom_site_type_symbol
 _atom_site_label
 _atom_site_symmetry_multiplicity
 _atom_site_fract_x
 _atom_site_fract_y
 _atom_site_fract_z
 _atom_site_occupancy
 _atom_site_pbe_bader_charge
 _atom_site_pbe_bader_spin_density
 _atom_site_pbe_cm5_charge
 _atom_site_pbe_ddec_charge
 _atom_site_pbe_ddec_spin_density
 _atom_site_pbe_ddec_sum_bond_order
 _atom_site_pbe_magmom
Zn  Zn0  1  0.61612392  0.51004321  0.49881466  1  1.306681  0  0.671143  0.863591  0  2.359334  0
Zn  Zn1  1  0.38293113  0.50153673  0.50033960  1  1.301775  0  0.668108  0.862376  0  2.343989  0
H  H2  1  0.58033391  0.63304093  0.91745745  1  0.117917  0  0.108833  0.078837  0  0.958839  0
H  H3  1  0.36265057  0.18493136  0.53032713  1  0.127803  0  0.09907  0.112023  0  1.041816  0
H  H4  1  0.28539258  0.82691807  0.54768524  1  0.112086  0  0.106823  0.127921  0  0.999809  0
H  H5  1  0.62717537  0.82569681  0.46778592  1  0.143789  0  0.106208  0.11967  0  1.012904  0
H  H6  1  0.53390946  0.64089519  0.05898021  1  0.083796  0  0.110632  0.070098  0  0.955098  0
H  H7  1  0.97449206  0.65407612  0.37872532  1  0.156687  0  0.124622  0.15915  0  0.99237  0
H  H8  1  0.36547825  0.58588487  0.08897595  1  0.092328  0  0.110494  0.075985  0  0.959359  0
H  H9  1  0.32438500  0.48365445  0.93814521  1  0.150609  0  0.122114  0.131724  0  0.938089  0
C  C10  1  0.46578180  0.70145412  0.50319726  1  1.521665  0  0.217681  0.602544  0  4.147111  0
C  C11  1  0.45788669  0.81619083  0.50689485  1  0.153694  0  -0.013768  -0.003551  0  3.967477  0
C  C12  1  0.35023277  0.97538804  0.53450344  1  0.035906  0  0.017311  0.113253  0  4.022254  0
C  C13  1  0.51544212  0.49927355  0.33836701  1  1.66621  0  0.223551  0.679216  0  4.213495  0
C  C14  1  0.35680101  0.86998402  0.53129503  1  -0.020081  0  -0.094104  -0.174587  0  3.970214  0
C  C15  1  0.55045919  0.86849676  0.48642029  1  -0.116361  0  -0.080055  -0.12575  0  3.927078  0
C  C16  1  0.54475453  0.97652559  0.48932321  1  0.007665  0  -0.009941  0.001946  0  4.041153  0
C  C17  1  0.44308521  0.03320257  0.51327551  1  0.043916  0  -0.009207  0.026954  0  3.99812  0
C  C18  1  0.43943018  0.14109497  0.51372471  1  0.046762  0  -0.084506  -0.125367  0  3.95188  0
C  C19  1  0.63228958  0.13867400  0.47123936  1  0.458763  0  0.094955  0.155869  0  4.070862  0
C  C20  1  0.63739116  0.03306345  0.46866964  1  0.554319  0  0.090971  0.120558  0  4.062557  0
C  C21  1  0.59159652  0.55733701  0.94680419  1  0.532967  0  0.024867  0.107613  0  3.825328  0
C  C22  1  0.05525536  0.40229560  0.57245853  1  0.575811  0  0.108114  0.115142  0  4.069466  0
C  C23  1  0.16617203  0.41450632  0.55692117  1  1.199265  0  0.231428  0.323446  0  4.089268  0
C  C24  1  0.13635161  0.54438686  0.46189234  1  0.704125  0  0.168677  0.252029  0  3.992902  0
C  C25  1  0.52070340  0.30925878  0.49615361  1  1.62102  0  0.218874  0.623397  0  4.14805  0
C  C26  1  0.01989664  0.53749553  0.47101283  1  0.078911  0  0.010442  0.052434  0  4.005846  0
C  C27  1  0.97744809  0.46549122  0.53022474  1  0.045464  0  0.003859  -0.083822  0  3.979653  0
C  C28  1  0.86005814  0.46394305  0.54119095  1  0.74979  0  0.179471  0.294706  0  3.976689  0
C  C29  1  0.83602637  0.58584874  0.43798039  1  1.023462  0  0.242672  0.458426  0  4.056227  0
C  C30  1  0.94606813  0.59877541  0.42434468  1  0.095784  0  -0.086415  -0.28407  0  3.954302  0
C  C31  1  0.49412246  0.50531648  0.66113885  1  1.652032  0  0.222412  0.678252  0  4.214774  0
C  C32  1  0.50180794  0.48890313  0.91686299  1  0.109413  0  -0.007177  0.002021  0  3.896718  0
C  C33  1  0.57954146  0.56741754  0.04325107  1  0.534844  0  0.031234  0.123885  0  3.813663  0
C  C34  1  0.39183633  0.51371940  0.05690557  1  0.557216  0  0.028081  0.141216  0  3.823935  0
C  C35  1  0.38967745  0.52764203  0.96120079  1  0.072514  0  -0.044079  -0.026342  0  3.760287  0
C  C36  1  0.49289161  0.49977687  0.75158084  1  0.383054  0  -0.036424  -0.14941  0  3.927815  0
C  C37  1  0.51025156  0.48103469  0.08296494  1  0.086014  0  -0.010895  -0.03785  0  3.91527  0
C  C38  1  0.52336092  0.37512246  0.94826123  1  0.667629  0  0.128704  0.234959  0  3.810355  0
C  C39  1  0.55234707  0.37578436  0.04344177  1  0.707085  0  0.125953  0.2368  0  3.842443  0
C  C40  1  0.49631192  0.49289001  0.82686026  1  -0.563996  0  -0.050081  -0.05748  0  4.092707  0
C  C41  1  0.51567836  0.48207584  0.17291882  1  -0.554778  0  -0.044784  -0.043433  0  4.081632  0
C  C42  1  0.51730064  0.49028360  0.24814510  1  0.375726  0  -0.034532  -0.149064  0  3.920812  0
C  C43  1  0.53166888  0.19444356  0.49344529  1  0.015484  0  -0.016927  -0.099763  0  3.967963  0
N  N44  1  0.79251959  0.52145689  0.49480404  1  -1.213325  0  -0.298207  -0.331967  0  3.414004  0
N  N45  1  0.20625943  0.48487953  0.50437405  1  -1.240252  0  -0.295068  -0.303701  0  3.466812  0
Cl  Cl46  1  0.22576336  0.03925754  0.56527244  1  -0.213074  0  -0.019892  -0.093136  0  1.436273  0
Cl  Cl47  1  0.80216949  0.39033539  0.61635569  1  -0.051548  0  0.100401  0.049846  0  1.603487  0
Cl  Cl48  1  0.18832148  0.63167692  0.39413669  1  -0.088374  0  0.088806  0.026965  0  1.558453  0
Cl  Cl49  1  0.35474242  0.65873998  0.93483825  1  -0.227541  0  -0.028819  -0.10335  0  1.346792  0
Cl  Cl50  1  0.50003946  0.26997743  0.09716225  1  -0.141745  0  -0.013769  -0.085225  0  1.417606  0
Cl  Cl51  1  0.62480991  0.30374900  0.88738661  1  -0.132976  0  -0.007026  -0.07702  0  1.441822  0
O  O52  1  0.56011567  0.65870964  0.48341873  1  -1.167948  0  -0.318436  -0.557526  0  2.381893  0
O  O53  1  0.37799876  0.65563013  0.51958522  1  -1.160957  0  -0.321439  -0.552445  0  2.330173  0
O  O54  1  0.60690751  0.48442794  0.37239151  1  -1.140519  0  -0.310759  -0.534501  0  2.253481  0
O  O55  1  0.42136572  0.52154674  0.37420405  1  -1.14185  0  -0.318301  -0.563649  0  2.307881  0
O  O56  1  0.60443490  0.35567815  0.51446434  1  -1.155904  0  -0.318527  -0.561429  0  2.386907  0
O  O57  1  0.42633975  0.35026807  0.48107133  1  -1.156683  0  -0.316667  -0.542713  0  2.333917  0
O  O58  1  0.58341510  0.53160659  0.62521856  1  -1.143394  0  -0.316523  -0.551645  0  2.287833  0
O  O59  1  0.40715537  0.48270127  0.62705420  1  -1.138554  0  -0.312778  -0.544941  0  2.269475  0
F  F60  1  0.68152319  0.57020272  0.07681900  1  -0.607989  0  -0.123829  -0.145475  0  1.300416  0
F  F61  1  0.66529927  0.36753048  0.04823592  1  -0.603781  0  -0.106593  -0.142186  0  1.382229  0
F  F62  1  0.69605982  0.51679581  0.92122131  1  -0.607429  0  -0.129567  -0.152962  0  1.320251  0
F  F63  1  0.42542353  0.32796363  0.94114961  1  -0.602903  0  -0.107486  -0.150184  0  1.365874  0
F  F64  1  0.72429879  0.18672700  0.44947421  1  -0.615411  0  -0.097267  -0.113783  0  1.372922  0
F  F65  1  0.73422876  0.98165098  0.44498099  1  -0.620108  0  -0.099187  -0.12195  0  1.346263  0
F  F66  1  0.76339494  0.64095231  0.39388131  1  -0.615088  0  -0.052584  -0.101454  0  1.367423  0
F  F67  1  0.02707491  0.32899334  0.62668598  1  -0.607376  0  -0.071947  -0.09165  0  1.433562  0
F  F68  1  0.23852579  0.35348547  0.59612217  1  -0.602235  0  -0.047939  -0.078031  0  1.41881  0
F  F69  1  0.31716138  0.44209078  0.08292452  1  -0.617802  0  -0.131003  -0.161443  0  1.285621  0
