# generated using pymatgen
data_Zn3H14C20(BrO7)2
_symmetry_space_group_name_H-M   'P 1'
_cell_length_a   18.71456392
_cell_length_b   18.90284744
_cell_length_c   19.14599862
_cell_angle_alpha   109.98711710
_cell_angle_beta   108.72935660
_cell_angle_gamma   108.99227879
_symmetry_Int_Tables_number   1
_chemical_formula_structural   Zn3H14C20(BrO7)2
_chemical_formula_sum   'Zn6 H28 C40 Br4 O28'
_cell_volume   5258.24219669
_cell_formula_units_Z   2
loop_
 _symmetry_equiv_pos_site_id
 _symmetry_equiv_pos_as_xyz
  1  'x, y, z'
loop_
 _atom_site_type_symbol
 _atom_site_label
 _atom_site_symmetry_multiplicity
 _atom_site_fract_x
 _atom_site_fract_y
 _atom_site_fract_z
 _atom_site_occupancy
 _atom_site_pbe_bader_charge
 _atom_site_pbe_bader_spin_density
 _atom_site_pbe_cm5_charge
 _atom_site_pbe_ddec_charge
 _atom_site_pbe_ddec_spin_density
 _atom_site_pbe_ddec_sum_bond_order
 _atom_site_pbe_magmom
Zn  Zn0  1  0.00018762  0.55044017  0.04892286  1  1.30659  0  0.725947  0.963075  0  2.129452  0
Zn  Zn1  1  0.00260599  0.42960179  0.92379233  1  1.298964  0  0.723537  0.950573  0  2.11745  0
Zn  Zn2  1  0.55969686  0.57335955  0.51746933  1  1.313369  0  0.718073  0.952726  0  2.177114  0
Zn  Zn3  1  0.43237230  0.44739496  0.51113096  1  1.308082  0  0.715674  0.949474  0  2.145678  0
Zn  Zn4  1  0.44401674  0.01896862  0.95469919  1  1.302989  0  0.716033  0.952361  0  2.15324  0
Zn  Zn5  1  0.56378598  0.01799287  0.07878157  1  1.307982  0  0.714226  0.95094  0  2.156836  0
H  H6  1  0.74452391  0.54630685  0.67176021  1  0.136111  0  0.109176  0.119449  0  0.987113  0
H  H7  1  0.18384611  0.41620126  0.32704063  1  0.111017  0  0.108585  0.115926  0  0.983754  0
H  H8  1  0.48789625  0.23289888  0.19027678  1  0.104891  0  0.117607  0.149316  0  0.976286  0
H  H9  1  0.59240592  0.82361285  0.89378643  1  0.095699  0  0.119557  0.153008  0  0.968653  0
H  H10  1  0.66339600  0.43577303  0.36940257  1  0.117225  0  0.113919  0.125174  0  0.976094  0
H  H11  1  0.41934080  0.62674622  0.70009279  1  0.115669  0  0.111258  0.122665  0  0.985471  0
H  H12  1  0.49025254  0.29005893  0.32289174  1  0.098143  0  0.113669  0.133452  0  0.977523  0
H  H13  1  0.57833766  0.78217177  0.73691460  1  0.118916  0  0.114733  0.13612  0  0.975774  0
H  H14  1  0.62310999  0.42961118  0.71033308  1  0.094052  0  0.11326  0.134963  0  0.985081  0
H  H15  1  0.33118929  0.55293397  0.32904311  1  0.128529  0  0.108549  0.130597  0  1.020464  0
H  H16  1  0.60268518  0.22171074  0.91145678  1  0.082301  0  0.107715  0.102963  0  0.974696  0
H  H17  1  0.35760148  0.85010453  0.10122043  1  0.104668  0  0.111173  0.109606  0  0.969258  0
H  H18  1  0.72276101  0.15816781  0.98789875  1  0.104737  0  0.108033  0.12974  0  1.014515  0
H  H19  1  0.23604956  0.78945406  0.91517562  1  0.096352  0  0.110675  0.132245  0  0.987138  0
H  H20  1  0.73189692  0.33216391  0.92945870  1  0.053649  0  0.100485  0.108873  0  1.02848  0
H  H21  1  0.22750094  0.73893602  0.08669403  1  0.10374  0  0.109073  0.124169  0  0.994843  0
H  H22  1  0.77417671  0.49496831  0.95959149  1  0.091239  0  0.100032  0.110062  0  1.009304  0
H  H23  1  0.68547438  0.41392004  0.85403572  1  0.056925  0  0.098499  0.09531  0  0.992345  0
H  H24  1  0.67896251  0.50403945  0.91794525  1  0.070837  0  0.116349  0.126363  0  0.961564  0
H  H25  1  0.25575111  0.61540583  0.15556052  1  0.050442  0  0.104599  0.111895  0  0.984205  0
H  H26  1  0.23550030  0.51206716  0.08187738  1  0.082491  0  0.105973  0.119743  0  0.988045  0
H  H27  1  0.34049487  0.58773157  0.17379619  1  0.074333  0  0.11944  0.128365  0  0.960921  0
H  H28  1  0.93490239  0.22343734  0.94374107  1  0.068999  0  0.102376  0.114434  0  0.99581  0
H  H29  1  0.94380876  0.27385029  0.04709194  1  0.056227  0  0.088567  0.090179  0  1.044696  0
H  H30  1  0.89413982  0.15867245  0.98653408  1  0.066742  0  0.11463  0.123505  0  0.962818  0
H  H31  1  0.15581948  0.57217461  0.76724831  1  0.057622  0  0.109025  0.119327  0  0.974152  0
H  H32  1  0.08233253  0.51700904  0.79598841  1  0.085992  0  0.094626  0.107115  0  1.020615  0
H  H33  1  0.09210347  0.61591770  0.79831372  1  0.038892  0  0.090474  0.091688  0  1.007198  0
C  C34  1  0.87951587  0.34617954  0.94913667  1  1.546161  0  0.214498  0.555504  0  4.169483  0
C  C35  1  0.12073186  0.58193536  0.96597440  1  1.511142  0  0.213658  0.546539  0  4.17839  0
C  C36  1  0.80903704  0.27469962  0.94404203  1  0.475614  0  0.08754  0.119149  0  3.984996  0
C  C37  1  0.18410031  0.65066881  0.96137181  1  0.464386  0  0.0784  0.093801  0  4.010466  0
C  C38  1  0.52978031  0.42336464  0.40483834  1  1.547881  0  0.210406  0.640778  0  4.150153  0
C  C39  1  0.52663375  0.64821383  0.63859301  1  1.532067  0  0.212837  0.644379  0  4.14254  0
C  C40  1  0.58041670  0.47404128  0.62033486  1  1.505851  0  0.210981  0.640463  0  4.149026  0
C  C41  1  0.36032108  0.49682874  0.40726620  1  1.49597  0  0.208003  0.642911  0  4.148971  0
C  C42  1  0.52740876  0.89197348  0.93777314  1  1.562752  0  0.20756  0.655336  0  4.14843  0
C  C43  1  0.54022135  0.15087897  0.14935125  1  1.555924  0  0.212144  0.662995  0  4.143122  0
C  C44  1  0.59419008  0.11102037  0.97215342  1  1.479078  0  0.205835  0.6379  0  4.163305  0
C  C45  1  0.36327708  0.90490609  0.99204401  1  1.512056  0  0.209299  0.637122  0  4.157654  0
C  C46  1  0.61650251  0.29876796  0.28360763  1  -0.104006  0  -0.001051  0.150706  0  3.970304  0
C  C47  1  0.46349627  0.75680624  0.79852909  1  -0.101658  0  0.000539  0.15116  0  3.970479  0
C  C48  1  0.54753053  0.22931362  0.21092158  1  0.033418  0  -0.098023  -0.286208  0  3.865222  0
C  C49  1  0.53009507  0.82208470  0.87515869  1  0.047568  0  -0.097408  -0.287297  0  3.865188  0
C  C50  1  0.60991470  0.37016945  0.33724892  1  -0.06717  0  -0.072811  -0.074582  0  3.97111  0
C  C51  1  0.46965079  0.69422053  0.73417322  1  -0.052753  0  -0.073768  -0.071443  0  3.992316  0
C  C52  1  0.54096610  0.35574467  0.34987054  1  0.006249  0  -0.084252  -0.202343  0  3.87212  0
C  C53  1  0.52942048  0.71554349  0.70944880  1  -0.011184  0  -0.085405  -0.208759  0  3.860578  0
C  C54  1  0.88842827  0.52200730  0.90359877  1  1.561951  0  0.210745  0.563095  0  4.173036  0
C  C55  1  0.10417620  0.50147515  0.12426099  1  1.57256  0  0.213092  0.561929  0  4.208772  0
C  C56  1  0.72973129  0.51199222  0.70538865  1  0.073573  0  -0.075449  -0.047061  0  3.992094  0
C  C57  1  0.21237703  0.46084608  0.30730031  1  -0.060436  0  -0.077905  -0.044737  0  4.004684  0
C  C58  1  0.64581360  0.46925919  0.68405204  1  -0.087425  0  -0.086154  -0.209339  0  3.856782  0
C  C59  1  0.29968350  0.50574763  0.34435332  1  0.026096  0  -0.101267  -0.232987  0  3.895585  0
C  C60  1  0.80198281  0.51386839  0.76554091  1  -0.050405  0  -0.018816  0.024266  0  3.941423  0
C  C61  1  0.15329009  0.46801686  0.24327896  1  -0.028522  0  -0.03914  -0.013745  0  3.967404  0
C  C62  1  0.81337405  0.52001803  0.84180242  1  0.566767  0  0.073394  0.047859  0  3.96667  0
C  C63  1  0.17053841  0.49987916  0.19291012  1  0.557266  0  0.084635  0.072542  0  3.938007  0
C  C64  1  0.66210219  0.21758871  0.93293586  1  -0.053242  0  -0.074351  0.006818  0  4.009622  0
C  C65  1  0.29985393  0.80541510  0.03863343  1  0.001289  0  -0.06936  0.006862  0  3.984278  0
C  C66  1  0.66405905  0.16184548  0.96202060  1  0.014995  0  -0.099542  -0.239196  0  3.894965  0
C  C67  1  0.29368340  0.82706555  0.97745725  1  -0.035874  0  -0.087476  -0.224422  0  3.874651  0
C  C68  1  0.73491483  0.27759508  0.93500834  1  0.06958  0  -0.109285  -0.2069  0  4.024065  0
C  C69  1  0.23472167  0.73139295  0.03067923  1  0.046353  0  -0.089769  -0.166803  0  3.974118  0
C  C70  1  0.72242858  0.48306852  0.90201606  1  0.348774  0  -0.134299  -0.181298  0  3.89122  0
C  C71  1  0.27079978  0.56265185  0.14890337  1  0.379936  0  -0.130272  -0.184047  0  3.864759  0
C  C72  1  0.90384588  0.21726220  0.98270043  1  0.383954  0  -0.135303  -0.179188  0  3.870464  0
C  C73  1  0.12685248  0.58023738  0.80883897  1  0.380038  0  -0.140214  -0.181723  0  3.896112  0
Br  Br74  1  0.88908781  0.51956594  0.73291156  1  -0.045465  0  0.026033  -0.05808  0  1.419319  0
Br  Br75  1  0.03715086  0.42229220  0.22464865  1  -0.066768  0  0.023005  -0.063346  0  1.393478  0
Br  Br76  1  0.73041270  0.31398172  0.32463179  1  -0.026174  0  0.025616  -0.054847  0  1.320307  0
Br  Br77  1  0.34665872  0.73453043  0.76093565  1  -0.038993  0  0.031311  -0.048107  0  1.349139  0
O  O78  1  0.90142180  0.42290841  0.99958610  1  -1.166627  0  -0.306848  -0.56339  0  2.337424  0
O  O79  1  0.09362586  0.50232980  0.91329275  1  -1.119365  0  -0.312666  -0.512025  0  2.281479  0
O  O80  1  0.57983278  0.92327462  0.01726958  1  -1.128467  0  -0.326984  -0.536789  0  2.176648  0
O  O81  1  0.48189473  0.11745218  0.07298302  1  -1.168167  0  -0.317627  -0.572349  0  2.269261  0
O  O82  1  0.51508635  0.09059367  0.92552477  1  -1.125618  0  -0.329  -0.542716  0  2.212399  0
O  O83  1  0.43908393  0.94001959  0.05354153  1  -1.174799  0  -0.318324  -0.57793  0  2.285909  0
O  O84  1  0.61731655  0.08999215  0.02879156  1  -1.170477  0  -0.322415  -0.581144  0  2.2981  0
O  O85  1  0.34131387  0.93138753  0.93863856  1  -1.127384  0  -0.326899  -0.538036  0  2.223826  0
O  O86  1  0.91330645  0.32464952  0.90181319  1  -1.123331  0  -0.31071  -0.508654  0  2.260429  0
O  O87  1  0.09717154  0.60531883  0.02121059  1  -1.169611  0  -0.312827  -0.569197  0  2.351609  0
O  O88  1  0.91684556  0.57278689  0.98311530  1  -1.111703  0  -0.312781  -0.508967  0  2.255662  0
O  O89  1  0.08245451  0.45201463  0.04825417  1  -1.161234  0  -0.299869  -0.552709  0  2.308624  0
O  O90  1  0.91687644  0.47287646  0.87535330  1  -1.165433  0  -0.308329  -0.562001  0  2.374677  0
O  O91  1  0.07842894  0.55607140  0.14848102  1  -1.111213  0  -0.308242  -0.50898  0  2.270082  0
O  O92  1  0.58145609  0.50346176  0.43339937  1  -1.135563  0  -0.323189  -0.536293  0  2.209573  0
O  O93  1  0.47171569  0.56997977  0.60747408  1  -1.177549  0  -0.315393  -0.575505  0  2.310104  0
O  O94  1  0.46867388  0.39599035  0.42096948  1  -1.165114  0  -0.315893  -0.571865  0  2.270485  0
O  O95  1  0.58023663  0.67465279  0.61246499  1  -1.122301  0  -0.323758  -0.535488  0  2.193825  0
O  O96  1  0.60727807  0.52766435  0.59665899  1  -1.177982  0  -0.31647  -0.578711  0  2.339018  0
O  O97  1  0.33239763  0.44110332  0.43002955  1  -1.133605  0  -0.325828  -0.538469  0  2.210361  0
O  O98  1  0.49977809  0.42323230  0.59255833  1  -1.120264  0  -0.325691  -0.53701  0  2.187643  0
O  O99  1  0.44022249  0.54707498  0.43551553  1  -1.170071  0  -0.323539  -0.581889  0  2.300029  0
O  O100  1  0.47654877  0.91847554  0.91046737  1  -1.167142  0  -0.308813  -0.573215  0  2.345743  0
O  O101  1  0.58934803  0.12074452  0.17531377  1  -1.123917  0  -0.317863  -0.532659  0  2.261562  0
O  O102  1  0.75635093  0.53350284  0.86712300  1  -1.052261  0  -0.184211  -0.129731  0  2.577559  0
O  O103  1  0.25084629  0.52804811  0.20085071  1  -1.042932  0  -0.160259  -0.097985  0  2.59114  0
O  O104  1  0.81806610  0.20646029  0.94371640  1  -1.055246  0  -0.1694  -0.116601  0  2.57746  0
O  O105  1  0.19878814  0.63011693  0.89401258  1  -1.066222  0  -0.189934  -0.140754  0  2.590672  0
