# generated using pymatgen
data_CuH10C10(NO2)2
_symmetry_space_group_name_H-M   'P 1'
_cell_length_a   8.44086561
_cell_length_b   9.27036666
_cell_length_c   17.78721579
_cell_angle_alpha   90.00001805
_cell_angle_beta   102.50560401
_cell_angle_gamma   89.99996556
_symmetry_Int_Tables_number   1
_chemical_formula_structural   CuH10C10(NO2)2
_chemical_formula_sum   'Cu4 H40 C40 N8 O16'
_cell_volume   1358.82636592
_cell_formula_units_Z   4
loop_
 _symmetry_equiv_pos_site_id
 _symmetry_equiv_pos_as_xyz
  1  'x, y, z'
loop_
 _atom_site_type_symbol
 _atom_site_label
 _atom_site_symmetry_multiplicity
 _atom_site_fract_x
 _atom_site_fract_y
 _atom_site_fract_z
 _atom_site_occupancy
 _atom_site_pbe_bader_charge
 _atom_site_pbe_bader_spin_density
 _atom_site_pbe_cm5_charge
 _atom_site_pbe_ddec_charge
 _atom_site_pbe_ddec_spin_density
 _atom_site_pbe_ddec_sum_bond_order
 _atom_site_pbe_magmom
Cu  Cu0  1  0.91248471  0.26132518  0.55654760  1  1.108162  0.512231  0.720673  0.833945  0.647764  2.205822  0.511
Cu  Cu1  1  0.58752884  0.76134424  0.44345460  1  1.108314  -0.512234  0.720675  0.833749  -0.647764  2.205752  -0.511
Cu  Cu2  1  0.08752703  0.73865910  0.44345625  1  1.108291  -0.512215  0.720707  0.833894  -0.647744  2.205809  -0.511
Cu  Cu3  1  0.41249005  0.23867455  0.55654765  1  1.108124  0.51221  0.72069  0.833994  0.647737  2.205573  0.511
H  H4  1  0.75342761  0.34296602  0.80969241  1  0.045621  0.000895  0.101916  0.107212  0.000442  1.009309  0.0
H  H5  1  0.74657718  0.84298066  0.19030564  1  0.045495  -0.000895  0.101926  0.107228  -0.000442  1.009271  0.0
H  H6  1  0.24656829  0.65703336  0.19030888  1  0.045643  -0.000895  0.101982  0.1073  -0.000442  1.009304  0.0
H  H7  1  0.25343161  0.15702519  0.80968838  1  0.045521  0.000895  0.101963  0.107291  0.000442  1.009348  0.0
H  H8  1  0.85999703  0.89975304  0.76498549  1  0.093201  0.000868  0.113058  0.122654  0.000439  0.978633  0.0
H  H9  1  0.63999314  0.39975764  0.23501124  1  0.093247  -0.000868  0.113082  0.122648  -0.000439  0.978714  0.0
H  H10  1  0.13998911  0.10024202  0.23501378  1  0.093253  -0.000868  0.113075  0.122637  -0.000439  0.978772  0.0
H  H11  1  0.35999580  0.60023526  0.76499504  1  0.093273  0.000868  0.113056  0.122586  0.000439  0.978775  0.0
H  H12  1  0.69950120  0.16319753  0.89558372  1  0.023595  2.4e-05  0.089116  0.055005  1.9e-05  1.020397  0.0
H  H13  1  0.80050254  0.66319056  0.10441363  1  0.023784  -2.4e-05  0.089122  0.054976  -1.9e-05  1.020361  0.0
H  H14  1  0.30050313  0.83680509  0.10441721  1  0.02364  -2.4e-05  0.089122  0.054992  -1.9e-05  1.020396  0.0
H  H15  1  0.19950535  0.33678401  0.89558594  1  0.023368  2.4e-05  0.089154  0.055069  1.9e-05  1.020559  0.0
H  H16  1  0.65702265  0.98608731  0.85783362  1  0.051867  -0.000148  0.11156  0.09736  -7.5e-05  0.954415  0.0
H  H17  1  0.84296519  0.48608214  0.14216628  1  0.051669  0.000148  0.111517  0.097238  7.5e-05  0.954482  0.0
H  H18  1  0.34297317  0.01391638  0.14216597  1  0.0516  0.000148  0.111521  0.097293  7.5e-05  0.954426  0.0
H  H19  1  0.15701246  0.51389890  0.85783221  1  0.051657  -0.000148  0.11152  0.097279  -7.5e-05  0.954375  0.0
H  H20  1  0.73966934  0.87711860  0.97792883  1  0.045341  -4e-06  0.099406  0.072077  -3e-06  0.992643  0.0
H  H21  1  0.76032340  0.37712203  0.02207038  1  0.045443  4e-06  0.099406  0.072066  3e-06  0.99267  0.0
H  H22  1  0.26033253  0.12287754  0.02207132  1  0.04539  4e-06  0.099424  0.072109  3e-06  0.992623  0.0
H  H23  1  0.23966380  0.62287411  0.97792618  1  0.04538  -4e-06  0.099427  0.072102  -3e-06  0.992636  0.0
H  H24  1  0.78667231  0.04774347  0.02444465  1  -0.010729  -0.0  0.086168  0.051715  -2e-06  0.984072  0.0
H  H25  1  0.71332200  0.54774436  0.97555462  1  -0.010741  0.0  0.086169  0.0517  2e-06  0.984073  0.0
H  H26  1  0.21332720  0.95225051  0.97555640  1  -0.010799  0.0  0.086144  0.051664  2e-06  0.98409  0.0
H  H27  1  0.28666653  0.45224962  0.02444430  1  -0.010794  -0.0  0.086163  0.051721  -2e-06  0.9841  0.0
H  H28  1  0.83346341  0.40870665  0.68612542  1  0.117807  0.001702  0.125926  0.10715  0.000808  0.980629  0.001
H  H29  1  0.66653154  0.90871811  0.31387061  1  0.117666  -0.001702  0.125931  0.107217  -0.000809  0.980558  -0.001
H  H30  1  0.16652002  0.59128518  0.31386854  1  0.117741  -0.001702  0.125914  0.107189  -0.000808  0.980543  -0.001
H  H31  1  0.33346506  0.09129314  0.68612117  1  0.117733  0.001702  0.125938  0.10727  0.000809  0.980612  0.001
H  H32  1  0.93083531  0.98289428  0.64313264  1  0.119234  0.00157  0.128222  0.103494  0.000707  0.978344  0.001
H  H33  1  0.56916447  0.48290756  0.35686498  1  0.119391  -0.00157  0.12823  0.103494  -0.000707  0.978418  -0.001
H  H34  1  0.06914955  0.01709862  0.35686539  1  0.11939  -0.00157  0.128227  0.10348  -0.000707  0.978386  -0.001
H  H35  1  0.43082533  0.51711447  0.64313519  1  0.119442  0.00157  0.12818  0.103481  0.000707  0.978318  0.001
H  H36  1  0.98266335  0.20984508  0.97427378  1  0.005194  1.2e-05  0.084269  0.046853  6e-06  0.994433  0.0
H  H37  1  0.51733422  0.70984460  0.02572189  1  0.005107  -1.2e-05  0.084292  0.046923  -6e-06  0.994464  0.0
H  H38  1  0.01733601  0.79015645  0.02572445  1  0.005161  -1.2e-05  0.084276  0.046902  -6e-06  0.994512  0.0
H  H39  1  0.48265774  0.29014939  0.97427341  1  0.005085  1.2e-05  0.084276  0.046865  6e-06  0.994453  0.0
H  H40  1  0.06184409  0.14268598  0.89579085  1  0.054013  2.2e-05  0.097883  0.068773  1.4e-05  1.029496  0.0
H  H41  1  0.43815213  0.64269193  0.10420495  1  0.054141  -2.2e-05  0.097895  0.068862  -1.4e-05  1.029495  0.0
H  H42  1  0.93815767  0.85730369  0.10420703  1  0.054063  -2.2e-05  0.097918  0.068897  -1.4e-05  1.029489  0.0
H  H43  1  0.56183871  0.35730313  0.89579194  1  0.054101  2.2e-05  0.097888  0.068841  1.4e-05  1.029422  0.0
C  C44  1  0.80005787  0.11502573  0.79758714  1  0.019314  -0.003212  0.008818  0.136817  -0.002068  3.96719  -0.002
C  C45  1  0.69994477  0.61503499  0.20241122  1  0.019549  0.003211  0.008817  0.136862  0.002068  3.967126  0.002
C  C46  1  0.19994167  0.88497041  0.20241447  1  0.019284  0.00321  0.008817  0.1368  0.002067  3.967317  0.002
C  C47  1  0.30006175  0.38495792  0.79758541  1  0.019485  -0.003211  0.008839  0.136847  -0.002067  3.967339  -0.002
C  C48  1  0.79404075  0.25956909  0.77490430  1  -0.076122  0.004227  -0.088678  -0.188444  0.002787  3.961907  0.003
C  C49  1  0.70595803  0.75957944  0.22509262  1  -0.07629  -0.004227  -0.088667  -0.188484  -0.002787  3.961865  -0.003
C  C50  1  0.20595615  0.74043244  0.22509314  1  -0.075793  -0.004227  -0.08872  -0.188538  -0.002787  3.962023  -0.003
C  C51  1  0.29404724  0.24041994  0.77490333  1  -0.07614  0.004227  -0.088732  -0.188595  0.002787  3.962223  0.003
C  C52  1  0.85297606  0.01392940  0.75011436  1  0.035226  0.004072  -0.078005  -0.166821  0.00275  3.928958  0.003
C  C53  1  0.64702071  0.51393220  0.24988513  1  0.03527  -0.004072  -0.077982  -0.166783  -0.00275  3.928985  -0.003
C  C54  1  0.14701975  0.98606998  0.24988523  1  0.035231  -0.004072  -0.078004  -0.166776  -0.00275  3.929067  -0.003
C  C55  1  0.35297046  0.48606502  0.75011797  1  0.034888  0.004072  -0.078024  -0.16671  0.00275  3.929045  0.003
C  C56  1  0.75242766  0.06923036  0.87088483  1  0.284008  8.8e-05  -0.060641  -0.106628  4.9e-05  3.968641  0.0
C  C57  1  0.74756654  0.56923096  0.12911276  1  0.284076  -8.8e-05  -0.060577  -0.106438  -5e-05  3.968417  0.0
C  C58  1  0.24757192  0.93076901  0.12911735  1  0.284488  -8.8e-05  -0.060611  -0.106442  -5e-05  3.968498  0.0
C  C59  1  0.25242296  0.43075224  0.87088176  1  0.284722  8.8e-05  -0.060657  -0.106604  4.9e-05  3.968653  0.0
C  C60  1  0.83677151  0.95745630  0.99528382  1  0.314454  -2.2e-05  -0.068938  -0.071749  -1.7e-05  3.976125  0.0
C  C61  1  0.66322118  0.45745866  0.00471596  1  0.314322  2.2e-05  -0.068899  -0.071722  1.7e-05  3.97616  0.0
C  C62  1  0.16322673  0.04253876  0.00471599  1  0.314503  2.2e-05  -0.068915  -0.071713  1.7e-05  3.976116  0.0
C  C63  1  0.33676729  0.54253748  0.99528184  1  0.314427  -2.2e-05  -0.068946  -0.071774  -1.7e-05  3.976134  0.0
C  C64  1  0.83786447  0.29773262  0.70655511  1  0.51715  -0.001358  0.055716  0.11819  -0.000313  3.919356  -0.001
C  C65  1  0.66213560  0.79773867  0.29344418  1  0.517278  0.001357  0.055658  0.118084  0.000313  3.919199  0.001
C  C66  1  0.16213128  0.70226352  0.29344335  1  0.51675  0.001357  0.0557  0.118148  0.000313  3.919178  0.001
C  C67  1  0.33786609  0.20226394  0.70655257  1  0.516991  -0.001358  0.055662  0.118049  -0.000314  3.919602  -0.001
C  C68  1  0.89357736  0.05957375  0.68230600  1  0.447071  -0.001421  0.056946  0.112431  -0.000448  3.926175  -0.001
C  C69  1  0.60642789  0.55958413  0.31769484  1  0.447097  0.00142  0.056895  0.112365  0.000448  3.926367  0.001
C  C70  1  0.10642094  0.94042132  0.31769494  1  0.446959  0.00142  0.05688  0.112363  0.000448  3.926291  0.001
C  C71  1  0.39357299  0.44042927  0.68230915  1  0.447005  -0.001421  0.057049  0.112495  -0.000448  3.92606  -0.001
C  C72  1  0.02202508  0.11029569  0.94817280  1  0.300092  -1.5e-05  -0.072672  -0.079886  -1.1e-05  3.97765  0.0
C  C73  1  0.47797251  0.61029946  0.05182536  1  0.300244  1.5e-05  -0.072764  -0.080272  1.1e-05  3.977927  0.0
C  C74  1  0.97797310  0.88969398  0.05182588  1  0.300126  1.5e-05  -0.072747  -0.080129  1.1e-05  3.977822  0.0
C  C75  1  0.52202694  0.38969668  0.94817456  1  0.300339  -1.5e-05  -0.072736  -0.080057  -1.1e-05  3.97776  0.0
C  C76  1  0.90669682  0.98955203  0.48537002  1  1.600595  -0.002352  0.199728  0.471948  -0.000367  4.203385  -0.003
C  C77  1  0.59332504  0.48957615  0.51463411  1  1.600259  0.002353  0.19959  0.471334  0.000367  4.203628  0.003
C  C78  1  0.09330991  0.01043333  0.51463057  1  1.570501  0.002353  0.199664  0.471553  0.000368  4.20354  0.003
C  C79  1  0.40671030  0.51044804  0.48538201  1  1.570614  -0.002354  0.199794  0.472097  -0.000369  4.203202  -0.003
C  C80  1  0.97163008  0.47000299  0.45915913  1  1.621213  3.2e-05  0.199663  0.474884  5.2e-05  4.228777  0.0
C  C81  1  0.52837839  0.97002965  0.54084266  1  1.594552  -3.1e-05  0.199676  0.474963  -4.9e-05  4.228518  0.0
C  C82  1  0.02837431  0.52998452  0.54084293  1  1.594699  -3.1e-05  0.199735  0.475038  -5e-05  4.228748  0.0
C  C83  1  0.47163674  0.03000964  0.45915700  1  1.620973  3.3e-05  0.19958  0.47471  5.2e-05  4.228927  0.0
N  N84  1  0.88562098  0.19897168  0.66073963  1  -1.188207  0.062157  -0.341605  -0.227572  0.041378  3.601389  0.054
N  N85  1  0.61438166  0.69898315  0.33926044  1  -1.188347  -0.062149  -0.341591  -0.227498  -0.041373  3.601411  -0.054
N  N86  1  0.11438081  0.80102230  0.33925882  1  -1.188193  -0.062152  -0.341554  -0.227504  -0.041375  3.601446  -0.054
N  N87  1  0.38561670  0.30103025  0.66074163  1  -1.188036  0.062159  -0.341549  -0.227546  0.04138  3.601442  0.054
N  N88  1  0.88864132  0.00778835  0.92671842  1  -1.038004  -7e-06  -0.345593  -0.150289  -9e-06  3.486239  0.0
N  N89  1  0.61135182  0.50779218  0.07328074  1  -1.038239  7e-06  -0.3456  -0.150147  9e-06  3.486185  0.0
N  N90  1  0.11135574  0.99220456  0.07328184  1  -1.038279  7e-06  -0.345608  -0.150419  9e-06  3.486171  0.0
N  N91  1  0.38863668  0.49219641  0.92671763  1  -1.038282  -7e-06  -0.345587  -0.150309  -9e-06  3.486274  0.0
O  O92  1  0.81357774  0.08365799  0.50567514  1  -1.106481  0.078571  -0.305897  -0.480649  0.050048  2.393826  0.071
O  O93  1  0.68644113  0.58368568  0.49433257  1  -1.106421  -0.078555  -0.305808  -0.480233  -0.050037  2.393814  -0.071
O  O94  1  0.18644398  0.91632952  0.49433468  1  -1.106222  -0.078573  -0.305923  -0.480467  -0.05005  2.393701  -0.071
O  O95  1  0.31357595  0.41636547  0.50568077  1  -1.10598  0.078572  -0.305871  -0.480546  0.050048  2.393734  0.071
O  O96  1  0.85874976  0.88142362  0.44419506  1  -1.15942  0.015539  -0.307462  -0.562829  0.009849  2.394065  0.012
O  O97  1  0.64124064  0.38142725  0.55580562  1  -1.159266  -0.015532  -0.307414  -0.562754  -0.009845  2.394013  -0.012
O  O98  1  0.14124920  0.11857684  0.55579582  1  -1.159186  -0.015538  -0.307424  -0.562742  -0.009849  2.394151  -0.012
O  O99  1  0.35875050  0.61857213  0.44419692  1  -1.159455  0.015552  -0.307568  -0.563037  0.009857  2.393764  0.012
O  O100  1  0.91501765  0.34315256  0.45223332  1  -1.090132  0.062518  -0.305506  -0.46132  0.040038  2.283724  0.056
O  O101  1  0.58499355  0.84317166  0.54777149  1  -1.089819  -0.062533  -0.305562  -0.461273  -0.040047  2.283384  -0.056
O  O102  1  0.08499276  0.65684034  0.54776816  1  -1.089966  -0.062527  -0.305512  -0.461302  -0.040044  2.283604  -0.056
O  O103  1  0.41503194  0.15686547  0.45224092  1  -1.090063  0.062516  -0.305393  -0.461115  0.040038  2.283862  0.056
O  O104  1  0.98407396  0.55169554  0.40342262  1  -1.10614  -0.064581  -0.304119  -0.484289  -0.041293  2.344357  -0.059
O  O105  1  0.51593345  0.05172509  0.59657335  1  -1.106319  0.064569  -0.304024  -0.484268  0.041285  2.344579  0.059
O  O106  1  0.01593131  0.44828118  0.59657333  1  -1.106165  0.064571  -0.304067  -0.484299  0.041286  2.344631  0.059
O  O107  1  0.48407273  0.94832714  0.40341706  1  -1.105868  -0.064575  -0.304082  -0.484201  -0.041288  2.34429  -0.059
