# generated using pymatgen
data_CdH14C22O9
_symmetry_space_group_name_H-M   'P 1'
_cell_length_a   4.79091936
_cell_length_b   12.98561590
_cell_length_c   15.21387821
_cell_angle_alpha   91.90700515
_cell_angle_beta   95.73620984
_cell_angle_gamma   91.19111468
_symmetry_Int_Tables_number   1
_chemical_formula_structural   CdH14C22O9
_chemical_formula_sum   'Cd2 H28 C44 O18'
_cell_volume   940.96373913
_cell_formula_units_Z   2
loop_
 _symmetry_equiv_pos_site_id
 _symmetry_equiv_pos_as_xyz
  1  'x, y, z'
loop_
 _atom_site_type_symbol
 _atom_site_label
 _atom_site_symmetry_multiplicity
 _atom_site_fract_x
 _atom_site_fract_y
 _atom_site_fract_z
 _atom_site_occupancy
 _atom_site_pbe_bader_spin_density
 _atom_site_pbe_cm5_charge
 _atom_site_pbe_ddec_charge
 _atom_site_pbe_ddec_spin_density
 _atom_site_pbe_ddec_sum_bond_order
 _atom_site_pbe_magmom
Cd  Cd0  1  0.18509388  0.22632651  0.78865010  1  0  0.778839  1.046608  0  1.994305  0
Cd  Cd1  1  0.81490471  0.77367386  0.21135066  1  0  0.778832  1.046601  0  1.994316  0
H  H2  1  0.52704230  0.51411218  0.27425719  1  0  0.302918  0.368007  0  0.968403  0
H  H3  1  0.47296040  0.48588663  0.72574236  1  0  0.302913  0.368004  0  0.968393  0
H  H4  1  0.82517848  0.16618283  0.61835105  1  0  0.316255  0.38156  0  0.948173  0
H  H5  1  0.17482230  0.83381830  0.38164914  1  0  0.316251  0.381561  0  0.948193  0
H  H6  1  0.08271756  0.40734045  0.88709205  1  0  0.290879  0.379334  0  0.960116  0
H  H7  1  0.91728315  0.59265991  0.11290812  1  0  0.290878  0.379328  0  0.960125  0
H  H8  1  0.41274265  0.40589281  0.87674940  1  0  0.29181  0.379822  0  0.956965  0
H  H9  1  0.58725590  0.59410678  0.12325069  1  0  0.291796  0.379803  0  0.956992  0
H  H10  1  0.42004099  0.97400955  0.83730689  1  0  0.102354  0.101856  0  1.030361  0
H  H11  1  0.57996169  0.02598926  0.16269332  1  0  0.102343  0.101866  0  1.030351  0
H  H12  1  0.58016433  0.28383009  0.98964716  1  0  0.105486  0.121417  0  1.019771  0
H  H13  1  0.41983420  0.71616951  0.01035358  1  0  0.105478  0.121413  0  1.019749  0
H  H14  1  0.85233704  0.43862897  0.04702352  1  0  0.103994  0.097774  0  1.03234  0
H  H15  1  0.14766159  0.56137139  0.95297592  1  0  0.104008  0.097811  0  1.032325  0
H  H16  1  0.32262936  0.25677531  0.23960227  1  0  0.103274  0.104353  0  1.016047  0
H  H17  1  0.67736924  0.74322506  0.76039848  1  0  0.10327  0.104354  0  1.016052  0
H  H18  1  0.06595826  0.09906038  0.17577381  1  0  0.102463  0.107008  0  1.011976  0
H  H19  1  0.93404027  0.90093922  0.82422693  1  0  0.102468  0.107002  0  1.011972  0
H  H20  1  0.33381802  0.89107156  0.69679214  1  0  0.106439  0.106017  0  1.012075  0
H  H21  1  0.66618273  0.10892878  0.30320672  1  0  0.106436  0.105995  0  1.012075  0
H  H22  1  0.34608500  0.70744341  0.64547716  1  0  0.102601  0.105762  0  1.028101  0
H  H23  1  0.65391786  0.29255772  0.35452376  1  0  0.102588  0.105744  0  1.028155  0
H  H24  1  0.60765592  0.75075536  0.46530504  1  0  0.104991  0.113384  0  1.000035  0
H  H25  1  0.39234687  0.24924500  0.53469586  1  0  0.105002  0.113408  0  1.000066  0
H  H26  1  0.59871029  0.93220840  0.51531096  1  0  0.104619  0.106539  0  1.044457  0
H  H27  1  0.40128834  0.06779196  0.48468848  1  0  0.104606  0.106517  0  1.044509  0
H  H28  1  0.07418480  0.56083840  0.65588825  1  0  0.106465  0.109884  0  1.024888  0
H  H29  1  0.92581801  0.43916195  0.34411199  1  0  0.10646  0.10988  0  1.024889  0
C  C30  1  0.76129579  0.13525234  0.88347941  1  0  0.208861  0.577445  0  4.206176  0
C  C31  1  0.23870284  0.86474801  0.11652003  1  0  0.208797  0.577318  0  4.206226  0
C  C32  1  0.61158436  0.07061620  0.94466007  1  0  -0.003902  -0.046081  0  3.919798  0
C  C33  1  0.38841404  0.92938185  0.05534064  1  0  -0.003824  -0.045923  0  3.919793  0
C  C34  1  0.45325605  0.98516844  0.90896200  1  0  -0.077424  -0.127211  0  3.951729  0
C  C35  1  0.54674239  0.01482960  0.09103739  1  0  -0.077454  -0.127284  0  3.951823  0
C  C36  1  0.65852333  0.08698094  0.03714593  1  0  0.00614  0.059327  0  3.944461  0
C  C37  1  0.34147725  0.91301787  0.96285420  1  0  0.006116  0.059319  0  3.94439  0
C  C38  1  0.81075069  0.17990244  0.07675389  1  0  0.011354  0.102212  0  3.959619  0
C  C39  1  0.18924784  0.82009716  0.92324685  1  0  0.011359  0.102152  0  3.959694  0
C  C40  1  0.74892581  0.27702008  0.04254934  1  0  -0.08497  -0.116852  0  3.919875  0
C  C41  1  0.25107066  0.72297951  0.95745002  1  0  -0.084971  -0.116847  0  3.919997  0
C  C42  1  0.89733633  0.36467109  0.07640024  1  0  -0.08063  -0.07118  0  3.965161  0
C  C43  1  0.10266421  0.63532775  0.92360121  1  0  -0.080683  -0.071263  0  3.965075  0
C  C44  1  0.10578902  0.35835220  0.14771406  1  0  -0.02801  -0.077746  0  4.031912  0
C  C45  1  0.89420536  0.64164739  0.85228523  1  0  -0.028022  -0.077726  0  4.031766  0
C  C46  1  0.16116376  0.26213949  0.18442152  1  0  -0.08007  -0.074176  0  3.967702  0
C  C47  1  0.83883060  0.73786011  0.81557842  1  0  -0.080063  -0.074204  0  3.96765  0
C  C48  1  0.01624809  0.17401865  0.14894714  1  0  -0.085414  -0.128257  0  3.955495  0
C  C49  1  0.98375046  0.82598094  0.85105294  1  0  -0.085386  -0.12818  0  3.955336  0
C  C50  1  0.26617333  0.45245249  0.18009421  1  0  0.234646  0.580765  0  4.112341  0
C  C51  1  0.73382518  0.54754633  0.81990520  1  0  0.234678  0.580847  0  4.112261  0
C  C52  1  0.97508357  0.03307304  0.64117086  1  0  0.23798  0.592594  0  4.09421  0
C  C53  1  0.02491930  0.96692808  0.35882940  1  0  0.23802  0.592704  0  4.094223  0
C  C54  1  0.96717559  0.92389393  0.60971722  1  0  -0.021655  -0.06228  0  3.990653  0
C  C55  1  0.03282523  0.07610718  0.39028166  1  0  -0.021649  -0.062387  0  3.990699  0
C  C56  1  0.17541864  0.85923036  0.64636830  1  0  -0.077045  -0.075651  0  3.984164  0
C  C57  1  0.82458214  0.14077077  0.35363189  1  0  -0.077001  -0.075516  0  3.984112  0
C  C58  1  0.18151563  0.75694496  0.61756833  1  0  -0.085525  -0.13007  0  3.963101  0
C  C59  1  0.81848718  0.24305539  0.38243191  1  0  -0.085529  -0.130096  0  3.963138  0
C  C60  1  0.98087664  0.71666580  0.55081850  1  0  0.00076  0.082454  0  3.983945  0
C  C61  1  0.01912622  0.28333533  0.44918242  1  0  0.000724  0.082439  0  3.983892  0
C  C62  1  0.77049761  0.78139830  0.51509368  1  0  -0.087968  -0.126284  0  3.951481  0
C  C63  1  0.22950732  0.21860204  0.48490598  1  0  -0.08795  -0.126294  0  3.951467  0
C  C64  1  0.76380455  0.88388612  0.54405076  1  0  -0.081568  -0.078502  0  3.966909  0
C  C65  1  0.23620037  0.11611422  0.45594890  1  0  -0.081572  -0.078451  0  3.966882  0
C  C66  1  0.99247486  0.60732249  0.52212671  1  0  0.002633  0.055469  0  3.965062  0
C  C67  1  0.00752579  0.39267710  0.47787345  1  0  0.002626  0.055438  0  3.964999  0
C  C68  1  0.04697268  0.53414242  0.58690790  1  0  -0.079783  -0.132309  0  3.9329  0
C  C69  1  0.95303015  0.46585792  0.41309168  1  0  -0.079753  -0.132275  0  3.932814  0
C  C70  1  0.94562307  0.57138400  0.43318351  1  0  -0.008641  -0.059811  0  3.934552  0
C  C71  1  0.05437553  0.42861638  0.56681725  1  0  -0.008612  -0.059763  0  3.934546  0
C  C72  1  0.89505341  0.64079240  0.35672475  1  0  0.215278  0.593524  0  4.18436  0
C  C73  1  0.10494523  0.35920795  0.64327469  1  0  0.215264  0.593491  0  4.184397  0
O  O74  1  0.02589538  0.14128804  0.90020551  1  0  -0.30299  -0.516796  0  2.289832  0
O  O75  1  0.97410107  0.85871156  0.09979450  1  0  -0.302955  -0.51675  0  2.28976  0
O  O76  1  0.63568323  0.17701249  0.81584545  1  0  -0.334992  -0.580141  0  2.27785  0
O  O77  1  0.36431537  0.82298788  0.18415531  1  0  -0.334986  -0.580114  0  2.277838  0
O  O78  1  0.25078556  0.53511310  0.13989348  1  0  -0.289469  -0.521667  0  2.208349  0
O  O79  1  0.74921096  0.46488727  0.86010655  1  0  -0.289434  -0.521663  0  2.208395  0
O  O80  1  0.43114667  0.44417882  0.25501335  1  0  -0.327422  -0.487162  0  2.332772  0
O  O81  1  0.56885196  0.55582154  0.74498609  1  0  -0.327446  -0.487205  0  2.332693  0
O  O82  1  0.15249258  0.06614408  0.70131467  1  0  -0.290073  -0.520143  0  2.271316  0
O  O83  1  0.84751023  0.93385627  0.29868557  1  0  -0.290101  -0.52022  0  2.271371  0
O  O84  1  0.78350672  0.09194474  0.59954855  1  0  -0.318428  -0.46712  0  2.331683  0
O  O85  1  0.21649609  0.90805561  0.40045169  1  0  -0.318439  -0.46714  0  2.331698  0
O  O86  1  0.05881259  0.71768036  0.34806869  1  0  -0.310286  -0.569594  0  2.289126  0
O  O87  1  0.94118395  0.28232001  0.65193068  1  0  -0.31029  -0.569592  0  2.289124  0
O  O88  1  0.68921896  0.61902179  0.29880823  1  0  -0.307124  -0.556324  0  2.265706  0
O  O89  1  0.31078379  0.38097779  0.70119200  1  0  -0.30711  -0.556305  0  2.265649  0
O  O90  1  0.25170802  0.36459092  0.89350040  1  0  -0.577676  -0.747798  0  2.098377  0
O  O91  1  0.74829261  0.63540868  0.10650041  1  0  -0.577656  -0.747759  0  2.098382  0
