# generated using pymatgen
data_CuH38C31(NO3)2
_symmetry_space_group_name_H-M   'P 1'
_cell_length_a   11.39345152
_cell_length_b   11.96955891
_cell_length_c   14.34572158
_cell_angle_alpha   68.33928658
_cell_angle_beta   69.79067172
_cell_angle_gamma   89.15420843
_symmetry_Int_Tables_number   1
_chemical_formula_structural   CuH38C31(NO3)2
_chemical_formula_sum   'Cu2 H76 C62 N4 O12'
_cell_volume   1691.98859906
_cell_formula_units_Z   2
loop_
 _symmetry_equiv_pos_site_id
 _symmetry_equiv_pos_as_xyz
  1  'x, y, z'
loop_
 _atom_site_type_symbol
 _atom_site_label
 _atom_site_symmetry_multiplicity
 _atom_site_fract_x
 _atom_site_fract_y
 _atom_site_fract_z
 _atom_site_occupancy
 _atom_site_pbe_bader_charge
 _atom_site_pbe_bader_spin_density
 _atom_site_pbe_cm5_charge
 _atom_site_pbe_ddec_charge
 _atom_site_pbe_ddec_spin_density
 _atom_site_pbe_ddec_sum_bond_order
 _atom_site_pbe_magmom
Cu  Cu0  1  0.07014800  0.07092410  0.40498470  1  1.072425  -0.550544  0.690152  0.766575  -0.710206  2.433303  -0.547
Cu  Cu1  1  0.92985044  0.92906612  0.59501114  1  1.072855  0.55052  0.69009  0.766327  0.710189  2.433399  0.547
H  H2  1  0.42766093  0.95406083  0.38216898  1  0.086776  -0.000355  0.102689  0.10896  -0.000321  1.026706  0.0
H  H3  1  0.57233411  0.04594566  0.61783607  1  0.087067  0.000355  0.102666  0.108935  0.000322  1.026752  0.0
H  H4  1  0.20580498  0.73111550  0.70871348  1  0.087479  0.000321  0.105284  0.111383  0.00028  1.025747  0.0
H  H5  1  0.79419772  0.26887110  0.29129066  1  0.087931  -0.000322  0.105287  0.111426  -0.00028  1.025685  0.0
H  H6  1  0.73458520  0.88896602  0.40339212  1  0.021119  1.3e-05  0.092432  0.052996  4e-06  0.985464  0.0
H  H7  1  0.26541172  0.11104773  0.59660949  1  0.021429  -1.3e-05  0.092381  0.052921  -4e-06  0.98546  0.0
H  H8  1  0.67640245  0.68792188  0.39856699  1  0.038995  4e-06  0.082908  0.113778  -0.0  1.055228  0.0
H  H9  1  0.32359612  0.31209005  0.60143681  1  0.038893  -4e-06  0.082879  0.113738  0.0  1.055214  0.0
H  H10  1  0.60532938  0.76541253  0.30427411  1  0.01459  6e-06  0.082915  0.114125  2e-06  1.0078  0.0
H  H11  1  0.39466917  0.23459941  0.69572621  1  0.014228  -6e-06  0.082965  0.114208  -2e-06  1.007871  0.0
H  H12  1  0.77103236  0.79468346  0.26944323  1  0.034382  1.9e-05  0.082768  0.115402  1.5e-05  1.033517  0.0
H  H13  1  0.22896714  0.20532848  0.73056031  1  0.034351  -1.9e-05  0.082795  0.115411  -1.5e-05  1.033549  0.0
H  H14  1  0.63842083  0.07156909  0.31213103  1  0.052534  2e-06  0.082693  0.115774  1.2e-05  1.059487  0.0
H  H15  1  0.36158458  0.92844561  0.68786026  1  0.052414  -2e-06  0.082663  0.11571  -1.2e-05  1.059455  0.0
H  H16  1  0.75959527  0.02319627  0.22358394  1  0.026326  3e-06  0.087328  0.121051  -1e-06  0.994184  0.0
H  H17  1  0.24040605  0.97680844  0.77641434  1  0.026294  -3e-06  0.087363  0.121074  1e-06  0.994203  0.0
H  H18  1  0.59979119  0.98835223  0.24405506  1  -0.005966  -3e-06  0.081171  0.105513  7e-06  1.013684  0.0
H  H19  1  0.40020966  0.01165611  0.75594084  1  -0.005984  3e-06  0.081237  0.10559  -7e-06  1.013641  0.0
H  H20  1  0.47764406  0.64640711  0.78548743  1  0.04145  -0.0001  0.089826  0.055953  -5.3e-05  0.998427  0.0
H  H21  1  0.52235930  0.35359125  0.21452129  1  0.041415  9.9e-05  0.089833  0.055971  5.3e-05  0.998339  0.0
H  H22  1  0.41410737  0.42820868  0.84237084  1  0.014518  -1.3e-05  0.079873  0.109582  -7e-06  1.025499  0.0
H  H23  1  0.58589136  0.57179059  0.15762843  1  0.014509  1.3e-05  0.07988  0.109591  7e-06  1.025479  0.0
H  H24  1  0.32897488  0.46051548  0.75417235  1  0.019533  -7e-06  0.083099  0.114365  -4e-06  1.024181  0.0
H  H25  1  0.67102777  0.53949920  0.24582599  1  0.019536  7e-06  0.083066  0.114299  4e-06  1.024171  0.0
H  H26  1  0.49627955  0.49460259  0.70066699  1  0.038204  0.0  0.085168  0.11845  1e-06  1.039928  0.0
H  H27  1  0.50372085  0.50540211  0.29933363  1  0.038248  -0.0  0.085157  0.118417  -1e-06  1.039949  0.0
H  H28  1  0.28018788  0.55582478  0.94006658  1  0.044731  -2e-06  0.080698  0.109028  1e-06  1.042068  0.0
H  H29  1  0.71981128  0.44418444  0.05993998  1  0.044548  2e-06  0.080673  0.109031  -1e-06  1.042038  0.0
H  H30  1  0.26135737  0.70569754  0.86400181  1  0.02716  -1e-06  0.083958  0.112363  -4e-06  1.032847  0.0
H  H31  1  0.73864607  0.29430899  0.13599672  1  0.027256  1e-06  0.083963  0.112379  4e-06  1.032859  0.0
H  H32  1  0.19171379  0.57918347  0.85597150  1  0.0454  -4e-06  0.08666  0.121167  -1e-05  1.010976  0.0
H  H33  1  0.80829434  0.42082307  0.14402780  1  0.04524  4e-06  0.086662  0.121173  1e-05  1.011101  0.0
H  H34  1  0.84524702  0.62175244  0.54583774  1  0.094067  0.00024  0.105053  0.111143  0.000231  1.030456  0.0
H  H35  1  0.15474495  0.37823773  0.45417177  1  0.094127  -0.000241  0.105054  0.111145  -0.000232  1.030486  0.0
H  H36  1  0.06452432  0.85024878  0.21996191  1  0.101734  -0.000382  0.10391  0.109837  -0.000326  1.014185  0.0
H  H37  1  0.93546705  0.14973686  0.78004776  1  0.101608  0.000382  0.103898  0.109861  0.000326  1.014259  0.0
H  H38  1  0.82366480  0.34596835  0.49530420  1  0.007668  -4.7e-05  0.091556  0.049829  -2.1e-05  0.979366  0.0
H  H39  1  0.17633114  0.65402365  0.50470156  1  0.008342  4.7e-05  0.091571  0.049844  2.1e-05  0.979323  0.0
H  H40  1  0.71443771  0.30812984  0.68262431  1  0.044825  -5e-06  0.086127  0.120655  -2e-06  0.991608  0.0
H  H41  1  0.28556576  0.69186943  0.31738270  1  0.044832  5e-06  0.08611  0.12062  2e-06  0.991612  0.0
H  H42  1  0.85741237  0.40274741  0.63885321  1  0.043982  -1.1e-05  0.079948  0.10688  -1.7e-05  1.08087  0.0
H  H43  1  0.14259047  0.59725459  0.36114686  1  0.044069  1.1e-05  0.079953  0.106843  1.7e-05  1.080847  0.0
H  H44  1  0.71188839  0.46461446  0.65701791  1  0.031712  4e-06  0.085353  0.116694  -4e-06  1.02092  0.0
H  H45  1  0.28811610  0.53538572  0.34298296  1  0.031716  -4e-06  0.085331  0.116662  4e-06  1.020883  0.0
H  H46  1  0.59167535  0.34168952  0.55546136  1  0.018668  -1.2e-05  0.084227  0.119898  -1.1e-05  1.038002  0.0
H  H47  1  0.40832002  0.65831244  0.44454150  1  0.01869  1.2e-05  0.084249  0.11992  1.1e-05  1.038018  0.0
H  H48  1  0.60610895  0.49984224  0.52686906  1  0.002026  3e-06  0.087157  0.124958  1e-06  1.017136  0.0
H  H49  1  0.39389647  0.50015794  0.47313225  1  0.002131  -3e-06  0.087177  0.124983  -1e-06  1.017108  0.0
H  H50  1  0.65780646  0.44757983  0.42037014  1  0.019532  1e-06  0.081875  0.108851  5e-06  1.060818  0.0
H  H51  1  0.34219173  0.55242213  0.57963472  1  0.019477  -1e-06  0.081845  0.108824  -5e-06  1.060793  0.0
H  H52  1  0.08077091  0.59754247  0.12403486  1  0.029277  3.1e-05  0.095715  0.064995  1.5e-05  0.967998  0.0
H  H53  1  0.91922664  0.40245499  0.87596320  1  0.029364  -3.1e-05  0.095725  0.06503  -1.5e-05  0.967949  0.0
H  H54  1  0.87955424  0.66889439  0.10743379  1  0.037593  0.0  0.086425  0.119152  -0.0  1.021406  0.0
H  H55  1  0.12043900  0.33110576  0.89256674  1  0.037669  -0.0  0.086453  0.119192  0.0  1.021386  0.0
H  H56  1  0.94439213  0.82125231  0.06646927  1  0.015256  3e-06  0.083034  0.110479  2e-06  1.010222  0.0
H  H57  1  0.05560522  0.17875057  0.93353206  1  0.015308  -3e-06  0.083076  0.110549  -2e-06  1.010191  0.0
H  H58  1  0.00909934  0.73900440  0.98327561  1  0.012642  2.6e-05  0.087124  0.12036  1.2e-05  1.001094  0.0
H  H59  1  0.99089847  0.26099486  0.01672600  1  0.012731  -2.6e-05  0.087132  0.120389  -1.2e-05  1.001129  0.0
H  H60  1  0.25038453  0.74318240  0.11065859  1  0.025347  2e-06  0.084283  0.114367  2e-06  1.014487  0.0
H  H61  1  0.74961290  0.25682140  0.88933616  1  0.025195  -1e-06  0.084298  0.114318  -2e-06  1.014498  0.0
H  H62  1  0.23098330  0.77483631  0.98581861  1  0.022364  -0.0  0.083369  0.110258  -1e-06  1.0437  0.0
H  H63  1  0.76900828  0.22516565  0.01417903  1  0.022346  0.0  0.083325  0.110243  1e-06  1.043732  0.0
H  H64  1  0.17010237  0.86614743  0.05972834  1  0.000752  -0.0  0.08444  0.112284  1.1e-05  1.013549  0.0
H  H65  1  0.82988827  0.13385454  0.94026887  1  0.000761  0.0  0.08443  0.112231  -1.1e-05  1.013669  0.0
H  H66  1  0.10425128  0.34208326  0.27611771  1  0.094555  9.2e-05  0.118426  0.093331  7.1e-05  1.002408  0.0
H  H67  1  0.89574958  0.65790425  0.72387271  1  0.094284  -9.2e-05  0.118457  0.093338  -7.1e-05  1.002304  0.0
H  H68  1  0.28112196  0.50165784  0.12907246  1  0.12513  1.9e-05  0.115489  0.121231  7e-06  1.02346  0.0
H  H69  1  0.71887411  0.49833601  0.87091527  1  0.125195  -1.9e-05  0.115568  0.121382  -7e-06  1.023498  0.0
H  H70  1  0.48047080  0.21293647  0.06502174  1  0.112567  3.2e-05  0.117094  0.127721  1.2e-05  0.988109  0.0
H  H71  1  0.51954670  0.78706284  0.93498066  1  0.112376  -3.2e-05  0.11715  0.127764  -1.2e-05  0.988089  0.0
H  H72  1  0.29639618  0.06399487  0.21907987  1  0.10262  5.5e-05  0.123245  0.096777  4.4e-05  0.972403  0.0
H  H73  1  0.70362067  0.93599993  0.78091573  1  0.102618  -5.5e-05  0.123301  0.096839  -4.4e-05  0.972419  0.0
H  H74  1  0.70459224  0.76788216  0.54782089  1  0.62687  9.5e-05  0.315711  0.353751  0.00013  0.935247  0.0
H  H75  1  0.29542229  0.23212982  0.45218613  1  0.626885  -9.5e-05  0.315844  0.353968  -0.000129  0.934944  0.0
H  H76  1  0.86392620  0.39715654  0.34503405  1  0.597744  -6.1e-05  0.31788  0.345436  -6.1e-05  0.94342  0.0
H  H77  1  0.13604255  0.60284988  0.65496300  1  0.598354  6.1e-05  0.317866  0.345472  6.2e-05  0.943548  0.0
C  C78  1  0.19271325  0.89966674  0.52701286  1  1.503057  6.8e-05  0.204671  0.566733  -4.9e-05  4.185138  0.0
C  C79  1  0.80728740  0.10032621  0.47297805  1  1.502296  -6.5e-05  0.204571  0.566298  4.5e-05  4.185271  0.0
C  C80  1  0.30595317  0.84655700  0.54337950  1  0.000433  -0.000841  -0.036465  -0.064041  -0.0006  4.062227  -0.001
C  C81  1  0.69404694  0.15343865  0.45661701  1  0.000342  0.000837  -0.0364  -0.063864  0.000598  4.062602  0.001
C  C82  1  0.42355609  0.88682097  0.45934596  1  -0.086565  0.001003  -0.0882  -0.127695  0.000588  3.97899  0.001
C  C83  1  0.57644817  0.11318465  0.54065331  1  -0.087435  -0.001001  -0.088209  -0.127702  -0.000587  3.97911  -0.001
C  C84  1  0.53314439  0.84346788  0.47269574  1  0.043481  0.000601  -0.020988  -0.042512  0.000436  3.937214  0.001
C  C85  1  0.46685778  0.15654317  0.52730245  1  0.043921  -0.000599  -0.020996  -0.042511  -0.000435  3.937486  -0.001
C  C86  1  0.52282640  0.75959831  0.57615288  1  0.444766  0.000174  0.09227  0.223953  0.000117  3.985691  0.0
C  C87  1  0.47718035  0.24041184  0.42384919  1  0.444945  -0.000172  0.092212  0.223848  -0.000116  3.986125  0.0
C  C88  1  0.40437756  0.71403050  0.66165691  1  0.03303  -0.000695  -0.018071  -0.023693  -0.000497  3.909492  -0.001
C  C89  1  0.59562660  0.28598146  0.33834045  1  0.032687  0.000693  -0.018085  -0.023799  0.000495  3.909647  0.001
C  C90  1  0.29755521  0.75914206  0.64329562  1  -0.105021  -0.001071  -0.093761  -0.159865  -0.00065  4.018664  -0.001
C  C91  1  0.70244656  0.24085178  0.35670586  1  -0.10513  0.001073  -0.093731  -0.159894  0.000651  4.018726  0.001
C  C92  1  0.65684073  0.87797635  0.37684979  1  0.034538  0.000153  -0.085233  0.093756  0.000115  3.886621  0.0
C  C93  1  0.34316097  0.12203832  0.62314812  1  0.034099  -0.000152  -0.085112  0.093843  -0.000115  3.886489  0.0
C  C94  1  0.67895881  0.77508658  0.33514152  1  -0.072892  3.4e-05  -0.249375  -0.399234  2.8e-05  3.918389  0.0
C  C95  1  0.32103881  0.22492536  0.66486045  1  -0.072051  -3.4e-05  -0.249426  -0.399284  -2.7e-05  3.918523  0.0
C  C96  1  0.66344217  0.99750689  0.28438484  1  -0.066445  7e-06  -0.24684  -0.387744  2.2e-05  3.928231  0.0
C  C97  1  0.33655906  0.00250416  0.71561361  1  -0.066236  -7e-06  -0.246959  -0.387796  -2.2e-05  3.928214  0.0
C  C98  1  0.39629611  0.62001667  0.76997987  1  0.059567  -0.000236  -0.089505  0.093597  -0.000169  3.882007  0.0
C  C99  1  0.60370923  0.37998985  0.23002301  1  0.059558  0.000237  -0.089499  0.09376  0.000169  3.881819  0.0
C  C100  1  0.41007562  0.49347107  0.76622527  1  -0.067991  6e-06  -0.246332  -0.389395  3e-06  3.900762  0.0
C  C101  1  0.58992597  0.50653545  0.23377656  1  -0.067908  -6e-06  -0.246277  -0.389327  -3e-06  3.900673  0.0
C  C102  1  0.27553500  0.61535472  0.86241057  1  -0.123404  -8e-06  -0.247554  -0.396021  -1.8e-05  3.929933  0.0
C  C103  1  0.72447161  0.38465453  0.13758903  1  -0.123208  8e-06  -0.24755  -0.396119  1.8e-05  3.930014  0.0
C  C104  1  0.96678095  0.84484979  0.42230015  1  1.49642  0.000772  0.205723  0.566012  0.000588  4.187449  0.001
C  C105  1  0.03321564  0.15514042  0.57769830  1  1.496764  -0.000773  0.205732  0.565868  -0.00059  4.187513  -0.001
C  C106  1  0.95454004  0.74613996  0.38581675  1  0.064242  -0.000227  -0.033974  -0.063587  -0.00015  4.050921  0.0
C  C107  1  0.04545727  0.25385568  0.61418193  1  0.063724  0.000226  -0.03389  -0.063326  0.000149  4.05103  0.0
C  C108  1  0.88612171  0.63402779  0.46159577  1  -0.054218  -0.000408  -0.087469  -0.130095  -0.00022  3.976879  -0.001
C  C109  1  0.11386777  0.36595785  0.53841164  1  -0.053967  0.000411  -0.087555  -0.130355  0.000222  3.977122  0.001
C  C110  1  0.86837666  0.53956361  0.43149274  1  0.03087  -0.000702  -0.022797  -0.044103  -0.000487  3.945403  -0.001
C  C111  1  0.13162398  0.46043565  0.56851227  1  0.030941  0.000702  -0.022781  -0.044049  0.000486  3.945213  0.001
C  C112  1  0.92620972  0.55892929  0.32138913  1  0.407447  0.000556  0.087345  0.212486  0.000369  4.005354  0.0
C  C113  1  0.07378620  0.44106272  0.67861384  1  0.407046  -0.00055  0.08734  0.212539  -0.000366  4.005536  0.0
C  C114  1  0.99925407  0.66984973  0.24331417  1  -0.021028  0.000692  -0.017956  -0.027089  0.00049  3.913309  0.001
C  C115  1  0.00074476  0.33014320  0.75668492  1  -0.020388  -0.000691  -0.017982  -0.027257  -0.000489  3.9134  -0.001
C  C116  1  0.01034832  0.76280611  0.27737522  1  -0.093572  0.001235  -0.085527  -0.132525  0.000742  3.978955  0.001
C  C117  1  0.98964324  0.23717411  0.72263117  1  -0.093821  -0.001235  -0.085518  -0.132506  -0.000742  3.978603  -0.001
C  C118  1  0.78229829  0.42360707  0.51287457  1  0.034575  -0.000163  -0.086015  0.092674  -0.000118  3.895709  0.0
C  C119  1  0.21769940  0.57638403  0.48713167  1  0.033632  0.000163  -0.085996  0.092708  0.000118  3.895792  0.0
C  C120  1  0.76643598  0.39880424  0.62940068  1  -0.100191  -1e-06  -0.248809  -0.391977  -1.5e-05  3.921211  0.0
C  C121  1  0.23356558  0.60119503  0.37060198  1  -0.100221  1e-06  -0.248794  -0.391855  1.5e-05  3.921029  0.0
C  C122  1  0.65207929  0.42829281  0.50276931  1  -0.027063  -1.2e-05  -0.250639  -0.409495  -8e-06  3.908973  0.0
C  C123  1  0.34792133  0.57170646  0.49723222  1  -0.026884  1.2e-05  -0.250674  -0.409568  8e-06  3.90897  0.0
C  C124  1  0.06042181  0.68713621  0.12581673  1  0.054346  0.000176  -0.086174  0.09455  0.000128  3.877841  0.0
C  C125  1  0.93957375  0.31286033  0.87418286  1  0.054219  -0.000176  -0.086217  0.094428  -0.000128  3.877945  0.0
C  C126  1  0.96779056  0.73140625  0.06723675  1  -0.057701  4.2e-05  -0.241096  -0.386501  3.2e-05  3.917034  0.0
C  C127  1  0.03220456  0.26859390  0.93276534  1  -0.057945  -4.2e-05  -0.241164  -0.386597  -3.2e-05  3.916991  0.0
C  C128  1  0.18500527  0.77257683  0.06762576  1  -0.052484  8e-06  -0.245312  -0.39882  1.6e-05  3.95154  0.0
C  C129  1  0.81498795  0.22742333  0.93237198  1  -0.052292  -7e-06  -0.245284  -0.398656  -1.5e-05  3.951722  0.0
C  C130  1  0.18968201  0.31770069  0.22768389  1  0.5486  0.001086  0.054136  0.119521  0.000697  3.922707  0.001
C  C131  1  0.81031899  0.68229498  0.77230539  1  0.548903  -0.001086  0.054044  0.11937  -0.000697  3.922736  -0.001
C  C132  1  0.28649724  0.40555394  0.14668117  1  -0.046729  -0.000875  -0.071692  -0.187109  -0.00058  3.919062  -0.001
C  C133  1  0.71350422  0.59443811  0.85330840  1  -0.046895  0.000875  -0.071704  -0.187138  0.00058  3.918968  0.001
C  C134  1  0.39328725  0.36718941  0.08741107  1  0.305536  0.001153  0.104551  0.189975  0.000783  4.06026  0.001
C  C135  1  0.60671661  0.63280626  0.91258509  1  0.306331  -0.001153  0.104449  0.18971  -0.000783  4.060399  -0.001
C  C136  1  0.39801257  0.24316743  0.11103700  1  -0.040178  -0.00074  -0.070546  -0.187178  -0.000487  3.924353  -0.001
C  C137  1  0.60199985  0.75682916  0.88895928  1  -0.040168  0.000739  -0.070523  -0.187192  0.000487  3.924498  0.001
C  C138  1  0.29696459  0.16180668  0.19496534  1  0.507711  0.001343  0.054876  0.111063  0.000877  3.945906  0.001
C  C139  1  0.70304700  0.83819082  0.80503019  1  0.507324  -0.001344  0.05486  0.111144  -0.000877  3.945654  -0.001
N  N140  1  0.19472839  0.19814554  0.25181555  1  -1.177187  0.000888  -0.332211  -0.227817  0.00025  3.487341  -0.001
N  N141  1  0.80528092  0.80184200  0.74817740  1  -1.176969  -0.000887  -0.332223  -0.22772  -0.000249  3.487478  0.001
N  N142  1  0.49908639  0.44592538  0.00290768  1  -0.451838  -0.001466  -0.131884  -0.116536  -0.00097  3.253416  -0.001
N  N143  1  0.50091957  0.55407210  0.99708803  1  -0.479303  0.001464  -0.131934  -0.116331  0.000968  3.25343  0.001
O  O144  1  0.21100020  0.98633181  0.43633797  1  -1.10924  -0.09485  -0.317168  -0.520235  -0.061675  2.391052  -0.086
O  O145  1  0.78900040  0.01372895  0.56370329  1  -1.10837  0.094867  -0.31721  -0.520073  0.061688  2.390552  0.086
O  O146  1  0.03837450  0.94270352  0.35444186  1  -1.111096  -0.085501  -0.313871  -0.510389  -0.055718  2.330775  -0.077
O  O147  1  0.96169910  0.05725155  0.64558359  1  -1.111024  0.085493  -0.313886  -0.510275  0.055712  2.3308  0.077
O  O148  1  0.08596037  0.85609503  0.60434307  1  -1.11854  0.082034  -0.32356  -0.532314  0.053607  2.353918  0.074
O  O149  1  0.91402236  0.14380646  0.39562437  1  -1.118742  -0.082016  -0.323452  -0.532083  -0.053598  2.354077  -0.074
O  O150  1  0.90188757  0.82334610  0.52176496  1  -1.126674  0.082456  -0.320841  -0.552107  0.053935  2.410968  0.075
O  O151  1  0.09802700  0.17667650  0.47821361  1  -1.126766  -0.082472  -0.320767  -0.552047  -0.053936  2.410561  -0.075
O  O152  1  0.62530635  0.71622615  0.59946272  1  -1.145593  0.000222  -0.345556  -0.439213  0.000129  2.35676  0.0
O  O153  1  0.37470545  0.28379399  0.40053489  1  -1.145684  -0.00022  -0.345581  -0.439325  -0.000127  2.356592  0.0
O  O154  1  0.91487137  0.47019459  0.28493750  1  -1.12633  0.000246  -0.345219  -0.442407  0.000148  2.357199  0.0
O  O155  1  0.08511822  0.52979921  0.71506459  1  -1.126857  -0.000243  -0.3452  -0.442457  -0.000146  2.357431  0.0
