# generated using pymatgen
data_CdH8C10(SN3)2
_symmetry_space_group_name_H-M   'P 1'
_cell_length_a   8.72223318
_cell_length_b   9.12070330
_cell_length_c   9.12069110
_cell_angle_alpha   113.53546531
_cell_angle_beta   89.99994525
_cell_angle_gamma   90.00052607
_symmetry_Int_Tables_number   1
_chemical_formula_structural   CdH8C10(SN3)2
_chemical_formula_sum   'Cd2 H16 C20 S4 N12'
_cell_volume   665.21888263
_cell_formula_units_Z   2
loop_
 _symmetry_equiv_pos_site_id
 _symmetry_equiv_pos_as_xyz
  1  'x, y, z'
loop_
 _atom_site_type_symbol
 _atom_site_label
 _atom_site_symmetry_multiplicity
 _atom_site_fract_x
 _atom_site_fract_y
 _atom_site_fract_z
 _atom_site_occupancy
 _atom_site_hle17_bader_spin_density
 _atom_site_hle17_ddec_charge
 _atom_site_hle17_ddec_spin_density
 _atom_site_hle17_ddec_sum_bond_order
 _atom_site_hle17_magmom
 _atom_site_hse06_10hf_bader_charge
 _atom_site_hse06_10hf_bader_spin_density
 _atom_site_hse06_10hf_ddec_charge
 _atom_site_hse06_10hf_ddec_spin_density
 _atom_site_hse06_10hf_ddec_sum_bond_order
 _atom_site_hse06_10hf_magmom
 _atom_site_hse06_bader_charge
 _atom_site_hse06_bader_spin_density
 _atom_site_hse06_ddec_charge
 _atom_site_hse06_ddec_spin_density
 _atom_site_hse06_ddec_sum_bond_order
 _atom_site_hse06_magmom
 _atom_site_pbe_bader_spin_density
 _atom_site_pbe_cm5_charge
 _atom_site_pbe_ddec_charge
 _atom_site_pbe_ddec_spin_density
 _atom_site_pbe_ddec_sum_bond_order
 _atom_site_pbe_magmom
Cd  Cd0  1  0.00000100  0.49999745  0.50000189  1  0  1.019869  0  1.919491  0  1.272852  0  0.817506  0  2.385231  0  1.319772  0  0.866482  0  2.346333  0  0  0.801824  0.783444  0  2.411361  0
Cd  Cd1  1  0.50000445  0.00000449  0.99999860  1  0  1.019913  0  1.919459  0  1.272866  0  0.817549  0  2.385203  0  1.319811  0  0.866522  0  2.346307  0  0  0.801863  0.783488  0  2.411326  0
H  H2  1  0.94042147  0.19158097  0.58456903  1  0  0.074163  0  0.977563  0  0.154703  0  0.077865  0  1.053024  0  0.16011  0  0.080332  0  1.050229  0  0  0.108746  0.075962  0  1.055105  0
H  H3  1  0.44041803  0.30840504  0.91542450  1  0  0.074104  0  0.977368  0  0.151232  0  0.077846  0  1.052834  0  0.156701  0  0.080339  0  1.050016  0  0  0.108706  0.075929  0  1.054922  0
H  H4  1  0.05959067  0.58457351  0.19158470  1  0  0.074155  0  0.977665  0  0.151354  0  0.077894  0  1.053072  0  0.156836  0  0.080362  0  1.050274  0  0  0.108755  0.075977  0  1.055164  0
H  H5  1  0.55958801  0.91542964  0.30841712  1  0  0.074176  0  0.977759  0  0.154595  0  0.077912  0  1.053154  0  0.15973  0  0.080379  0  1.050357  0  0  0.108772  0.076002  0  1.055245  0
H  H6  1  0.05959393  0.80841785  0.41542600  1  0  0.074165  0  0.977634  0  0.154863  0  0.077899  0  1.053052  0  0.160129  0  0.080365  0  1.050256  0  0  0.108763  0.075984  0  1.055142  0
H  H7  1  0.55958590  0.69158414  0.08457206  1  0  0.074161  0  0.977612  0  0.151365  0  0.077873  0  1.053073  0  0.156592  0  0.080341  0  1.050276  0  0  0.108746  0.07597  0  1.055154  0
H  H8  1  0.94042129  0.41543370  0.80841267  1  0  0.074164  0  0.977386  0  0.151408  0  0.077888  0  1.052862  0  0.15668  0  0.080369  0  1.050053  0  0  0.108753  0.075969  0  1.054952  0
H  H9  1  0.44043197  0.08457148  0.69158653  1  0  0.074191  0  0.977399  0  0.154615  0  0.077915  0  1.052865  0  0.160134  0  0.080379  0  1.050075  0  0  0.108771  0.076011  0  1.05494  0
H  H10  1  0.75000268  0.96702604  0.53296624  1  0  0.125912  0  0.941038  0  0.127075  0  0.134638  0  0.99805  0  0.130445  0  0.137093  0  0.998998  0  0  0.11389  0.132859  0  0.997633  0
H  H11  1  0.25000340  0.53296549  0.96702545  1  0  0.125854  0  0.940742  0  0.126883  0  0.134567  0  0.997777  0  0.130399  0  0.137023  0  0.998722  0  0  0.113853  0.132791  0  0.997347  0
H  H12  1  0.25001272  0.03297160  0.46702721  1  0  0.125901  0  0.940603  0  0.127  0  0.134596  0  0.997693  0  0.130557  0  0.137046  0  0.998646  0  0  0.113892  0.132837  0  0.99722  0
H  H13  1  0.75000512  0.46703090  0.03297188  1  0  0.125889  0  0.9407  0  0.127048  0  0.1346  0  0.997709  0  0.130493  0  0.137061  0  0.998653  0  0  0.113856  0.132816  0  0.997302  0
H  H14  1  0.74999383  0.28603025  0.21398092  1  0  0.071355  0  0.924341  0  0.12179  0  0.078965  0  0.990419  0  0.125584  0  0.080189  0  0.988512  0  0  0.129579  0.078003  0  0.991799  0
H  H15  1  0.24998961  0.21397454  0.28602678  1  0  0.071401  0  0.924447  0  0.12141  0  0.07901  0  0.990514  0  0.125542  0  0.080236  0  0.988603  0  0  0.129601  0.078044  0  0.991899  0
H  H16  1  0.24998603  0.71398034  0.78603319  1  0  0.071151  0  0.924404  0  0.121744  0  0.078799  0  0.990483  0  0.125601  0  0.080022  0  0.988579  0  0  0.12949  0.077839  0  0.991857  0
H  H17  1  0.74998566  0.78602195  0.71396291  1  0  0.071315  0  0.924325  0  0.121667  0  0.07894  0  0.990419  0  0.125537  0  0.080162  0  0.988515  0  0  0.129548  0.07798  0  0.991795  0
C  C18  1  0.70107900  0.62311801  0.37687734  1  0  0.283623  0  4.092808  0  0.479319  0  0.267597  0  4.395375  0  0.468822  0  0.291577  0  4.408867  0  0  0.129709  0.251439  0  4.385644  0
C  C19  1  0.20108226  0.87688304  0.12311691  1  0  0.283739  0  4.093239  0  0.479695  0  0.267693  0  4.395794  0  0.469044  0  0.291667  0  4.409287  0  0  0.129883  0.251541  0  4.386069  0
C  C20  1  0.29891920  0.37687466  0.62312833  1  0  0.283962  0  4.09235  0  0.479571  0  0.267954  0  4.394872  0  0.468865  0  0.291936  0  4.408359  0  0  0.129944  0.251793  0  4.385157  0
C  C21  1  0.79892167  0.12312779  0.87687866  1  0  0.283858  0  4.092521  0  0.479821  0  0.267834  0  4.395064  0  0.469214  0  0.291813  0  4.408556  0  0  0.129889  0.251673  0  4.385334  0
C  C22  1  0.85335652  0.16277847  0.49116998  1  0  0.183055  0  3.665114  0  0.480595  0  0.147256  0  3.91442  0  0.489809  0  0.158285  0  3.930016  0  0  0.066467  0.140323  0  3.903738  0
C  C23  1  0.35334462  0.33721287  0.00884198  1  0  0.183187  0  3.665525  0  0.481125  0  0.147274  0  3.914891  0  0.490497  0  0.15828  0  3.930484  0  0  0.066547  0.140351  0  3.90421  0
C  C24  1  0.14664478  0.49117783  0.16279244  1  0  0.183023  0  3.665364  0  0.480531  0  0.147194  0  3.914614  0  0.489795  0  0.158225  0  3.930206  0  0  0.066463  0.140267  0  3.903946  0
C  C25  1  0.64664389  0.00881996  0.33721139  1  0  0.183091  0  3.665262  0  0.480442  0  0.147276  0  3.914512  0  0.490321  0  0.158311  0  3.930106  0  0  0.066505  0.140338  0  3.903841  0
C  C26  1  0.14664970  0.83721558  0.50882200  1  0  0.183151  0  3.665146  0  0.480202  0  0.147331  0  3.914344  0  0.489748  0  0.158368  0  3.929938  0  0  0.066551  0.140397  0  3.903682  0
C  C27  1  0.64664670  0.66278689  0.99117317  1  0  0.183043  0  3.665253  0  0.480501  0  0.147197  0  3.914564  0  0.490219  0  0.158233  0  3.93016  0  0  0.066503  0.140257  0  3.90388  0
C  C28  1  0.85334540  0.50883517  0.83722156  1  0  0.183206  0  3.665156  0  0.480426  0  0.147292  0  3.914506  0  0.490191  0  0.15831  0  3.930103  0  0  0.066532  0.140371  0  3.903824  0
C  C29  1  0.35334858  0.99116449  0.66277884  1  0  0.183145  0  3.664853  0  0.480854  0  0.147276  0  3.914228  0  0.489917  0  0.158308  0  3.929832  0  0  0.066502  0.14034  0  3.903549  0
C  C30  1  0.75000626  0.03829465  0.46170291  1  0  -0.150178  0  3.682488  0  0.042662  0  -0.15584  0  3.926698  0  0.046865  0  -0.16757  0  3.948526  0  0  -0.072668  -0.148574  0  3.912317  0
C  C31  1  0.25000240  0.46169341  0.03829684  1  0  -0.150214  0  3.682407  0  0.042807  0  -0.155811  0  3.926604  0  0.047064  0  -0.167541  0  3.94844  0  0  -0.07269  -0.148545  0  3.912215  0
C  C32  1  0.25000226  0.96169444  0.53830019  1  0  -0.150269  0  3.68249  0  0.04271  0  -0.155872  0  3.926698  0  0.047026  0  -0.167604  0  3.948526  0  0  -0.072746  -0.148609  0  3.912336  0
C  C33  1  0.75000267  0.53830426  0.96169443  1  0  -0.150216  0  3.68276  0  0.043048  0  -0.155744  0  3.926905  0  0.047039  0  -0.167484  0  3.948747  0  0  -0.072646  -0.148475  0  3.912512  0
C  C34  1  0.74999688  0.21453373  0.28546755  1  0  0.317088  0  3.687983  0  1.165093  0  0.259431  0  3.961816  0  1.209179  0  0.275386  0  3.974683  0  0  0.187389  0.249006  0  3.952914  0
C  C35  1  0.24999343  0.28546386  0.21453939  1  0  0.316961  0  3.688075  0  1.165406  0  0.259312  0  3.961895  0  1.20871  0  0.275267  0  3.974755  0  0  0.18732  0.24888  0  3.953008  0
C  C36  1  0.24999214  0.78547346  0.71453091  1  0  0.317316  0  3.688357  0  1.165236  0  0.259575  0  3.962235  0  1.209312  0  0.27553  0  3.975113  0  0  0.187504  0.24914  0  3.95334  0
C  C37  1  0.74998642  0.71453360  0.78546824  1  0  0.317022  0  3.688184  0  1.165161  0  0.259318  0  3.962094  0  1.208573  0  0.275273  0  3.974968  0  0  0.187297  0.248882  0  3.953195  0
S  S38  1  0.51799063  0.63582510  0.36417343  1  0  -0.338571  0  2.064519  0  0.086385  0  -0.323315  0  2.358594  0  0.136727  0  -0.340149  0  2.361198  0  0  -0.17159  -0.311475  0  2.356529  0
S  S39  1  0.01799491  0.86417900  0.13581566  1  0  -0.338639  0  2.064436  0  0.086409  0  -0.32338  0  2.358523  0  0.136714  0  -0.34021  0  2.361124  0  0  -0.171674  -0.31155  0  2.356454  0
S  S40  1  0.48201445  0.36415912  0.63583534  1  0  -0.33879  0  2.064306  0  0.086585  0  -0.323542  0  2.35838  0  0.136911  0  -0.340378  0  2.360985  0  0  -0.171731  -0.311709  0  2.356321  0
S  S41  1  0.98201476  0.13584164  0.86416529  1  0  -0.338711  0  2.064421  0  0.086576  0  -0.323457  0  2.358501  0  0.136917  0  -0.340291  0  2.361107  0  0  -0.171676  -0.311619  0  2.356431  0
N  N42  1  0.83758070  0.61550341  0.38448937  1  0  -0.603773  0  2.888428  0  -1.326667  0  -0.543447  0  3.172137  0  -1.382136  0  -0.565994  0  3.175888  0  0  -0.432163  -0.527843  0  3.169139  0
N  N43  1  0.33756914  0.88449414  0.11550989  1  0  -0.603845  0  2.888869  0  -1.327077  0  -0.543493  0  3.172538  0  -1.382388  0  -0.566053  0  3.176323  0  0  -0.432316  -0.527888  0  3.169527  0
N  N44  1  0.16241750  0.38449531  0.61551330  1  0  -0.603897  0  2.888379  0  -1.326819  0  -0.543585  0  3.172113  0  -1.382052  0  -0.566135  0  3.17586  0  0  -0.432256  -0.527985  0  3.169126  0
N  N45  1  0.66242333  0.11551055  0.88449632  1  0  -0.603877  0  2.888469  0  -1.327076  0  -0.543546  0  3.172186  0  -1.38241  0  -0.566096  0  3.175942  0  0  -0.432258  -0.527945  0  3.169192  0
N  N46  1  0.84996912  0.25432321  0.40645460  1  0  -0.364893  0  3.18821  0  -1.299584  0  -0.288513  0  3.456604  0  -1.346149  0  -0.310512  0  3.472886  0  0  -0.317736  -0.273847  0  3.445254  0
N  N47  1  0.34996197  0.24567304  0.09354731  1  0  -0.364898  0  3.188736  0  -1.299856  0  -0.288452  0  3.457101  0  -1.346356  0  -0.310447  0  3.473386  0  0  -0.317714  -0.273783  0  3.445747  0
N  N48  1  0.15003221  0.40645098  0.25431882  1  0  -0.364781  0  3.188515  0  -1.299789  0  -0.288389  0  3.456875  0  -1.345874  0  -0.310392  0  3.473172  0  0  -0.31769  -0.273715  0  3.445517  0
N  N49  1  0.65003339  0.09354928  0.24568274  1  0  -0.364973  0  3.188537  0  -1.299716  0  -0.288585  0  3.456946  0  -1.34618  0  -0.31057  0  3.473187  0  0  -0.317796  -0.273914  0  3.445595  0
N  N50  1  0.15003596  0.74568500  0.59355853  1  0  -0.364945  0  3.188347  0  -1.299743  0  -0.288531  0  3.456778  0  -1.346239  0  -0.310513  0  3.473011  0  0  -0.317786  -0.273859  0  3.445424  0
N  N51  1  0.65003050  0.75431865  0.90644150  1  0  -0.364777  0  3.188462  0  -1.299873  0  -0.288404  0  3.456904  0  -1.346043  0  -0.310385  0  3.473136  0  0  -0.317724  -0.27375  0  3.445593  0
N  N52  1  0.84996484  0.59355036  0.74566738  1  0  -0.365022  0  3.188163  0  -1.299619  0  -0.288547  0  3.456547  0  -1.345893  0  -0.310544  0  3.472823  0  0  -0.317742  -0.273875  0  3.445187  0
N  N53  1  0.34996366  0.90644451  0.75432887  1  0  -0.36504  0  3.18827  0  -1.299811  0  -0.288618  0  3.456724  0  -1.346415  0  -0.310599  0  3.472957  0  0  -0.317812  -0.273943  0  3.445368  0
