# generated using pymatgen
data_Dy2H20C12O19
_symmetry_space_group_name_H-M   'P 1'
_cell_length_a   8.82066518
_cell_length_b   9.72760877
_cell_length_c   15.04340000
_cell_angle_alpha   90.00000000
_cell_angle_beta   90.00000000
_cell_angle_gamma   116.96095603
_symmetry_Int_Tables_number   1
_chemical_formula_structural   Dy2H20C12O19
_chemical_formula_sum   'Dy4 H40 C24 O38'
_cell_volume   1150.49566492
_cell_formula_units_Z   2
loop_
 _symmetry_equiv_pos_site_id
 _symmetry_equiv_pos_as_xyz
  1  'x, y, z'
loop_
 _atom_site_type_symbol
 _atom_site_label
 _atom_site_symmetry_multiplicity
 _atom_site_fract_x
 _atom_site_fract_y
 _atom_site_fract_z
 _atom_site_occupancy
 _atom_site_hle17_bader_spin_density
 _atom_site_hle17_ddec_charge
 _atom_site_hle17_ddec_spin_density
 _atom_site_hle17_ddec_sum_bond_order
 _atom_site_hle17_magmom
 _atom_site_hse06_10hf_bader_spin_density
 _atom_site_hse06_10hf_ddec_charge
 _atom_site_hse06_10hf_ddec_spin_density
 _atom_site_hse06_10hf_ddec_sum_bond_order
 _atom_site_hse06_10hf_magmom
 _atom_site_hse06_bader_spin_density
 _atom_site_hse06_ddec_charge
 _atom_site_hse06_ddec_spin_density
 _atom_site_hse06_ddec_sum_bond_order
 _atom_site_hse06_magmom
 _atom_site_pbe_bader_charge
 _atom_site_pbe_bader_spin_density
 _atom_site_pbe_cm5_charge
 _atom_site_pbe_ddec_charge
 _atom_site_pbe_ddec_spin_density
 _atom_site_pbe_ddec_sum_bond_order
 _atom_site_pbe_magmom
Dy  Dy0  1  0.61856208  0.23738086  0.99998338  1  0  2.185477  0  1.702536  0  0  1.99928  0  2.211108  0  0  2.144296  0  1.988825  0  2.174752  0  1.51638  1.963724  0  2.239337  0
Dy  Dy1  1  0.38143728  0.76262025  0.49998405  1  0  2.185473  0  1.702596  0  0  1.999263  0  2.211193  0  0  2.144284  0  1.988896  0  2.174754  0  1.516377  1.963706  0  2.239423  0
Dy  Dy2  1  0.99658901  0.99998036  0.75002925  1  0  2.268871  0  1.565025  0  0  2.130277  0  2.020091  0  0  2.252007  0  1.837928  0  2.189231  0  1.485748  2.09052  0  2.063179  0
Dy  Dy3  1  0.00341091  0.00001961  0.25002858  1  0  2.268853  0  1.565035  0  0  2.130247  0  2.020109  0  0  2.251982  0  1.837937  0  2.189211  0  1.485749  2.090489  0  2.063195  0
H  H4  1  0.74970436  0.61479035  0.87635109  1  0  0.09508  0  0.924342  0  0  0.103757  0  0.992682  0  0  0.106389  0  0.990151  0  0.072301  0  0.117705  0.101766  0  0.994765  0
H  H5  1  0.25029444  0.38521192  0.37635176  1  0  0.095094  0  0.924333  0  0  0.103783  0  0.992663  0  0  0.106417  0  0.990135  0  0.072324  0  0.117716  0.101795  0  0.994748  0
H  H6  1  0.13505786  0.38556715  0.62358243  1  0  0.094159  0  0.924896  0  0  0.1032  0  0.993149  0  0  0.105899  0  0.990519  0  0.124944  0  0.117547  0.101415  0  0.994715  0
H  H7  1  0.86494263  0.61443396  0.12358310  1  0  0.094212  0  0.924843  0  0  0.103249  0  0.993112  0  0  0.105944  0  0.990477  0  0.124938  0  0.117572  0.101463  0  0.994679  0
H  H8  1  0.89340558  0.58891256  0.80266163  1  0  0.098445  0  0.944791  0  0  0.108011  0  1.009929  0  0  0.110409  0  1.007934  0  0.10996  0  0.111589  0.10634  0  1.011391  0
H  H9  1  0.10659436  0.41108971  0.30266097  1  0  0.098415  0  0.944808  0  0  0.108008  0  1.009934  0  0  0.11041  0  1.00794  0  0.109754  0  0.111579  0.106341  0  1.011399  0
H  H10  1  0.30451025  0.41115314  0.69727788  1  0  0.097845  0  0.945347  0  0  0.107756  0  1.010329  0  0  0.110087  0  1.008402  0  0.094624  0  0.11143  0.106061  0  1.01169  0
H  H11  1  0.69548909  0.58884567  0.19727854  1  0  0.097824  0  0.94534  0  0  0.107751  0  1.010321  0  0  0.110076  0  1.008393  0  0.094604  0  0.111431  0.106057  0  1.011684  0
H  H12  1  0.59772647  0.36640419  0.72406903  1  0  0.098887  0  0.902098  0  0  0.111093  0  0.959573  0  0  0.11373  0  0.956661  0  0.090388  0  0.115542  0.109171  0  0.961742  0
H  H13  1  0.40227402  0.63359693  0.22406903  1  0  0.098884  0  0.902121  0  0  0.111076  0  0.959602  0  0  0.113716  0  0.956687  0  0.090371  0  0.115521  0.109154  0  0.961769  0
H  H14  1  0.23204879  0.63393256  0.77593696  1  0  0.098631  0  0.902399  0  0  0.110294  0  0.960436  0  0  0.113022  0  0.957402  0  0.089517  0  0.115459  0.108401  0  0.962408  0
H  H15  1  0.76795624  0.36606856  0.27593563  1  0  0.098611  0  0.902429  0  0  0.11028  0  0.96045  0  0  0.113005  0  0.957417  0  0.089476  0  0.11545  0.10839  0  0.962412  0
H  H16  1  0.52623488  0.46190184  0.80241102  1  0  0.095818  0  0.904006  0  0  0.109999  0  0.961592  0  0  0.112451  0  0.958512  0  0.069337  0  0.120717  0.108584  0  0.963231  0
H  H17  1  0.47376333  0.53809697  0.30241169  1  0  0.09584  0  0.904022  0  0  0.109991  0  0.961633  0  0  0.112458  0  0.958536  0  0.069323  0  0.120696  0.108574  0  0.963274  0
H  H18  1  0.06488046  0.53837839  0.69770398  1  0  0.095393  0  0.90312  0  0  0.109171  0  0.960878  0  0  0.111599  0  0.957918  0  0.081487  0  0.120544  0.1074  0  0.963224  0
H  H19  1  0.93512343  0.46162273  0.19770198  1  0  0.095376  0  0.90313  0  0  0.109138  0  0.960903  0  0  0.111568  0  0.957938  0  0.081447  0  0.120524  0.107356  0  0.963259  0
H  H20  1  0.40367951  0.82910530  0.88162317  1  0  0.097985  0  0.907512  0  0  0.106642  0  0.970865  0  0  0.109277  0  0.968198  0  0.087922  0  0.113787  0.104947  0  0.972379  0
H  H21  1  0.59632325  0.17089582  0.38162450  1  0  0.097975  0  0.907535  0  0  0.106631  0  0.970894  0  0  0.109264  0  0.968229  0  0.087923  0  0.113801  0.104938  0  0.972407  0
H  H22  1  0.57455827  0.17087505  0.61831301  1  0  0.098849  0  0.907133  0  0  0.107063  0  0.970687  0  0  0.109719  0  0.968068  0  0.08016  0  0.113826  0.105204  0  0.972548  0
H  H23  1  0.42544109  0.82912606  0.11831301  1  0  0.09883  0  0.907138  0  0  0.10703  0  0.970705  0  0  0.109683  0  0.96809  0  0.080169  0  0.113835  0.105172  0  0.972567  0
H  H24  1  0.51556643  0.76619104  0.95958294  1  0  0.124719  0  0.955983  0  0  0.130145  0  1.020447  0  0  0.134432  0  1.016197  0  0.161701  0  0.118134  0.127475  0  1.02273  0
H  H25  1  0.48443178  0.23380778  0.45958294  1  0  0.12469  0  0.956001  0  0  0.130114  0  1.02047  0  0  0.134401  0  1.016221  0  0.161705  0  0.118127  0.127445  0  1.022754  0
H  H26  1  0.74958147  0.23382969  0.54049550  1  0  0.124781  0  0.95599  0  0  0.130988  0  1.019389  0  0  0.135164  0  1.015275  0  0.160331  0  0.118044  0.128031  0  1.022181  0
H  H27  1  0.25041787  0.76616912  0.04049550  1  0  0.124789  0  0.955967  0  0  0.130956  0  1.019414  0  0  0.135153  0  1.015277  0  0.160315  0  0.118044  0.128001  0  1.022207  0
H  H28  1  0.19229135  0.14621059  0.58384408  1  0  0.439462  0  0.856458  0  0  0.408694  0  0.919456  0  0  0.420264  0  0.902924  0  0.661919  0  0.295303  0.400929  0  0.930589  0
H  H29  1  0.80770628  0.85378706  0.08384341  1  0  0.439421  0  0.856515  0  0  0.408666  0  0.919489  0  0  0.420236  0  0.902958  0  0.661904  0  0.295284  0.400901  0  0.930622  0
H  H30  1  0.04619258  0.85375592  0.91614329  1  0  0.439932  0  0.855695  0  0  0.408891  0  0.919195  0  0  0.420422  0  0.902715  0  0.66161  0  0.295037  0.400934  0  0.930662  0
H  H31  1  0.95380680  0.14624750  0.41614329  1  0  0.439953  0  0.855652  0  0  0.408921  0  0.919138  0  0  0.420452  0  0.902658  0  0.661609  0  0.295065  0.400964  0  0.930604  0
H  H32  1  0.16510761  0.97564230  0.59630868  1  0  0.434263  0  0.863653  0  0  0.406511  0  0.921083  0  0  0.417845  0  0.904779  0  0.645147  0  0.302319  0.398768  0  0.932373  0
H  H33  1  0.83489057  0.02435421  0.09630735  1  0  0.434284  0  0.863618  0  0  0.406539  0  0.921036  0  0  0.417873  0  0.904733  0  0.64518  0  0.302325  0.398798  0  0.932321  0
H  H34  1  0.18950264  0.02434267  0.90367271  1  0  0.433991  0  0.864113  0  0  0.406603  0  0.920942  0  0  0.417932  0  0.90465  0  0.626936  0  0.302296  0.398707  0  0.932466  0
H  H35  1  0.81049785  0.97565844  0.40367337  1  0  0.433991  0  0.864118  0  0  0.4066  0  0.92095  0  0  0.41793  0  0.904656  0  0.626938  0  0.302298  0.398703  0  0.932477  0
H  H36  1  0.68939732  0.74601889  0.74561269  1  0  0.417947  0  0.858127  0  0  0.393213  0  0.925804  0  0  0.40305  0  0.91137  0  0.622429  0  0.306529  0.386373  0  0.935979  0
H  H37  1  0.31060316  0.25397993  0.24561402  1  0  0.417929  0  0.85813  0  0  0.393199  0  0.925819  0  0  0.403036  0  0.911384  0  0.622422  0  0.306514  0.386359  0  0.935994  0
H  H38  1  0.94329394  0.25389458  0.75440725  1  0  0.418104  0  0.858019  0  0  0.393709  0  0.924963  0  0  0.403493  0  0.910636  0  0.624748  0  0.306495  0.386543  0  0.935743  0
H  H39  1  0.05670655  0.74610654  0.25440658  1  0  0.418104  0  0.858002  0  0  0.393709  0  0.924959  0  0  0.403493  0  0.910632  0  0.624752  0  0.30649  0.386542  0  0.93574  0
H  H40  1  0.71364867  0.78944033  0.64605674  1  0  0.441244  0  0.854971  0  0  0.41261  0  0.91322  0  0  0.424632  0  0.896077  0  0.642988  0  0.303078  0.404169  0  0.925491  0
H  H41  1  0.28635353  0.21056194  0.14605741  1  0  0.441305  0  0.854873  0  0  0.412657  0  0.91315  0  0  0.424679  0  0.896006  0  0.642895  0  0.303103  0.404215  0  0.925421  0
H  H42  1  0.92416089  0.21063114  0.85397317  1  0  0.442203  0  0.853646  0  0  0.413169  0  0.912689  0  0  0.425254  0  0.895455  0  0.649649  0  0.303011  0.404719  0  0.924958  0
H  H43  1  0.07583845  0.78936767  0.35397251  1  0  0.442209  0  0.853638  0  0  0.413183  0  0.912666  0  0  0.425266  0  0.895435  0  0.649656  0  0.30302  0.404732  0  0.924935  0
C  C44  1  0.92915113  0.56016408  0.94262800  1  0  0.689344  0  3.89991  0  0  0.640133  0  4.207104  0  0  0.672868  0  4.202335  0  1.634908  0  0.210004  0.618006  0  4.212006  0
C  C45  1  0.07084310  0.43983358  0.44262800  1  0  0.68918  0  3.900182  0  0  0.640086  0  4.207185  0  0  0.672844  0  4.202391  0  1.634809  0  0.21004  0.617965  0  4.212087  0
C  C46  1  0.36901566  0.43983819  0.55729290  1  0  0.689188  0  3.901242  0  0  0.640974  0  4.206845  0  0  0.673644  0  4.202141  0  1.612704  0  0.210296  0.618762  0  4.211907  0
C  C47  1  0.63098253  0.56015831  0.05729356  1  0  0.689359  0  3.900934  0  0  0.641028  0  4.206743  0  0  0.673689  0  4.202038  0  1.612452  0  0.21027  0.618815  0  4.211806  0
C  C48  1  0.81650201  0.54446002  0.86307949  1  0  -0.094543  0  3.652596  0  0  -0.150391  0  3.918598  0  0  -0.148347  0  3.922389  0  0.360921  0  -0.072462  -0.152226  0  3.918739  0
C  C49  1  0.18349735  0.45554110  0.36307949  1  0  -0.094481  0  3.652561  0  0  -0.150413  0  3.91857  0  0  -0.148392  0  3.922386  0  0.361098  0  -0.072474  -0.152271  0  3.918741  0
C  C50  1  0.27220859  0.45570257  0.63686334  1  0  -0.093291  0  3.651416  0  0  -0.149974  0  3.917476  0  0  -0.147908  0  3.921292  0  0.32731  0  -0.072427  -0.151704  0  3.91711  0
C  C51  1  0.72779248  0.54429971  0.13686334  1  0  -0.093281  0  3.65118  0  0  -0.149958  0  3.917316  0  0  -0.147863  0  3.921093  0  0.327305  0  -0.072378  -0.15169  0  3.916956  0
C  C52  1  0.56083696  0.36680325  0.79400534  1  0  -0.0669  0  3.643314  0  0  -0.122239  0  3.907572  0  0  -0.119491  0  3.909435  0  0.4136  0  -0.058645  -0.124251  0  3.907907  0
C  C53  1  0.43916522  0.63319672  0.29400667  1  0  -0.066961  0  3.643317  0  0  -0.122268  0  3.907535  0  0  -0.119529  0  3.909394  0  0.413497  0  -0.058618  -0.124272  0  3.907853  0
C  C54  1  0.19459588  0.63347237  0.70602457  1  0  -0.064507  0  3.643465  0  0  -0.119194  0  3.906541  0  0  -0.116551  0  3.908566  0  0.392227  0  -0.058546  -0.120895  0  3.906548  0
C  C55  1  0.80540688  0.36652875  0.20602390  1  0  -0.06452  0  3.643501  0  0  -0.119172  0  3.906537  0  0  -0.116523  0  3.908555  0  0.392312  0  -0.05853  -0.120864  0  3.906545  0
C  C56  1  0.40420161  0.21905754  0.81671697  1  0  0.737741  0  3.82308  0  0  0.689785  0  4.120035  0  0  0.724909  0  4.113972  0  1.602974  0  0.239429  0.666591  0  4.126397  0
C  C57  1  0.59580171  0.78094242  0.31671630  1  0  0.737791  0  3.823005  0  0  0.689851  0  4.119907  0  0  0.724975  0  4.113846  0  1.603098  0  0.239403  0.666655  0  4.126269  0
C  C58  1  0.18560312  0.78115003  0.68331228  1  0  0.735884  0  3.826032  0  0  0.689502  0  4.120295  0  0  0.724619  0  4.114245  0  1.61798  0  0.239601  0.666278  0  4.126492  0
C  C59  1  0.81439906  0.21884994  0.18331228  1  0  0.73584  0  3.826184  0  0  0.68946  0  4.120445  0  0  0.724578  0  4.114394  0  1.617941  0  0.239543  0.666235  0  4.126642  0
C  C60  1  0.50617960  0.86668271  0.93171225  1  0  -0.082196  0  3.610179  0  0  -0.135851  0  3.867346  0  0  -0.134645  0  3.869354  0  0.366869  0  -0.065351  -0.136714  0  3.867299  0
C  C61  1  0.49382146  0.13331726  0.43171225  1  0  -0.082185  0  3.610225  0  0  -0.135852  0  3.867418  0  0  -0.134647  0  3.869425  0  0.366874  0  -0.065369  -0.136716  0  3.867372  0
C  C62  1  0.63966531  0.13331495  0.56831767  1  0  -0.083412  0  3.60943  0  0  -0.136645  0  3.866955  0  0  -0.13538  0  3.869121  0  0.394425  0  -0.064738  -0.13749  0  3.867198  0
C  C63  1  0.36033290  0.86668386  0.06831767  1  0  -0.083244  0  3.609368  0  0  -0.136448  0  3.866856  0  0  -0.135196  0  3.869008  0  0.394417  0  -0.064697  -0.137307  0  3.86711  0
C  C64  1  0.67448614  0.97114999  0.88870933  1  0  0.749698  0  3.792241  0  0  0.701488  0  4.089366  0  0  0.737241  0  4.082432  0  1.597642  0  0.241449  0.677606  0  4.096434  0
C  C65  1  0.32551378  0.02884998  0.38870734  1  0  0.749882  0  3.792171  0  0  0.701661  0  4.089297  0  0  0.737423  0  4.082346  0  1.597997  0  0.241583  0.677779  0  4.096364  0
C  C66  1  0.70346771  0.02885113  0.61135315  1  0  0.751186  0  3.789585  0  0  0.70115  0  4.089594  0  0  0.736783  0  4.082871  0  1.577795  0  0.240416  0.677481  0  4.096365  0
C  C67  1  0.29653107  0.97114883  0.11135182  1  0  0.751043  0  3.789752  0  0  0.701078  0  4.089654  0  0  0.736712  0  4.08293  0  1.577848  0  0.240373  0.677411  0  4.096426  0
O  O68  1  0.89212803  0.44015767  0.99014252  1  0  -0.725474  0  1.993454  0  0  -0.674507  0  2.237327  0  0  -0.711316  0  2.222305  0  -1.198028  0  -0.412325  -0.657337  0  2.243958  0
O  O69  1  0.10787135  0.55984575  0.49014319  1  0  -0.725472  0  1.993455  0  0  -0.674537  0  2.237265  0  0  -0.711353  0  2.222232  0  -1.19796  0  -0.412344  -0.657366  0  2.243894  0
O  O70  1  0.45233354  0.55985383  0.50983554  1  0  -0.725392  0  1.992822  0  0  -0.675028  0  2.236337  0  0  -0.711777  0  2.221338  0  -1.192561  0  -0.412456  -0.657819  0  2.242824  0
O  O71  1  0.54766355  0.44014729  0.00983820  1  0  -0.725392  0  1.992822  0  0  -0.674977  0  2.236396  0  0  -0.711726  0  2.221401  0  -1.192594  0  -0.412397  -0.65777  0  2.242883  0
O  O72  1  0.04772150  0.69262440  0.95724504  1  0  -0.608491  0  1.95617  0  0  -0.553799  0  2.173276  0  0  -0.57834  0  2.162817  0  -1.199332  0  -0.304367  -0.535743  0  2.178938  0
O  O73  1  0.95228075  0.30738249  0.45724437  1  0  -0.608353  0  1.956396  0  0  -0.55373  0  2.173466  0  0  -0.578271  0  2.162995  0  -1.199339  0  -0.304396  -0.535676  0  2.179125  0
O  O74  1  0.35471384  0.30728099  0.54261005  1  0  -0.608576  0  1.958468  0  0  -0.553636  0  2.174448  0  0  -0.578211  0  2.164081  0  -1.182183  0  -0.304525  -0.536089  0  2.180221  0
O  O75  1  0.64528497  0.69272128  0.04261071  1  0  -0.608718  0  1.958265  0  0  -0.55375  0  2.174318  0  0  -0.578326  0  2.163953  0  -1.181927  0  -0.304589  -0.536202  0  2.180092  0
O  O76  1  0.69471670  0.38607578  0.85307577  1  0  -0.333512  0  2.449376  0  0  -0.259633  0  2.696713  0  0  -0.283958  0  2.701097  0  -1.075959  0  -0.256242  -0.248798  0  2.694839  0
O  O77  1  0.30528382  0.61392764  0.35307643  1  0  -0.33352  0  2.449308  0  0  -0.259628  0  2.696622  0  0  -0.283955  0  2.70102  0  -1.075951  0  -0.25624  -0.248784  0  2.69475  0
O  O78  1  0.30903241  0.61412833  0.64687371  1  0  -0.333947  0  2.449528  0  0  -0.26056  0  2.697663  0  0  -0.284812  0  2.701987  0  -1.074484  0  -0.256015  -0.249612  0  2.695246  0
O  O79  1  0.69096978  0.38587164  0.14687371  1  0  -0.333965  0  2.449386  0  0  -0.260592  0  2.697532  0  0  -0.284853  0  2.701846  0  -1.074433  0  -0.256057  -0.249645  0  2.695113  0
O  O80  1  0.40387721  0.15150679  0.88946448  1  0  -0.707996  0  2.057775  0  0  -0.650157  0  2.295918  0  0  -0.687824  0  2.2814  0  -1.185963  0  -0.36768  -0.632193  0  2.302439  0
O  O81  1  0.59612271  0.84849317  0.38946648  1  0  -0.708043  0  2.057659  0  0  -0.650203  0  2.295774  0  0  -0.687873  0  2.281255  0  -1.185935  0  -0.367696  -0.632237  0  2.302297  0
O  O82  1  0.25265763  0.84862004  0.61050693  1  0  -0.706646  0  2.057176  0  0  -0.649244  0  2.294467  0  0  -0.686948  0  2.279996  0  -1.187368  0  -0.367297  -0.631502  0  2.301033  0
O  O83  1  0.74734229  0.15137992  0.11050560  1  0  -0.706663  0  2.057113  0  0  -0.649288  0  2.294429  0  0  -0.686993  0  2.279957  0  -1.187342  0  -0.367328  -0.631547  0  2.300993  0
O  O84  1  0.28255034  0.17554268  0.76241807  1  0  -0.721422  0  2.064147  0  0  -0.671571  0  2.321867  0  0  -0.708889  0  2.307297  0  -1.182078  0  -0.390859  -0.652195  0  2.32865  0
O  O85  1  0.71744900  0.82445614  0.26242073  1  0  -0.721401  0  2.064274  0  0  -0.671548  0  2.321972  0  0  -0.708866  0  2.3074  0  -1.182076  0  -0.390807  -0.652175  0  2.328758  0
O  O86  1  0.10749307  0.82469488  0.73762314  1  0  -0.72225  0  2.064565  0  0  -0.672886  0  2.32146  0  0  -0.71011  0  2.306772  0  -1.188933  0  -0.391293  -0.653535  0  2.328317  0
O  O87  1  0.89250685  0.17530508  0.23762048  1  0  -0.722175  0  2.064742  0  0  -0.67281  0  2.321633  0  0  -0.710036  0  2.306946  0  -1.18892  0  -0.391198  -0.653457  0  2.328485  0
O  O88  1  0.47661564  0.95365938  0.99996477  1  0  -0.339524  0  2.488513  0  0  -0.265072  0  2.739221  0  0  -0.289992  0  2.744241  0  -1.092807  0  -0.274612  -0.25427  0  2.736322  0
O  O89  1  0.52338201  0.04634058  0.49996543  1  0  -0.339468  0  2.488531  0  0  -0.26499  0  2.739233  0  0  -0.289909  0  2.744252  0  -1.092824  0  -0.274586  -0.2542  0  2.736336  0
O  O90  1  0.74371608  0.11398014  0.91001569  1  0  -0.712834  0  2.055395  0  0  -0.655781  0  2.295321  0  0  -0.693816  0  2.280192  0  -1.186769  0  -0.363372  -0.63765  0  2.302936  0
O  O91  1  0.25628608  0.88601752  0.41001436  1  0  -0.712891  0  2.055225  0  0  -0.655838  0  2.29516  0  0  -0.693878  0  2.280027  0  -1.186711  0  -0.363435  -0.637708  0  2.302778  0
O  O92  1  0.63003430  0.88605558  0.58997102  1  0  -0.713162  0  2.055871  0  0  -0.655143  0  2.295833  0  0  -0.693091  0  2.280855  0  -1.188193  0  -0.362894  -0.637115  0  2.303494  0
O  O93  1  0.36996618  0.11394323  0.08997168  1  0  -0.713154  0  2.055952  0  0  -0.655135  0  2.295863  0  0  -0.693082  0  2.280883  0  -1.188218  0  -0.362863  -0.637106  0  2.303524  0
O  O94  1  0.73642840  0.91109603  0.83421368  1  0  -0.736906  0  2.028165  0  0  -0.683097  0  2.276173  0  0  -0.719535  0  2.260269  0  -1.204223  0  -0.37701  -0.663657  0  2.284328  0
O  O95  1  0.26357543  0.08889816  0.33421168  1  0  -0.737  0  2.028388  0  0  -0.683188  0  2.276407  0  0  -0.719629  0  2.260493  0  -1.204679  0  -0.377074  -0.66375  0  2.284564  0
O  O96  1  0.82532161  0.08889701  0.66592592  1  0  -0.737524  0  2.027739  0  0  -0.683376  0  2.276704  0  0  -0.719734  0  2.260846  0  -1.200054  0  -0.376545  -0.663663  0  2.284544  0
O  O97  1  0.17467547  0.91110180  0.16592393  1  0  -0.737485  0  2.027788  0  0  -0.683359  0  2.276714  0  0  -0.719719  0  2.260859  0  -1.200093  0  -0.37655  -0.663646  0  2.284551  0
O  O98  1  0.10657130  0.04131427  0.60463127  1  0  -0.913677  0  1.823004  0  0  -0.866141  0  2.003747  0  0  -0.895631  0  1.963733  0  -1.293213  0  -0.660031  -0.852026  0  2.026632  0
O  O99  1  0.89342631  0.95868108  0.10463060  1  0  -0.913666  0  1.823055  0  0  -0.866141  0  2.003797  0  0  -0.895631  0  1.963783  0  -1.293221  0  -0.660021  -0.852027  0  2.026682  0
O  O100  1  0.06527920  0.95863610  0.89539333  1  0  -0.913629  0  1.822665  0  0  -0.865976  0  2.003087  0  0  -0.895466  0  1.963198  0  -1.274091  0  -0.659866  -0.851939  0  2.026709  0
O  O101  1  0.93472016  0.04136502  0.39539200  1  0  -0.913639  0  1.822648  0  0  -0.865979  0  2.003046  0  0  -0.89547  0  1.963157  0  -1.274079  0  -0.659872  -0.851941  0  2.026668  0
O  O102  1  0.76653572  0.75729061  0.69611458  1  0  -0.874242  0  1.794059  0  0  -0.831817  0  1.970581  0  0  -0.859546  0  1.934585  0  -1.253367  0  -0.631119  -0.817966  0  1.992041  0
O  O103  1  0.23346421  0.24271166  0.19611524  1  0  -0.874261  0  1.793932  0  0  -0.831826  0  1.970451  0  0  -0.859556  0  1.934457  0  -1.253204  0  -0.631116  -0.817975  0  1.991909  0
O  O104  1  0.00917815  0.24268168  0.80391999  1  0  -0.875156  0  1.793097  0  0  -0.832464  0  1.969074  0  0  -0.860201  0  1.933045  0  -1.261819  0  -0.631074  -0.818577  0  1.991181  0
O  O105  1  0.99082290  0.75731829  0.30392066  1  0  -0.875138  0  1.793049  0  0  -0.832452  0  1.969046  0  0  -0.860193  0  1.933022  0  -1.261823  0  -0.631066  -0.818565  0  1.991152  0
