# generated using pymatgen
data_ZnH18C28(NO)4
_symmetry_space_group_name_H-M   'P 1'
_cell_length_a   7.72027829
_cell_length_b   10.23118342
_cell_length_c   15.22394065
_cell_angle_alpha   73.39421578
_cell_angle_beta   80.72168416
_cell_angle_gamma   81.85556221
_symmetry_Int_Tables_number   1
_chemical_formula_structural   ZnH18C28(NO)4
_chemical_formula_sum   'Zn2 H36 C56 N8 O8'
_cell_volume   1131.44983278
_cell_formula_units_Z   2
loop_
 _symmetry_equiv_pos_site_id
 _symmetry_equiv_pos_as_xyz
  1  'x, y, z'
loop_
 _atom_site_type_symbol
 _atom_site_label
 _atom_site_symmetry_multiplicity
 _atom_site_fract_x
 _atom_site_fract_y
 _atom_site_fract_z
 _atom_site_occupancy
 _atom_site_hle17_bader_spin_density
 _atom_site_hle17_ddec_charge
 _atom_site_hle17_ddec_spin_density
 _atom_site_hle17_ddec_sum_bond_order
 _atom_site_hle17_magmom
 _atom_site_hse06_10hf_bader_spin_density
 _atom_site_hse06_10hf_ddec_charge
 _atom_site_hse06_10hf_ddec_spin_density
 _atom_site_hse06_10hf_ddec_sum_bond_order
 _atom_site_hse06_10hf_magmom
 _atom_site_hse06_bader_spin_density
 _atom_site_hse06_ddec_charge
 _atom_site_hse06_ddec_spin_density
 _atom_site_hse06_ddec_sum_bond_order
 _atom_site_hse06_magmom
 _atom_site_pbe_bader_spin_density
 _atom_site_pbe_cm5_charge
 _atom_site_pbe_ddec_charge
 _atom_site_pbe_ddec_spin_density
 _atom_site_pbe_ddec_sum_bond_order
 _atom_site_pbe_magmom
Zn  Zn0  1  0.21536679  0.47868980  0.98577641  1  0  1.121364  0  1.656102  0  0  0.928963  0  2.115845  0  0  0.98322  0  2.055387  0  0  0.706918  0.890364  0  2.157802  0
Zn  Zn1  1  0.78463266  0.52131079  0.01422535  1  0  1.121352  0  1.656066  0  0  0.928964  0  2.115839  0  0  0.983213  0  2.055371  0  0  0.706918  0.890361  0  2.157792  0
H  H2  1  0.21312231  0.53082822  0.53998694  1  0  0.084532  0  0.957304  0  0  0.095019  0  1.0203  0  0  0.096949  0  1.018084  0  0  0.12968  0.093591  0  1.021882  0
H  H3  1  0.78688216  0.46917336  0.46001089  1  0  0.084532  0  0.95724  0  0  0.095  0  1.020263  0  0  0.096946  0  1.018029  0  0  0.129654  0.093572  0  1.021845  0
H  H4  1  0.03193317  0.94532180  0.29347669  1  0  0.098514  0  0.96883  0  0  0.107883  0  1.033256  0  0  0.109809  0  1.033974  0  0  0.098147  0.106497  0  1.032878  0
H  H5  1  0.96806511  0.05467776  0.70652603  1  0  0.098462  0  0.968833  0  0  0.107871  0  1.033213  0  0  0.109797  0  1.033932  0  0  0.098168  0.106485  0  1.032834  0
H  H6  1  0.10348190  0.17563561  0.29541901  1  0  0.085261  0  0.953547  0  0  0.098161  0  1.010814  0  0  0.100291  0  1.010838  0  0  0.094598  0.096594  0  1.010903  0
H  H7  1  0.89651611  0.82436495  0.70457894  1  0  0.085232  0  0.953634  0  0  0.098171  0  1.010857  0  0  0.1003  0  1.010884  0  0  0.094595  0.096623  0  1.010925  0
H  H8  1  0.25846762  0.20119180  0.41821991  1  0  0.085031  0  0.965944  0  0  0.095522  0  1.027483  0  0  0.097252  0  1.028394  0  0  0.093813  0.09423  0  1.02712  0
H  H9  1  0.74153199  0.79880671  0.58177896  1  0  0.085041  0  0.965926  0  0  0.095531  0  1.02747  0  0  0.097262  0  1.028381  0  0  0.093817  0.094239  0  1.02711  0
H  H10  1  0.35251012  0.99802575  0.54324347  1  0  0.097725  0  0.971068  0  0  0.107071  0  1.035781  0  0  0.109878  0  1.034765  0  0  0.100071  0.105121  0  1.03648  0
H  H11  1  0.64748923  0.00197481  0.45675502  1  0  0.097662  0  0.971041  0  0  0.107021  0  1.035754  0  0  0.109826  0  1.034743  0  0  0.10005  0.105071  0  1.036452  0
H  H12  1  0.53726443  0.52420559  0.56240357  1  0  0.088577  0  0.984127  0  0  0.09634  0  1.054609  0  0  0.099171  0  1.053513  0  0  0.098978  0.094326  0  1.055391  0
H  H13  1  0.46273744  0.47578576  0.43759846  1  0  0.088566  0  0.984118  0  0  0.09633  0  1.0546  0  0  0.099162  0  1.053501  0  0  0.098984  0.094316  0  1.055386  0
H  H14  1  0.71493765  0.43969261  0.69334573  1  0  0.10817  0  0.949708  0  0  0.114471  0  1.016249  0  0  0.118066  0  1.01365  0  0  0.106276  0.111788  0  1.018306  0
H  H15  1  0.28506022  0.56029978  0.30665843  1  0  0.108251  0  0.949628  0  0  0.11451  0  1.016201  0  0  0.118103  0  1.013607  0  0  0.106296  0.111828  0  1.018258  0
H  H16  1  0.43045542  0.74823829  0.81805218  1  0  0.109857  0  0.981924  0  0  0.118498  0  1.044256  0  0  0.121614  0  1.042163  0  0  0.103882  0.116314  0  1.045634  0
H  H17  1  0.56954733  0.25176637  0.18194455  1  0  0.109871  0  0.981973  0  0  0.118515  0  1.044288  0  0  0.121631  0  1.042194  0  0  0.103926  0.116331  0  1.045666  0
H  H18  1  0.25254160  0.83385395  0.68680238  1  0  0.106129  0  0.948872  0  0  0.11936  0  1.005175  0  0  0.122483  0  1.004169  0  0  0.107197  0.117099  0  1.005986  0
H  H19  1  0.74746778  0.16614965  0.31319199  1  0  0.106147  0  0.948832  0  0  0.11942  0  1.005087  0  0  0.122521  0  1.004109  0  0  0.107225  0.117156  0  1.005903  0
H  H20  1  0.56086287  0.27800021  0.98272044  1  0  0.122283  0  0.954784  0  0  0.129176  0  1.019442  0  0  0.13243  0  1.014865  0  0  0.1444  0.12672  0  1.022844  0
H  H21  1  0.43914199  0.72199934  0.01728235  1  0  0.122297  0  0.954819  0  0  0.12919  0  1.019452  0  0  0.13244  0  1.014883  0  0  0.144408  0.126737  0  1.022847  0
H  H22  1  0.07164265  0.47912357  0.78723297  1  0  0.120387  0  0.962053  0  0  0.131328  0  1.018554  0  0  0.13453  0  1.016635  0  0  0.105936  0.129046  0  1.01988  0
H  H23  1  0.92835920  0.52086882  0.21277215  1  0  0.120382  0  0.962087  0  0  0.131288  0  1.018627  0  0  0.13449  0  1.016709  0  0  0.10593  0.129006  0  1.01995  0
H  H24  1  0.04277254  0.38129800  0.65751359  1  0  0.093572  0  0.983747  0  0  0.096681  0  1.057761  0  0  0.100684  0  1.05454  0  0  0.09632  0.093783  0  1.060144  0
H  H25  1  0.95722142  0.61870465  0.34248891  1  0  0.093547  0  0.983771  0  0  0.09666  0  1.057776  0  0  0.100662  0  1.054557  0  0  0.096315  0.093762  0  1.060159  0
H  H26  1  0.25782366  0.19956737  0.61918837  1  0  0.091014  0  0.95173  0  0  0.104215  0  1.007978  0  0  0.106905  0  1.007014  0  0  0.099498  0.102226  0  1.008839  0
H  H27  1  0.74217545  0.80043525  0.38081040  1  0  0.091053  0  0.9518  0  0  0.104282  0  1.008019  0  0  0.106973  0  1.007052  0  0  0.099506  0.102293  0  1.008881  0
H  H28  1  0.50974108  0.09902760  0.71149697  1  0  0.109123  0  0.965134  0  0  0.118574  0  1.027583  0  0  0.120819  0  1.028265  0  0  0.103855  0.117134  0  1.026834  0
H  H29  1  0.49025190  0.90097197  0.28850491  1  0  0.10913  0  0.965166  0  0  0.118585  0  1.027603  0  0  0.120829  0  1.028288  0  0  0.103854  0.117143  0  1.026854  0
H  H30  1  0.50756920  0.94516434  0.87285906  1  0  0.114795  0  0.941315  0  0  0.124783  0  1.002693  0  0  0.128335  0  1.000523  0  0  0.11047  0.12229  0  1.004223  0
H  H31  1  0.49242491  0.05483624  0.12714054  1  0  0.11482  0  0.941312  0  0  0.12477  0  1.002751  0  0  0.128306  0  1.000597  0  0  0.110492  0.122277  0  1.00428  0
H  H32  1  0.73906065  0.75240362  0.89294723  1  0  0.09378  0  1.032819  0  0  0.102913  0  1.095056  0  0  0.105683  0  1.0937  0  0  0.10198  0.100852  0  1.096017  0
H  H33  1  0.26093636  0.24759386  0.10704878  1  0  0.093757  0  1.032841  0  0  0.102876  0  1.095092  0  0  0.105648  0  1.093736  0  0  0.10197  0.100817  0  1.096053  0
H  H34  1  0.11469980  0.01798840  0.90552545  1  0  0.098999  0  0.949021  0  0  0.106973  0  1.011423  0  0  0.109949  0  1.010329  0  0  0.10441  0.104959  0  1.012129  0
H  H35  1  0.88529554  0.98201216  0.09447077  1  0  0.098979  0  0.948906  0  0  0.106925  0  1.011345  0  0  0.109901  0  1.010251  0  0  0.104379  0.104913  0  1.012048  0
H  H36  1  0.87967409  0.21735143  0.87956557  1  0  0.134792  0  0.964896  0  0  0.143249  0  1.02546  0  0  0.146434  0  1.024503  0  0  0.112408  0.140906  0  1.026413  0
H  H37  1  0.12032289  0.78264710  0.12043353  1  0  0.134757  0  0.964928  0  0  0.143216  0  1.025496  0  0  0.146401  0  1.02454  0  0  0.112406  0.140852  0  1.026475  0
C  C38  1  0.20743177  0.64016413  0.50643723  1  0  0.184636  0  3.692923  0  0  0.131696  0  3.96583  0  0  0.146819  0  3.975457  0  0  0.149168  0.121961  0  3.958805  0
C  C39  1  0.79257703  0.35983436  0.49356082  1  0  0.184567  0  3.692826  0  0  0.131622  0  3.965746  0  0  0.146732  0  3.975371  0  0  0.149164  0.121887  0  3.95872  0
C  C40  1  0.15164187  0.84248407  0.41784784  1  0  0.13339  0  3.838037  0  0  0.138072  0  4.085856  0  0  0.140284  0  4.108155  0  0  0.082091  0.136491  0  4.070814  0
C  C41  1  0.84835867  0.15751857  0.58215473  1  0  0.133445  0  3.83797  0  0  0.137992  0  4.085921  0  0  0.140204  0  4.108221  0  0  0.082161  0.136412  0  4.070875  0
C  C42  1  0.10012133  0.95706782  0.34770899  1  0  -0.139778  0  3.75503  0  0  -0.159606  0  4.007221  0  0  -0.161622  0  4.028073  0  0  -0.096207  -0.158158  0  3.993093  0
C  C43  1  0.89987781  0.04293481  0.65229108  1  0  -0.1397  0  3.755096  0  0  -0.159531  0  4.007323  0  0  -0.161546  0  4.028176  0  0  -0.096241  -0.158083  0  3.9932  0
C  C44  1  0.14059062  0.08470224  0.34947493  1  0  -0.089547  0  3.803614  0  0  -0.108117  0  4.065575  0  0  -0.111205  0  4.088804  0  0  -0.10738  -0.105856  0  4.04958  0
C  C45  1  0.85940570  0.91530246  0.65052696  1  0  -0.089557  0  3.803627  0  0  -0.108161  0  4.065611  0  0  -0.111249  0  4.08884  0  0  -0.107374  -0.105916  0  4.049614  0
C  C46  1  0.23001855  0.09940339  0.41922532  1  0  -0.06757  0  3.789459  0  0  -0.084149  0  4.046353  0  0  -0.085473  0  4.069386  0  0  -0.101102  -0.083111  0  4.030506  0
C  C47  1  0.76997666  0.90059924  0.58077510  1  0  -0.067595  0  3.789318  0  0  -0.084178  0  4.046242  0  0  -0.085501  0  4.069273  0  0  -0.101128  -0.083144  0  4.030406  0
C  C48  1  0.28312318  0.98668469  0.48941077  1  0  -0.161468  0  3.790293  0  0  -0.179081  0  4.046073  0  0  -0.182573  0  4.066222  0  0  -0.102688  -0.176641  0  4.032363  0
C  C49  1  0.71688116  0.01331791  0.51058688  1  0  -0.16138  0  3.790498  0  0  -0.179037  0  4.046254  0  0  -0.182529  0  4.066403  0  0  -0.102658  -0.176596  0  4.032541  0
C  C50  1  0.24326362  0.85890531  0.48723141  1  0  0.106708  0  3.771144  0  0  0.096971  0  4.010854  0  0  0.101152  0  4.033335  0  0  0.089728  0.094161  0  3.995695  0
C  C51  1  0.75673708  0.14109526  0.51276827  1  0  0.106653  0  3.771532  0  0  0.097034  0  4.011122  0  0  0.101217  0  4.033603  0  0  0.089726  0.094224  0  3.995958  0
C  C52  1  0.38355266  0.68363950  0.61684274  1  0  0.193836  0  3.788774  0  0  0.184665  0  4.038419  0  0  0.192459  0  4.059794  0  0  0.097346  0.179429  0  4.024009  0
C  C53  1  0.61645737  0.31635897  0.38315257  1  0  0.193951  0  3.788903  0  0  0.184702  0  4.038631  0  0  0.192499  0  4.059998  0  0  0.097322  0.179468  0  4.024219  0
C  C54  1  0.51441771  0.57335127  0.61848662  1  0  -0.157504  0  3.754728  0  0  -0.175906  0  4.008263  0  0  -0.181898  0  4.02994  0  0  -0.091263  -0.17208  0  3.993831  0
C  C55  1  0.48558753  0.42664416  0.38151235  1  0  -0.157516  0  3.754731  0  0  -0.175905  0  4.008261  0  0  -0.181893  0  4.029936  0  0  -0.091284  -0.172083  0  3.993833  0
C  C56  1  0.61406417  0.52616672  0.69174359  1  0  -0.044731  0  3.726265  0  0  -0.068418  0  3.971428  0  0  -0.06639  0  3.990769  0  0  -0.077652  -0.069728  0  3.958624  0
C  C57  1  0.38593719  0.47382873  0.30825769  1  0  -0.044858  0  3.726234  0  0  -0.068448  0  3.971418  0  0  -0.066423  0  3.990763  0  0  -0.077659  -0.069758  0  3.958615  0
C  C58  1  0.58379750  0.58872745  0.76436722  1  0  -0.078661  0  3.764462  0  0  -0.054028  0  3.994831  0  0  -0.063655  0  4.019178  0  0  -0.024145  -0.047875  0  3.978651  0
C  C59  1  0.41621135  0.41127105  0.23563280  1  0  -0.078628  0  3.764395  0  0  -0.054158  0  3.994922  0  0  -0.063782  0  4.019262  0  0  -0.024207  -0.048007  0  3.978742  0
C  C60  1  0.45586736  0.70120752  0.76099803  1  0  -0.053306  0  3.725765  0  0  -0.077761  0  3.974219  0  0  -0.076292  0  3.994164  0  0  -0.083484  -0.078502  0  3.960446  0
C  C61  1  0.54413791  0.29878791  0.23900159  1  0  -0.053492  0  3.726116  0  0  -0.077917  0  3.974646  0  0  -0.076444  0  3.994579  0  0  -0.083598  -0.078657  0  3.96087  0
C  C62  1  0.35548455  0.74890332  0.68788159  1  0  -0.148721  0  3.726178  0  0  -0.167214  0  3.97725  0  0  -0.172217  0  3.996557  0  0  -0.088838  -0.164022  0  3.964147  0
C  C63  1  0.64452416  0.25109621  0.31211758  1  0  -0.148683  0  3.726295  0  0  -0.167188  0  3.977348  0  0  -0.172174  0  3.996658  0  0  -0.088844  -0.163996  0  3.964245  0
C  C64  1  0.68276384  0.52970706  0.84605038  1  0  0.624524  0  3.941761  0  0  0.572573  0  4.235079  0  0  0.606699  0  4.228361  0  0  0.198735  0.549323  0  4.23885  0
C  C65  1  0.31722604  0.47029662  0.15395228  1  0  0.624633  0  3.941822  0  0  0.572739  0  4.235102  0  0  0.606878  0  4.228373  0  0  0.198785  0.54949  0  4.238877  0
C  C66  1  0.48998974  0.28211066  0.92567808  1  0  0.239691  0  3.601746  0  0  0.174014  0  3.873554  0  0  0.193166  0  3.882513  0  0  0.171552  0.161403  0  3.867111  0
C  C67  1  0.51001227  0.71788990  0.07432148  1  0  0.239644  0  3.601912  0  0  0.173984  0  3.873724  0  0  0.193133  0  3.882685  0  0  0.171511  0.161373  0  3.867282  0
C  C68  1  0.30073994  0.33756190  0.82496021  1  0  0.146659  0  3.825082  0  0  0.145308  0  4.067331  0  0  0.148223  0  4.092578  0  0  0.086768  0.143226  0  4.050134  0
C  C69  1  0.69925963  0.66243766  0.17504173  1  0  0.146716  0  3.824977  0  0  0.14536  0  4.067231  0  0  0.148275  0  4.092481  0  0  0.0868  0.143276  0  4.050035  0
C  C70  1  0.16612840  0.39749745  0.77090615  1  0  -0.117796  0  3.723859  0  0  -0.137574  0  3.971029  0  0  -0.139661  0  3.991099  0  0  -0.089251  -0.135822  0  3.957076  0
C  C71  1  0.83387045  0.60249802  0.22909929  1  0  -0.117884  0  3.723669  0  0  -0.137621  0  3.970837  0  0  -0.139708  0  3.990908  0  0  -0.089254  -0.135864  0  3.956879  0
C  C72  1  0.15232341  0.34386588  0.69823313  1  0  -0.080785  0  3.778038  0  0  -0.097822  0  4.03812  0  0  -0.101115  0  4.060245  0  0  -0.099327  -0.095534  0  4.022965  0
C  C73  1  0.84767609  0.65613471  0.30177059  1  0  -0.080672  0  3.777732  0  0  -0.097713  0  4.037807  0  0  -0.101007  0  4.059935  0  0  -0.099282  -0.095425  0  4.022652  0
C  C74  1  0.27407606  0.23746752  0.67713521  1  0  -0.071859  0  3.78193  0  0  -0.086392  0  4.035364  0  0  -0.08818  0  4.057736  0  0  -0.097097  -0.084984  0  4.020034  0
C  C75  1  0.72591170  0.76253207  0.32286779  1  0  -0.07196  0  3.782087  0  0  -0.08652  0  4.035522  0  0  -0.088308  0  4.057894  0  0  -0.097132  -0.085111  0  4.020192  0
C  C76  1  0.41314260  0.17942957  0.72863568  1  0  -0.154368  0  3.767389  0  0  -0.17389  0  4.020284  0  0  -0.177042  0  4.041087  0  0  -0.098843  -0.17175  0  4.005881  0
C  C77  1  0.58685295  0.82056999  0.27136400  1  0  -0.15428  0  3.767572  0  0  -0.17379  0  4.02047  0  0  -0.17694  0  4.04127  0  0  -0.098751  -0.171646  0  4.006063  0
C  C78  1  0.42209480  0.23072719  0.80331820  1  0  0.105447  0  3.76553  0  0  0.096335  0  4.007253  0  0  0.099876  0  4.029396  0  0  0.093887  0.093939  0  3.992387  0
C  C79  1  0.57789834  0.76927136  0.19668452  1  0  0.105424  0  3.765415  0  0  0.096289  0  4.007184  0  0  0.099831  0  4.029325  0  0  0.093813  0.093894  0  3.992319  0
C  C80  1  0.68044640  0.09096471  0.87778973  1  0  0.20153  0  3.754498  0  0  0.194859  0  4.001127  0  0  0.20219  0  4.021686  0  0  0.103896  0.190002  0  3.987135  0
C  C81  1  0.31955513  0.90903996  0.12221039  1  0  0.201545  0  3.75453  0  0  0.194928  0  4.001083  0  0  0.202281  0  4.02161  0  0  0.103937  0.190072  0  3.987089  0
C  C82  1  0.64093827  0.96131965  0.87941722  1  0  -0.147484  0  3.731598  0  0  -0.16975  0  3.988426  0  0  -0.174551  0  4.008019  0  0  -0.087694  -0.1665  0  3.974981  0
C  C83  1  0.35906043  0.03868604  0.12058033  1  0  -0.147504  0  3.731713  0  0  -0.169753  0  3.988529  0  0  -0.174548  0  4.008114  0  0  -0.087752  -0.1665  0  3.975083  0
C  C84  1  0.77196075  0.85236013  0.89221289  1  0  -0.064227  0  3.772027  0  0  -0.088813  0  4.019891  0  0  -0.088278  0  4.041645  0  0  -0.090122  -0.088905  0  4.00503  0
C  C85  1  0.22804111  0.14764146  0.10778583  1  0  -0.064165  0  3.772052  0  0  -0.088705  0  4.019938  0  0  -0.08816  0  4.041682  0  0  -0.090097  -0.088799  0  4.005076  0
C  C86  1  0.94147806  0.87049558  0.90510925  1  0  -0.087641  0  3.764918  0  0  -0.063646  0  3.994354  0  0  -0.073687  0  4.018739  0  0  -0.022173  -0.057075  0  3.977863  0
C  C87  1  0.05852378  0.12950600  0.09488882  1  0  -0.087654  0  3.764872  0  0  -0.063805  0  3.994488  0  0  -0.073859  0  4.018876  0  0  -0.022171  -0.05723  0  3.977997  0
C  C88  1  0.98114762  0.00306297  0.89865061  1  0  -0.045268  0  3.729706  0  0  -0.065485  0  3.976189  0  0  -0.064122  0  3.996159  0  0  -0.073636  -0.066221  0  3.962494  0
C  C89  1  0.01885575  0.99693656  0.10134641  1  0  -0.045187  0  3.729465  0  0  -0.065323  0  3.975972  0  0  -0.063953  0  3.995942  0  0  -0.073562  -0.066059  0  3.96227  0
C  C90  1  0.85136996  0.11388450  0.88485523  1  0  -0.13794  0  3.68079  0  0  -0.161339  0  3.933699  0  0  -0.165927  0  3.952935  0  0  -0.08311  -0.158307  0  3.92083  0
C  C91  1  0.14863593  0.88611604  0.11514202  1  0  -0.137962  0  3.68084  0  0  -0.161387  0  3.933736  0  0  -0.165984  0  3.952967  0  0  -0.083153  -0.15834  0  3.920881  0
C  C92  1  0.07722690  0.75137365  0.92933170  1  0  0.658639  0  3.857712  0  0  0.607991  0  4.143773  0  0  0.643165  0  4.136235  0  0  0.216285  0.58396  0  4.148286  0
C  C93  1  0.92277541  0.24862488  0.07066955  1  0  0.658628  0  3.857673  0  0  0.608046  0  4.143728  0  0  0.643228  0  4.136181  0  0  0.216278  0.584012  0  4.148243  0
N  N94  1  0.13003358  0.70453375  0.43271369  1  0  -0.388732  0  2.976393  0  0  -0.358221  0  3.246838  0  0  -0.371064  0  3.258607  0  0  -0.335039  -0.349289  0  3.238554  0
N  N95  1  0.86997103  0.29546680  0.56728499  1  0  -0.388715  0  2.976449  0  0  -0.358163  0  3.246916  0  0  -0.371004  0  3.258691  0  0  -0.335091  -0.349233  0  3.238631  0
N  N96  1  0.27946235  0.72653610  0.54301919  1  0  -0.166372  0  3.538116  0  0  -0.083292  0  3.755101  0  0  -0.100685  0  3.778042  0  0  -0.231575  -0.071581  0  3.739279  0
N  N97  1  0.72054533  0.27346033  0.45697739  1  0  -0.166376  0  3.538425  0  0  -0.083257  0  3.755319  0  0  -0.100657  0  3.778279  0  0  -0.231494  -0.071546  0  3.739495  0
N  N98  1  0.34596171  0.36576197  0.90251827  1  0  -0.461223  0  3.240465  0  0  -0.382817  0  3.539935  0  0  -0.408137  0  3.552086  0  0  -0.35368  -0.365348  0  3.531172  0
N  N99  1  0.65403414  0.63423554  0.09748309  1  0  -0.461208  0  3.24046  0  0  -0.382788  0  3.539908  0  0  -0.408112  0  3.552069  0  0  -0.3537  -0.365317  0  3.531144  0
N  N100  1  0.54116419  0.19932063  0.86833967  1  0  -0.141563  0  3.526276  0  0  -0.058141  0  3.742363  0  0  -0.075014  0  3.76434  0  0  -0.217786  -0.046996  0  3.727393  0
N  N101  1  0.45883159  0.80067687  0.13165908  1  0  -0.141625  0  3.52618  0  0  -0.058224  0  3.742276  0  0  -0.075102  0  3.764242  0  0  -0.217777  -0.04708  0  3.727311  0
O  O102  1  0.62844760  0.57817993  0.91756418  1  0  -0.668272  0  2.104364  0  0  -0.584671  0  2.380784  0  0  -0.615848  0  2.365874  0  0  -0.329879  -0.562909  0  2.390284  0
O  O103  1  0.37154778  0.42182169  0.08243774  1  0  -0.668402  0  2.104627  0  0  -0.584701  0  2.380907  0  0  -0.615933  0  2.366041  0  0  -0.329872  -0.562935  0  2.390405  0
O  O104  1  0.80711781  0.43790543  0.84483436  1  0  -0.600417  0  1.995329  0  0  -0.55589  0  2.232452  0  0  -0.578283  0  2.224194  0  0  -0.306367  -0.540223  0  2.23748  0
O  O105  1  0.19288282  0.56209617  0.15516709  1  0  -0.600389  0  1.995466  0  0  -0.555897  0  2.232614  0  0  -0.578274  0  2.224319  0  0  -0.306359  -0.540234  0  2.237652  0
O  O106  1  0.23203971  0.76761966  0.93320438  1  0  -0.581157  0  1.967861  0  0  -0.536101  0  2.203672  0  0  -0.558514  0  2.192902  0  0  -0.292321  -0.52059  0  2.210799  0
O  O107  1  0.76795952  0.23238193  0.06679457  1  0  -0.581168  0  1.967807  0  0  -0.536117  0  2.203602  0  0  -0.558532  0  2.192825  0  0  -0.292321  -0.520605  0  2.21073  0
O  O108  1  0.02521945  0.62710135  0.94768552  1  0  -0.702532  0  2.109894  0  0  -0.603528  0  2.404205  0  0  -0.637085  0  2.382501  0  0  -0.327622  -0.579719  0  2.418342  0
O  O109  1  0.97477733  0.37289923  0.05231516  1  0  -0.702523  0  2.109889  0  0  -0.603543  0  2.404187  0  0  -0.63709  0  2.382456  0  0  -0.327637  -0.579735  0  2.41833  0
