# generated using pymatgen
data_AgH8C15N2O3F7
_symmetry_space_group_name_H-M   'P 1'
_cell_length_a   8.21700337
_cell_length_b   20.25771493
_cell_length_c   20.25543250
_cell_angle_alpha   118.19676684
_cell_angle_beta   97.78294952
_cell_angle_gamma   97.77068726
_symmetry_Int_Tables_number   1
_chemical_formula_structural   AgH8C15N2O3F7
_chemical_formula_sum   'Ag6 H48 C90 N12 O18 F42'
_cell_volume   2866.55574205
_cell_formula_units_Z   6
loop_
 _symmetry_equiv_pos_site_id
 _symmetry_equiv_pos_as_xyz
  1  'x, y, z'
loop_
 _atom_site_type_symbol
 _atom_site_label
 _atom_site_symmetry_multiplicity
 _atom_site_fract_x
 _atom_site_fract_y
 _atom_site_fract_z
 _atom_site_occupancy
 _atom_site_pbe_bader_charge
 _atom_site_pbe_bader_spin_density
 _atom_site_pbe_cm5_charge
 _atom_site_pbe_ddec_charge
 _atom_site_pbe_ddec_spin_density
 _atom_site_pbe_ddec_sum_bond_order
 _atom_site_pbe_magmom
Ag  Ag0  1  0.64232396  0.96056552  0.46253887  1  0.57904  0  0.461105  0.335946  0  1.925246  0
Ag  Ag1  1  0.18005985  0.53758560  0.49807099  1  0.575397  0  0.461217  0.336187  0  1.923083  0
Ag  Ag2  1  0.68183204  0.50195958  0.03939152  1  0.575298  0  0.460903  0.335903  0  1.923483  0
Ag  Ag3  1  0.35767857  0.03943473  0.53746101  1  0.578931  0  0.461116  0.335946  0  1.925252  0
Ag  Ag4  1  0.81994115  0.46241407  0.50192902  1  0.57515  0  0.461217  0.336192  0  1.923029  0
Ag  Ag5  1  0.31816774  0.49804009  0.96060892  1  0.574986  0  0.460893  0.335884  0  1.923502  0
H  H6  1  0.76490960  0.13098402  0.50631672  1  0.15676  0  0.11551  0.102008  0  1.028126  0
H  H7  1  0.25848299  0.49361299  0.62468001  1  0.169713  0  0.115555  0.101155  0  1.028563  0
H  H8  1  0.63418170  0.37527796  0.86889675  1  0.152933  0  0.115635  0.101511  0  1.028217  0
H  H9  1  0.23509255  0.86901796  0.49368494  1  0.15672  0  0.115545  0.102062  0  1.028132  0
H  H10  1  0.74151801  0.50638668  0.37532001  1  0.169705  0  0.115535  0.101142  0  1.028588  0
H  H11  1  0.36581807  0.62472171  0.13110468  1  0.152985  0  0.115651  0.101539  0  1.028228  0
H  H12  1  0.19745188  0.23344889  0.69803144  1  0.141664  0  0.110506  0.114695  0  1.00398  0
H  H13  1  0.49953604  0.30202595  0.53547814  1  0.128033  0  0.110594  0.114909  0  1.003409  0
H  H14  1  0.96452221  0.46452046  0.76656501  1  0.124734  0  0.110758  0.115179  0  1.003401  0
H  H15  1  0.80254941  0.76655135  0.30196936  1  0.141442  0  0.110525  0.114712  0  1.003936  0
H  H16  1  0.50046403  0.69797430  0.46452111  1  0.128028  0  0.110582  0.11488  0  1.003411  0
H  H17  1  0.03547699  0.53547806  0.23343585  1  0.124709  0  0.110728  0.115142  0  1.003375  0
H  H18  1  0.18069278  0.10148617  0.68392222  1  0.113994  0  0.104564  0.114471  0  1.014344  0
H  H19  1  0.49638566  0.31606111  0.41754225  1  0.118303  0  0.104438  0.114488  0  1.013737  0
H  H20  1  0.07920369  0.58245743  0.89850223  1  0.10497  0  0.104401  0.11465  0  1.01343  0
H  H21  1  0.81931069  0.89851350  0.31607744  1  0.113969  0  0.104564  0.114486  0  1.014331  0
H  H22  1  0.50361896  0.68394086  0.58245856  1  0.118317  0  0.104423  0.114447  0  1.013708  0
H  H23  1  0.92079551  0.41754109  0.10149714  1  0.104944  0  0.104389  0.114627  0  1.013434  0
H  H24  1  0.94393649  0.99278298  0.58359573  1  0.157642  0  0.117947  0.103461  0  1.007471  0
H  H25  1  0.36018467  0.41642356  0.40921593  1  0.141071  0  0.117952  0.104129  0  1.007596  0
H  H26  1  0.95095822  0.59086399  0.00714155  1  0.147083  0  0.11794  0.103363  0  1.007675  0
H  H27  1  0.05606944  0.00721669  0.41640209  1  0.157621  0  0.117935  0.103439  0  1.007489  0
H  H28  1  0.63981691  0.58357726  0.59078417  1  0.140863  0  0.117957  0.104144  0  1.00761  0
H  H29  1  0.04904307  0.40913625  0.99285925  1  0.147103  0  0.117952  0.103357  0  1.007662  0
H  H30  1  0.86671976  0.38223550  0.60168658  1  0.163265  0  0.122537  0.106075  0  1.006684  0
H  H31  1  0.26469124  0.39831305  0.78067871  1  0.15963  0  0.122303  0.105636  0  1.007178  0
H  H32  1  0.48421579  0.21930569  0.61762022  1  0.136482  0  0.122714  0.105884  0  1.006127  0
H  H33  1  0.13328153  0.61776474  0.39831373  1  0.163267  0  0.122528  0.106082  0  1.006712  0
H  H34  1  0.73530977  0.60168662  0.21932130  1  0.159491  0  0.122337  0.105701  0  1.007106  0
H  H35  1  0.51578247  0.78069341  0.38237986  1  0.136592  0  0.122705  0.105901  0  1.006103  0
H  H36  1  0.06330361  0.18284956  0.47101526  1  0.156764  0  0.110517  0.12575  0  1.030049  0
H  H37  1  0.59192292  0.52889140  0.71182113  1  0.169288  0  0.110297  0.125056  0  1.030873  0
H  H38  1  0.88032232  0.28815075  0.81710210  1  0.172904  0  0.110467  0.125041  0  1.031207  0
H  H39  1  0.93669768  0.81715068  0.52898553  1  0.156803  0  0.110529  0.125734  0  1.03003  0
H  H40  1  0.40807808  0.47110827  0.28817889  1  0.169306  0  0.110291  0.125055  0  1.030877  0
H  H41  1  0.11967746  0.71184892  0.18289736  1  0.172882  0  0.110476  0.125067  0  1.031169  0
H  H42  1  0.02544637  0.21097841  0.36293113  1  0.093319  0  0.1122  0.127278  0  0.980617  0
H  H43  1  0.66259470  0.63695923  0.84804190  1  0.102077  0  0.112224  0.127156  0  0.98131  0
H  H44  1  0.81450489  0.15198595  0.78902764  1  0.111726  0  0.112144  0.127265  0  0.980778  0
H  H45  1  0.97455189  0.78902068  0.63706945  1  0.093238  0  0.1122  0.127269  0  0.98063  0
H  H46  1  0.33740630  0.36304044  0.15195811  1  0.102077  0  0.11223  0.127166  0  0.98128  0
H  H47  1  0.18549612  0.84801372  0.21097238  1  0.111741  0  0.112144  0.127274  0  0.980798  0
H  H48  1  0.91504442  0.32647601  0.38134599  1  0.118386  0  0.10818  0.084821  0  1.045292  0
H  H49  1  0.53374579  0.61860284  0.94515753  1  0.118949  0  0.108169  0.084561  0  1.045504  0
H  H50  1  0.58857410  0.05485900  0.67351156  1  0.152683  0  0.108034  0.085042  0  1.045506  0
H  H51  1  0.08495507  0.67352309  0.61865367  1  0.118347  0  0.108188  0.084814  0  1.04525  0
H  H52  1  0.46625492  0.38139626  0.05484220  1  0.118942  0  0.108145  0.084533  0  1.045527  0
H  H53  1  0.41142539  0.94514009  0.32648810  1  0.152713  0  0.107992  0.08497  0  1.045535  0
C  C54  1  0.86071463  0.12777021  0.54696022  1  0.453138  0  0.051867  0.059099  0  3.869642  0
C  C55  1  0.31368117  0.45301252  0.58083975  1  0.443496  0  0.052622  0.061471  0  3.870819  0
C  C56  1  0.73319956  0.41913944  0.87215295  1  0.499199  0  0.051971  0.059453  0  3.871345  0
C  C57  1  0.13928724  0.87223119  0.45304066  1  0.453156  0  0.051849  0.059027  0  3.869777  0
C  C58  1  0.68631709  0.54698657  0.41915984  1  0.443504  0  0.05259  0.06139  0  3.870895  0
C  C59  1  0.26679992  0.58085966  0.12784769  1  0.499219  0  0.05194  0.059411  0  3.871399  0
C  C60  1  0.98476050  0.19207089  0.60294192  1  -0.003739  0  -0.00735  -0.042737  0  3.94824  0
C  C61  1  0.38179450  0.39705569  0.58917945  1  -0.021874  0  -0.007296  -0.043923  0  3.949452  0
C  C62  1  0.79306311  0.41078704  0.80786969  1  -0.053308  0  -0.007381  -0.041808  0  3.948021  0
C  C63  1  0.01524165  0.80793108  0.39706023  1  -0.003633  0  -0.00741  -0.042788  0  3.94822  0
C  C64  1  0.61820556  0.60294456  0.41082128  1  -0.021867  0  -0.007267  -0.043881  0  3.949482  0
C  C65  1  0.20693637  0.58921205  0.19213145  1  -0.053473  0  -0.007403  -0.041851  0  3.94805  0
C  C66  1  0.10078896  0.18355197  0.65415828  1  0.006951  0  -0.052762  -0.026991  0  3.890264  0
C  C67  1  0.44668063  0.34587910  0.52946254  1  0.027988  0  -0.052871  -0.026325  0  3.890176  0
C  C68  1  0.91762916  0.47052542  0.81641638  1  0.006739  0  -0.052251  -0.02647  0  3.888969  0
C  C69  1  0.89921536  0.81644942  0.34584323  1  0.007123  0  -0.052723  -0.026958  0  3.890288  0
C  C70  1  0.55331943  0.65412115  0.47053770  1  0.027959  0  -0.052835  -0.02628  0  3.890329  0
C  C71  1  0.08237250  0.52947310  0.18358363  1  0.006736  0  -0.052187  -0.026348  0  3.888931  0
C  C72  1  0.09125340  0.11107239  0.64637105  1  -0.039481  0  -0.087475  -0.140103  0  4.022653  0
C  C73  1  0.44468165  0.35362260  0.46473228  1  -0.046358  0  -0.087199  -0.140841  0  4.02209  0
C  C74  1  0.98032085  0.53526868  0.88888924  1  -0.013378  0  -0.087823  -0.141331  0  4.021857  0
C  C75  1  0.90874941  0.88892843  0.35362961  1  -0.039391  0  -0.087469  -0.14009  0  4.022695  0
C  C76  1  0.55532087  0.64637765  0.53526711  1  -0.046345  0  -0.08719  -0.140734  0  4.022154  0
C  C77  1  0.01967863  0.46473042  0.11111092  1  -0.013377  0  -0.087814  -0.141344  0  4.021895  0
C  C78  1  0.96129214  0.05023360  0.59059800  1  0.421429  0  0.046811  0.084269  0  3.921658  0
C  C79  1  0.37051869  0.40940499  0.45966558  1  0.452148  0  0.046811  0.083933  0  3.920882  0
C  C80  1  0.91104560  0.54036536  0.94970379  1  0.428474  0  0.046879  0.084414  0  3.923228  0
C  C81  1  0.03871407  0.94976665  0.40940159  1  0.421441  0  0.046841  0.084292  0  3.921714  0
C  C82  1  0.62948108  0.59059468  0.54033387  1  0.452356  0  0.046784  0.083832  0  3.92092  0
C  C83  1  0.08895606  0.45963316  0.05029621  1  0.428425  0  0.046884  0.084481  0  3.923109  0
C  C84  1  0.99032841  0.27032546  0.61310519  1  0.980044  0  0.171078  0.371669  0  3.977092  0
C  C85  1  0.37698775  0.38688327  0.65726734  1  0.95841  0  0.171172  0.371877  0  3.977228  0
C  C86  1  0.72006943  0.34271784  0.72960069  1  0.94587  0  0.170737  0.370192  0  3.978433  0
C  C87  1  0.00967345  0.72967593  0.38689569  1  0.979935  0  0.171179  0.371866  0  3.976893  0
C  C88  1  0.62301203  0.61311640  0.34273261  1  0.958507  0  0.171192  0.371919  0  3.977152  0
C  C89  1  0.27992940  0.65728240  0.27039997  1  0.946009  0  0.170691  0.370083  0  3.978635  0
C  C90  1  0.90322489  0.34334469  0.54959893  1  0.46915  0  0.058668  0.075962  0  3.867224  0
C  C91  1  0.35325201  0.45038854  0.79382749  1  0.492731  0  0.058213  0.075386  0  3.86844  0
C  C92  1  0.55969540  0.20617432  0.65656041  1  0.500205  0  0.058494  0.076838  0  3.86579  0
C  C93  1  0.09677641  0.65665555  0.45040187  1  0.46917  0  0.058655  0.075891  0  3.86731  0
C  C94  1  0.64674900  0.54961114  0.20617203  1  0.492889  0  0.058226  0.0754  0  3.868434  0
C  C95  1  0.44030409  0.79382477  0.34343974  1  0.500199  0  0.058502  0.076826  0  3.865843  0
C  C96  1  0.96312664  0.27978308  0.54426223  1  -0.021206  0  -0.013055  -0.059919  0  3.970668  0
C  C97  1  0.41847096  0.45570807  0.73557639  1  -0.022094  0  -0.01251  -0.058665  0  3.969992  0
C  C98  1  0.68313419  0.26441984  0.72013940  1  -0.029052  0  -0.012666  -0.059423  0  3.970652  0
C  C99  1  0.03687494  0.72021774  0.45573886  1  -0.021089  0  -0.013024  -0.05991  0  3.970614  0
C  C100  1  0.58152882  0.54429160  0.26442306  1  -0.022079  0  -0.012529  -0.058691  0  3.970042  0
C  C101  1  0.31686341  0.73558041  0.27986119  1  -0.02908  0  -0.012699  -0.059438  0  3.970662  0
C  C102  1  0.00778024  0.23064389  0.47623262  1  -0.057637  0  -0.052937  -0.042351  0  3.886884  0
C  C103  1  0.53123596  0.52370529  0.75442626  1  -0.048997  0  -0.05327  -0.043205  0  3.888921  0
C  C104  1  0.77696777  0.24557499  0.76932150  1  -0.0233  0  -0.053092  -0.042269  0  3.889069  0
C  C105  1  0.99222257  0.76935693  0.52376853  1  -0.057689  0  -0.052997  -0.042378  0  3.886855  0
C  C106  1  0.46876382  0.47629438  0.24557320  1  -0.049034  0  -0.053281  -0.043236  0  3.889005  0
C  C107  1  0.22303049  0.75442411  0.23067809  1  -0.023314  0  -0.05307  -0.042183  0  3.888965  0
C  C108  1  0.98991623  0.24686995  0.41636820  1  0.047344  0  -0.079818  -0.11399  0  3.95208  0
C  C109  1  0.57348719  0.58356633  0.83050877  1  0.034856  0  -0.078869  -0.111654  0  3.952919  0
C  C110  1  0.74298501  0.16950615  0.75312939  1  0.014047  0  -0.079516  -0.112989  0  3.953367  0
C  C111  1  0.01008325  0.75312914  0.58363196  1  0.047436  0  -0.079748  -0.113894  0  3.952087  0
C  C112  1  0.42651165  0.41643392  0.16949090  1  0.034883  0  -0.078839  -0.11161  0  3.952937  0
C  C113  1  0.25701420  0.83049237  0.24686998  1  0.014053  0  -0.079543  -0.113086  0  3.953408  0
C  C114  1  0.92915745  0.31082392  0.42596840  1  0.44674  0  0.046279  0.092531  0  3.911176  0
C  C115  1  0.50312946  0.57399196  0.88488088  1  0.430326  0  0.04572  0.091659  0  3.911488  0
C  C116  1  0.61830738  0.11512867  0.68916958  1  0.414478  0  0.045816  0.091479  0  3.913092  0
C  C117  1  0.07084204  0.68917518  0.57403126  1  0.446752  0  0.046261  0.0925  0  3.911121  0
C  C118  1  0.49687184  0.42600829  0.11511893  1  0.430327  0  0.045736  0.09167  0  3.91144  0
C  C119  1  0.38169334  0.88487043  0.31083014  1  0.414507  0  0.045872  0.091557  0  3.913069  0
C  C120  1  0.61330528  0.89522501  0.56959268  1  1.696148  0  0.176536  0.473511  0  4.335024  0
C  C121  1  0.04430303  0.43053267  0.32568965  1  1.695265  0  0.176696  0.473815  0  4.333486  0
C  C122  1  0.71826586  0.67432358  0.10486740  1  1.682811  0  0.176724  0.473078  0  4.332807  0
C  C123  1  0.38669478  0.10477524  0.43040756  1  1.696216  0  0.176538  0.473518  0  4.334915  0
C  C124  1  0.95569855  0.56946815  0.67431094  1  1.695702  0  0.176713  0.473853  0  4.333546  0
C  C125  1  0.28173543  0.32567666  0.89513340  1  1.682737  0  0.176651  0.47293  0  4.333049  0
C  C126  1  0.56960568  0.85866512  0.61998496  1  1.082125  0  0.186455  0.266781  0  3.926652  0
C  C127  1  0.95001494  0.38010108  0.23876443  1  1.063831  0  0.18715  0.267935  0  3.923328  0
C  C128  1  0.71101685  0.76124499  0.14139326  1  1.093601  0  0.186408  0.266836  0  3.92565  0
C  C129  1  0.43039373  0.14133627  0.38001479  1  1.082031  0  0.186404  0.266758  0  3.926507  0
C  C130  1  0.04998541  0.61989974  0.76123659  1  1.063851  0  0.187164  0.268037  0  3.92325  0
C  C131  1  0.28897953  0.23875526  0.85860677  1  1.093514  0  0.186412  0.266875  0  3.925666  0
C  C132  1  0.54166487  0.91631063  0.69987324  1  1.169977  0  0.188168  0.214212  0  4.014737  0
C  C133  1  0.84210136  0.30022591  0.21653810  1  1.166424  0  0.188567  0.214529  0  4.013798  0
C  C134  1  0.62540440  0.78343514  0.08368197  1  1.170503  0  0.188608  0.214075  0  4.013973  0
C  C135  1  0.45833245  0.08368904  0.30012608  1  1.169891  0  0.188128  0.214221  0  4.014629  0
C  C136  1  0.15790145  0.69977492  0.78346157  1  1.166455  0  0.188548  0.214422  0  4.013867  0
C  C137  1  0.37459292  0.21656453  0.91631686  1  1.17051  0  0.188626  0.214017  0  4.014032  0
C  C138  1  0.53691191  0.88678049  0.75859292  1  1.789527  0  0.29155  0.586725  0  4.084114  0
C  C139  1  0.77858084  0.24154863  0.12826907  1  1.796322  0  0.291314  0.588253  0  4.08087  0
C  C140  1  0.64995828  0.87165861  0.11314356  1  1.778921  0  0.290511  0.587471  0  4.083925  0
C  C141  1  0.46308419  0.11321918  0.24140632  1  1.789446  0  0.291553  0.586519  0  4.084478  0
C  C142  1  0.22142104  0.75845277  0.87172984  1  1.796211  0  0.291351  0.588264  0  4.080933  0
C  C143  1  0.35003783  0.12834106  0.88685322  1  1.778577  0  0.290557  0.5875  0  4.083947  0
N  N144  1  0.84713490  0.05851950  0.54218782  1  -1.21058  0  -0.343967  -0.183902  0  3.604863  0
N  N145  1  0.30486764  0.45781911  0.51636626  1  -1.217059  0  -0.344711  -0.18493  0  3.605753  0
N  N146  1  0.78870157  0.48365293  0.94140961  1  -1.207784  0  -0.34399  -0.184116  0  3.606981  0
N  N147  1  0.15286791  0.94148132  0.45781235  1  -1.210665  0  -0.344043  -0.183971  0  3.605011  0
N  N148  1  0.69513243  0.54218114  0.48363348  1  -1.217082  0  -0.344691  -0.184868  0  3.605742  0
N  N149  1  0.21129972  0.51634731  0.05859119  1  -1.207596  0  -0.344  -0.184148  0  3.60689  0
N  N150  1  0.88640622  0.35853982  0.49161591  1  -1.203204  0  -0.344984  -0.191447  0  3.609301  0
N  N151  1  0.39463001  0.50838566  0.86699515  1  -1.21672  0  -0.344863  -0.19134  0  3.60942  0
N  N152  1  0.52777569  0.13301639  0.64140631  1  -1.203863  0  -0.344764  -0.191937  0  3.610869  0
N  N153  1  0.11359355  0.64145985  0.50838454  1  -1.203236  0  -0.345002  -0.191425  0  3.609339  0
N  N154  1  0.60537099  0.49161401  0.13300536  1  -1.216777  0  -0.344889  -0.191383  0  3.609456  0
N  N155  1  0.47222257  0.86698271  0.35859378  1  -1.20396  0  -0.34475  -0.191924  0  3.610982  0
O  O156  1  0.01928902  0.32642253  0.67859295  1  -1.088765  0  -0.241652  -0.397615  0  2.205395  0
O  O157  1  0.34043364  0.32139584  0.64786326  1  -1.075357  0  -0.24213  -0.397844  0  2.20501  0
O  O158  1  0.69278079  0.35212381  0.67351275  1  -1.082719  0  -0.241801  -0.3972  0  2.205352  0
O  O159  1  0.98071408  0.67357887  0.32140800  1  -1.088715  0  -0.241703  -0.397722  0  2.205343  0
O  O160  1  0.65956737  0.67860383  0.35213675  1  -1.075416  0  -0.242158  -0.3979  0  2.204926  0
O  O161  1  0.30721869  0.64787528  0.32648741  1  -1.082761  0  -0.241751  -0.397138  0  2.205504  0
O  O162  1  0.50378088  0.92940347  0.55876347  1  -1.164674  0  -0.334582  -0.555748  0  2.322503  0
O  O163  1  0.94560747  0.44149561  0.37071358  1  -1.168563  0  -0.334523  -0.5557  0  2.321859  0
O  O164  1  0.57457271  0.62928816  0.07068240  1  -1.166624  0  -0.33425  -0.555015  0  2.320966  0
O  O165  1  0.49621890  0.07059620  0.44123500  1  -1.164669  0  -0.334538  -0.555677  0  2.322425  0
O  O166  1  0.05439288  0.55850521  0.62928694  1  -1.168572  0  -0.334539  -0.555727  0  2.321831  0
O  O167  1  0.42542764  0.37071266  0.92931812  1  -1.166644  0  -0.334229  -0.554947  0  2.321104  0
O  O168  1  0.74445762  0.88512043  0.54481409  1  -1.164236  0  -0.320356  -0.516512  0  2.198587  0
O  O169  1  0.20026186  0.45521481  0.34032420  1  -1.159844  0  -0.320477  -0.516762  0  2.198116  0
O  O170  1  0.85959630  0.65970669  0.11500130  1  -1.163691  0  -0.320658  -0.516292  0  2.197349  0
O  O171  1  0.25554424  0.11488097  0.45518778  1  -1.164287  0  -0.320354  -0.516525  0  2.198558  0
O  O172  1  0.79973973  0.54478601  0.65967639  1  -1.160275  0  -0.320481  -0.516787  0  2.198181  0
O  O173  1  0.14040224  0.34029298  0.88499907  1  -1.163542  0  -0.320622  -0.516231  0  2.197388  0
F  F174  1  0.42255615  0.80164738  0.57985128  1  -0.620918  0  -0.104325  -0.164542  0  1.374061  0
F  F175  1  0.84295891  0.42017716  0.22185737  1  -0.620758  0  -0.104734  -0.165191  0  1.372412  0
F  F176  1  0.62087983  0.77814202  0.19835694  1  -0.618433  0  -0.104231  -0.164114  0  1.374209  0
F  F177  1  0.57744580  0.19835172  0.42014753  1  -0.620868  0  -0.10431  -0.164532  0  1.373998  0
F  F178  1  0.15704513  0.57982366  0.77814287  1  -0.620765  0  -0.104751  -0.165236  0  1.372372  0
F  F179  1  0.37911778  0.22185823  0.80164316  1  -0.618412  0  -0.104248  -0.164137  0  1.374175  0
F  F180  1  0.69340765  0.82390146  0.63295055  1  -0.623033  0  -0.10289  -0.165095  0  1.401853  0
F  F181  1  0.06071774  0.36712674  0.19099392  1  -0.618305  0  -0.103287  -0.165832  0  1.401474  0
F  F182  1  0.86955776  0.80900528  0.17618586  1  -0.625692  0  -0.102873  -0.165373  0  1.40098  0
F  F183  1  0.30658874  0.17609879  0.36704849  1  -0.623037  0  -0.102886  -0.16511  0  1.401796  0
F  F184  1  0.93928326  0.63287293  0.80900708  1  -0.61832  0  -0.103282  -0.165838  0  1.401484  0
F  F185  1  0.13043862  0.19099497  0.82381269  1  -0.625693  0  -0.102837  -0.165344  0  1.400964  0
F  F186  1  0.67189957  0.98073955  0.73335619  1  -0.613593  0  -0.096547  -0.140849  0  1.333612  0
F  F187  1  0.93877277  0.26669101  0.24746602  1  -0.608345  0  -0.096893  -0.141326  0  1.333184  0
F  F188  1  0.69131980  0.75251703  0.01928389  1  -0.608964  0  -0.096859  -0.141042  0  1.332394  0
F  F189  1  0.32809839  0.01925897  0.26664411  1  -0.613541  0  -0.096541  -0.14085  0  1.333525  0
F  F190  1  0.06122636  0.73330981  0.75253395  1  -0.608368  0  -0.096861  -0.14129  0  1.333181  0
F  F191  1  0.30867846  0.24748206  0.98071520  1  -0.608948  0  -0.096862  -0.141006  0  1.332403  0
F  F192  1  0.39319521  0.93748132  0.69071338  1  -0.604753  0  -0.09756  -0.134599  0  1.37749  0
F  F193  1  0.70280868  0.30936329  0.24685057  1  -0.602783  0  -0.097399  -0.134334  0  1.376627  0
F  F194  1  0.45578948  0.75304420  0.06242451  1  -0.604173  0  -0.097582  -0.134528  0  1.377835  0
F  F195  1  0.60680060  0.06251778  0.30928559  1  -0.604696  0  -0.097539  -0.134571  0  1.377453  0
F  F196  1  0.29719262  0.69063695  0.75314874  1  -0.602819  0  -0.097403  -0.134305  0  1.376612  0
F  F197  1  0.54420756  0.24695489  0.93757452  1  -0.604179  0  -0.097585  -0.134517  0  1.377768  0
F  F198  1  0.69005500  0.87868470  0.78341259  1  -0.604707  0  -0.100395  -0.186786  0  1.310025  0
F  F199  1  0.90689259  0.21682125  0.09531634  1  -0.602382  0  -0.100444  -0.187222  0  1.30928  0
F  F200  1  0.81115963  0.90469827  0.12138533  1  -0.602281  0  -0.100077  -0.186799  0  1.310494  0
F  F201  1  0.30994015  0.12131555  0.21658688  1  -0.604687  0  -0.10038  -0.186737  0  1.310098  0
F  F202  1  0.09310834  0.78318072  0.90468377  1  -0.602398  0  -0.100451  -0.187219  0  1.309217  0
F  F203  1  0.18883495  0.09530082  0.87861208  1  -0.60234  0  -0.100115  -0.186842  0  1.310467  0
F  F204  1  0.42508105  0.81793061  0.72561373  1  -0.615838  0  -0.099646  -0.19198  0  1.351591  0
F  F205  1  0.69957196  0.27452999  0.09243994  1  -0.615425  0  -0.099443  -0.192508  0  1.350536  0
F  F206  1  0.60668715  0.90749820  0.18193451  1  -0.608208  0  -0.09961  -0.192491  0  1.350662  0
F  F207  1  0.57491504  0.18206906  0.27438650  1  -0.615829  0  -0.099632  -0.191922  0  1.351692  0
F  F208  1  0.30043295  0.72547256  0.90755967  1  -0.615362  0  -0.099498  -0.192563  0  1.350594  0
F  F209  1  0.39330468  0.09250032  0.81806396  1  -0.607942  0  -0.099574  -0.192462  0  1.350795  0
F  F210  1  0.48711415  0.93773374  0.82040887  1  -0.603268  0  -0.100092  -0.184047  0  1.313408  0
F  F211  1  0.66707229  0.17966428  0.11735369  1  -0.601205  0  -0.100208  -0.184698  0  1.312108  0
F  F212  1  0.54921838  0.88242424  0.06208339  1  -0.603884  0  -0.099699  -0.184382  0  1.313779  0
F  F213  1  0.51288223  0.06226650  0.17959066  1  -0.603221  0  -0.100127  -0.183994  0  1.313517  0
F  F214  1  0.33292561  0.82033655  0.88264521  1  -0.60112  0  -0.100185  -0.184648  0  1.312167  0
F  F215  1  0.45077505  0.11757255  0.93791287  1  -0.603755  0  -0.099773  -0.184407  0  1.313645  0
