# generated using pymatgen
data_EuH36C36N7O16
_symmetry_space_group_name_H-M   'P 1'
_cell_length_a   10.11851569
_cell_length_b   12.11961407
_cell_length_c   19.14978548
_cell_angle_alpha   82.69951435
_cell_angle_beta   79.81856039
_cell_angle_gamma   67.03215424
_symmetry_Int_Tables_number   1
_chemical_formula_structural   EuH36C36N7O16
_chemical_formula_sum   'Eu2 H72 C72 N14 O32'
_cell_volume   2123.78916684
_cell_formula_units_Z   2
loop_
 _symmetry_equiv_pos_site_id
 _symmetry_equiv_pos_as_xyz
  1  'x, y, z'
loop_
 _atom_site_type_symbol
 _atom_site_label
 _atom_site_symmetry_multiplicity
 _atom_site_fract_x
 _atom_site_fract_y
 _atom_site_fract_z
 _atom_site_occupancy
 _atom_site_pbe_bader_charge
 _atom_site_pbe_bader_spin_density
 _atom_site_pbe_cm5_charge
 _atom_site_pbe_ddec_charge
 _atom_site_pbe_ddec_spin_density
 _atom_site_pbe_ddec_sum_bond_order
 _atom_site_pbe_magmom
Eu  Eu0  1  0.67275100  0.70838219  0.28366352  1  2.174904  0  1.519781  1.983999  0  2.267933  0
Eu  Eu1  1  0.32724911  0.29161590  0.71633672  1  2.174927  0  1.519772  1.984056  0  2.267777  0
H  H2  1  0.26578933  0.94559015  0.11450318  1  0.505375  0  0.313446  0.26242  0  1.021551  0
H  H3  1  0.73421151  0.05440619  0.88549975  1  0.505291  0  0.313424  0.262304  0  1.021627  0
H  H4  1  0.89340266  0.31778432  0.44792157  1  0.522494  0  0.316219  0.268287  0  1.012996  0
H  H5  1  0.10659788  0.68221733  0.55207729  1  0.522476  0  0.31622  0.2683  0  1.012982  0
H  H6  1  0.47070363  0.60456135  0.24433031  1  0.636696  0  0.278725  0.341521  0  1.025062  0
H  H7  1  0.52929839  0.39543490  0.75566731  1  0.636719  0  0.27874  0.341519  0  1.025058  0
H  H8  1  0.58180556  0.49699962  0.29100749  1  0.630795  0  0.277903  0.336752  0  1.034044  0
H  H9  1  0.41819623  0.50299932  0.70899045  1  0.630831  0  0.277879  0.33669  0  1.034106  0
H  H10  1  0.97933357  0.28496173  0.20688212  1  0.106283  0  0.103207  0.116471  0  1.050356  0
H  H11  1  0.02066699  0.71503544  0.79311711  1  0.106315  0  0.103265  0.116553  0  1.050328  0
H  H12  1  0.08417273  0.35559714  0.28926897  1  0.105921  0  0.099885  0.096751  0  1.02677  0
H  H13  1  0.91582317  0.64440365  0.71073089  1  0.10594  0  0.099878  0.09674  0  1.026766  0
H  H14  1  0.32396957  0.22583329  0.32783363  1  0.057469  0  0.093569  0.092447  0  1.042626  0
H  H15  1  0.67602690  0.77416840  0.67216715  1  0.057366  0  0.093556  0.092406  0  1.042657  0
H  H16  1  0.45299385  0.02005742  0.28406848  1  0.095742  0  0.108703  0.10542  0  1.033981  0
H  H17  1  0.54700299  0.97994340  0.71593338  1  0.095716  0  0.108696  0.105381  0  1.033992  0
H  H18  1  0.99656119  0.22527740  0.09719889  1  0.11261  0  0.112921  0.093306  0  0.977135  0
H  H19  1  0.00343914  0.77472247  0.90280066  1  0.112636  0  0.11292  0.093287  0  0.977103  0
H  H20  1  0.88175905  0.15798834  0.15298064  1  0.071315  0  0.105976  0.080047  0  0.990634  0
H  H21  1  0.11824468  0.84201063  0.84701922  1  0.071331  0  0.105963  0.08  0  0.990615  0
H  H22  1  0.79633178  0.03753602  0.09926825  1  0.078314  0  0.105642  0.11857  0  1.038914  0
H  H23  1  0.20366595  0.96246744  0.90073071  1  0.078299  0  0.105656  0.118571  0  1.038937  0
H  H24  1  0.39278466  0.97413660  0.94734749  1  0.0396  0  0.092309  0.085023  0  1.001566  0
H  H25  1  0.60721405  0.02586687  0.05265191  1  0.039513  0  0.092282  0.084995  0  1.001531  0
H  H26  1  0.39584834  0.11401042  0.96670404  1  0.063237  0  0.104384  0.109338  0  1.003162  0
H  H27  1  0.60415035  0.88599306  0.03329588  1  0.063133  0  0.10439  0.10936  0  1.003146  0
H  H28  1  0.29510779  0.11095582  0.89927298  1  0.098171  0  0.103519  0.121444  0  1.018408  0
H  H29  1  0.70489339  0.88904672  0.10072471  1  0.098188  0  0.103514  0.121391  0  1.01849  0
H  H30  1  0.52754099  0.71841446  0.12608203  1  0.126891  0  0.123269  0.113943  0  1.019685  0
H  H31  1  0.47246172  0.28158453  0.87391844  1  0.126961  0  0.123268  0.113925  0  1.019645  0
H  H32  1  0.43922612  0.77763069  0.04941279  1  0.086631  0  0.112789  0.091583  0  0.965936  0
H  H33  1  0.56077437  0.22237100  0.95058764  1  0.086614  0  0.112816  0.091603  0  0.965914  0
H  H34  1  0.19695476  0.76651537  0.04458885  1  0.081027  0  0.10006  0.105561  0  1.032584  0
H  H35  1  0.80305019  0.23348091  0.95541112  1  0.080993  0  0.100062  0.105534  0  1.032523  0
H  H36  1  0.04716685  0.64086009  0.08383331  1  0.090565  0  0.113932  0.115171  0  0.972657  0
H  H37  1  0.95283729  0.35913798  0.91616658  1  0.090514  0  0.113936  0.11519  0  0.972708  0
H  H38  1  0.10118277  0.49821157  0.19231459  1  0.115669  0  0.107515  0.111081  0  1.037492  0
H  H39  1  0.89881793  0.50178742  0.80768605  1  0.11558  0  0.107499  0.111042  0  1.03755  0
H  H40  1  0.29673746  0.49223331  0.25770696  1  0.089515  0  0.11194  0.079112  0  1.006922  0
H  H41  1  0.70326569  0.50776477  0.74229250  1  0.089537  0  0.11195  0.079118  0  1.006956  0
H  H42  1  0.33431204  0.26559499  0.46854266  1  0.083262  0  0.107255  0.120626  0  1.036248  0
H  H43  1  0.66568730  0.73440488  0.53145646  1  0.083269  0  0.107259  0.120609  0  1.036265  0
H  H44  1  0.40265380  0.44130881  0.43416088  1  0.063462  0  0.101134  0.092091  0  1.03522  0
H  H45  1  0.59734488  0.55869019  0.56583993  1  0.063452  0  0.10113  0.09207  0  1.035258  0
H  H46  1  0.22898735  0.63222668  0.38541825  1  0.066034  0  0.104609  0.111659  0  1.020442  0
H  H47  1  0.77101393  0.36777322  0.61458278  1  0.066036  0  0.104622  0.111662  0  1.020442  0
H  H48  1  0.98240340  0.64630964  0.37205291  1  0.143187  0  0.113959  0.120859  0  1.023556  0
H  H49  1  0.01759608  0.35369205  0.62794761  1  0.143187  0  0.113954  0.120871  0  1.023529  0
H  H50  1  0.19613590  0.16092009  0.53829193  1  0.127238  0  0.11121  0.090424  0  1.002949  0
H  H51  1  0.80386103  0.83908068  0.46170732  1  0.127254  0  0.111232  0.090451  0  1.002937  0
H  H52  1  0.27091730  0.11325871  0.44995579  1  0.081737  0  0.1067  0.083738  0  0.997367  0
H  H53  1  0.72908245  0.88674026  0.55004337  1  0.081731  0  0.10669  0.083698  0  0.997414  0
H  H54  1  0.18036044  0.99772808  0.39335959  1  0.08538  0  0.10465  0.12045  0  1.036647  0
H  H55  1  0.81963750  0.00227268  0.60663957  1  0.085402  0  0.104644  0.120432  0  1.03665  0
H  H56  1  0.75934366  0.17549217  0.65653017  1  0.043432  0  0.096813  0.10194  0  1.023016  0
H  H57  1  0.24065704  0.82450683  0.34347047  1  0.04341  0  0.09684  0.101992  0  1.023051  0
H  H58  1  0.87832025  0.20623076  0.70454826  1  0.088687  0  0.103826  0.116621  0  1.016002  0
H  H59  1  0.12168149  0.79376821  0.29545125  1  0.08868  0  0.103815  0.116615  0  1.01598  0
H  H60  1  0.90033273  0.05476001  0.69686958  1  0.062217  0  0.093052  0.096512  0  1.022247  0
H  H61  1  0.09966696  0.94523898  0.30313115  1  0.062227  0  0.093033  0.096489  0  1.022296  0
H  H62  1  0.60650843  0.49189699  0.41015390  1  0.132175  0  0.126913  0.109247  0  0.997419  0
H  H63  1  0.39349086  0.50810290  0.58984679  1  0.132182  0  0.126906  0.109233  0  0.997399  0
H  H64  1  0.63035809  0.37917096  0.48218917  1  0.077121  0  0.114724  0.099773  0  0.967339  0
H  H65  1  0.36964424  0.62082892  0.51781074  1  0.077113  0  0.114706  0.099744  0  0.967318  0
H  H66  1  0.60898494  0.31366519  0.21643317  1  0.081086  0  0.11476  0.079836  0  0.979991  0
H  H67  1  0.39101496  0.68633559  0.78356686  1  0.081082  0  0.114805  0.079941  0  0.980049  0
H  H68  1  0.66433523  0.09416137  0.25138850  1  0.124258  0  0.106146  0.112562  0  1.030752  0
H  H69  1  0.33566162  0.90583944  0.74861284  1  0.124247  0  0.106125  0.112523  0  1.03074  0
H  H70  1  0.72342263  0.01692147  0.37418420  1  0.138364  0  0.111554  0.117985  0  1.000158  0
H  H71  1  0.27656980  0.98308025  0.62581745  1  0.138323  0  0.111548  0.118013  0  1.000183  0
H  H72  1  0.72858146  0.15963044  0.45666393  1  0.120269  0  0.103707  0.112615  0  1.041564  0
H  H73  1  0.27141580  0.84036947  0.54333745  1  0.120276  0  0.103713  0.112611  0  1.041546  0
C  C74  1  0.37720477  0.91219830  0.19666821  1  1.402213  0  0.264089  0.543726  0  4.054766  0
C  C75  1  0.62279531  0.08779980  0.80333308  1  1.402475  0  0.26402  0.543673  0  4.054866  0
C  C76  1  0.29176653  0.03568857  0.22022623  1  -0.004323  0  -0.02704  -0.163402  0  3.978547  0
C  C77  1  0.70823473  0.96431134  0.77977533  1  -0.004421  0  -0.027034  -0.163425  0  3.97857  0
C  C78  1  0.15681786  0.11156847  0.19801862  1  0.424219  0  0.093899  0.243653  0  4.028237  0
C  C79  1  0.84318510  0.88843228  0.80198011  1  0.424379  0  0.093953  0.243719  0  4.028341  0
C  C80  1  0.08291052  0.22605150  0.22344567  1  -0.000935  0  -0.107368  -0.213839  0  3.981932  0
C  C81  1  0.91708944  0.77394925  0.77655279  1  -0.001154  0  -0.107461  -0.214049  0  3.982106  0
C  C82  1  0.14347811  0.26613174  0.27001123  1  -0.039388  0  -0.082734  -0.0293  0  3.988606  0
C  C83  1  0.85651981  0.73386904  0.72998846  1  -0.03935  0  -0.082687  -0.029198  0  3.988474  0
C  C84  1  0.27682785  0.19328493  0.29195619  1  -0.064467  0  -0.109582  -0.12462  0  4.037345  0
C  C85  1  0.72316902  0.80671587  0.70804463  1  -0.064368  0  -0.109586  -0.124617  0  4.037249  0
C  C86  1  0.34902924  0.07862985  0.26759329  1  -0.033242  0  -0.083198  -0.075431  0  3.98681  0
C  C87  1  0.65096863  0.92137096  0.73240796  1  -0.033139  0  -0.083211  -0.075379  0  3.986758  0
C  C88  1  0.98345754  0.14002049  0.11626983  1  0.36963  0  -0.054368  0.002819  0  3.861609  0
C  C89  1  0.01654402  0.85998116  0.88372842  1  0.369579  0  -0.054313  0.002971  0  3.861502  0
C  C90  1  0.10721838  0.04595095  0.00064232  1  0.432703  0  0.070725  0.180742  0  4.062285  0
C  C91  1  0.89277936  0.95405250  0.99935612  1  0.432881  0  0.070675  0.180624  0  4.062226  0
C  C92  1  0.98930215  0.06968020  0.05585715  1  0.062308  0  -0.026555  -0.007158  0  3.999038  0
C  C93  1  0.01070101  0.93032235  0.94414141  1  0.062353  0  -0.02659  -0.007251  0  3.999248  0
C  C94  1  0.88347008  0.02288347  0.05482340  1  -0.036983  0  -0.1086  -0.251255  0  4.023958  0
C  C95  1  0.11653168  0.97711997  0.94517469  1  -0.036896  0  -0.108618  -0.251271  0  4.024127  0
C  C96  1  0.32928731  0.07120198  0.95109625  1  0.37125  0  -0.140831  -0.169576  0  3.889306  0
C  C97  1  0.67071241  0.92880148  0.04890306  1  0.371384  0  -0.140801  -0.169488  0  3.889378  0
C  C98  1  0.42165123  0.76499954  0.10772011  1  0.28551  0  -0.047805  -0.084921  0  3.910671  0
C  C99  1  0.57835205  0.23500036  0.89228128  1  0.28551  0  -0.047829  -0.08489  0  3.910579  0
C  C100  1  0.32780435  0.69160241  0.12955861  1  0.504796  0  0.120199  0.22635  0  3.950357  0
C  C101  1  0.67219818  0.30839478  0.87044150  1  0.504749  0  0.120194  0.226207  0  3.95043  0
C  C102  1  0.21751628  0.70306059  0.09098186  1  -0.029248  0  -0.085532  -0.172987  0  3.949879  0
C  C103  1  0.78248590  0.29693746  0.90901664  1  -0.029294  0  -0.085494  -0.17283  0  3.949735  0
C  C104  1  0.13412634  0.63333196  0.11292489  1  -0.055749  0  -0.063396  -0.013722  0  3.948342  0
C  C105  1  0.86587740  0.36666702  0.88707496  1  -0.055623  0  -0.063487  -0.013915  0  3.948527  0
C  C106  1  0.16339178  0.55428627  0.17296227  1  0.000219  0  -0.081566  -0.12035  0  3.969905  0
C  C107  1  0.83661093  0.44571272  0.82703819  1  0.000249  0  -0.081505  -0.120199  0  3.969948  0
C  C108  1  0.27292857  0.55021138  0.20928999  1  0.469085  0  0.045879  0.090677  0  3.970132  0
C  C109  1  0.72707396  0.44978580  0.79071012  1  0.468996  0  0.045883  0.090634  0  3.970124  0
C  C110  1  0.86589615  0.48360102  0.40382490  1  1.409539  0  0.258292  0.531747  0  4.079415  0
C  C111  1  0.13410474  0.51639976  0.59617557  1  1.409596  0  0.258343  0.53174  0  4.079491  0
C  C112  1  0.01675534  0.46521779  0.41235745  1  -0.04238  0  -0.02527  -0.165955  0  3.959457  0
C  C113  1  0.98324358  0.53478299  0.58764215  1  -0.042398  0  -0.025286  -0.165923  0  3.959338  0
C  C114  1  0.11820762  0.35685684  0.44020515  1  0.460595  0  0.097325  0.249845  0  4.022097  0
C  C115  1  0.88179174  0.64314302  0.55979345  1  0.460444  0  0.097371  0.249965  0  4.021954  0
C  C116  1  0.25693093  0.34875142  0.44738918  1  -0.087868  0  -0.109534  -0.22042  0  3.98781  0
C  C117  1  0.74307143  0.65124844  0.55260968  1  -0.087694  0  -0.10956  -0.220471  0  3.987845  0
C  C118  1  0.29524205  0.44801582  0.42753761  1  -0.00526  0  -0.084934  -0.033961  0  4.013768  0
C  C119  1  0.70475925  0.55198407  0.57246290  1  -0.005255  0  -0.084907  -0.033879  0  4.013779  0
C  C120  1  0.19768598  0.55526403  0.40033909  1  0.037471  0  -0.104631  -0.125793  0  4.030189  0
C  C121  1  0.80231670  0.44473498  0.59966242  1  -0.026799  0  -0.10467  -0.125845  0  4.030208  0
C  C122  1  0.05992529  0.56308300  0.39297563  1  -0.062387  0  -0.075753  -0.060577  0  3.952352  0
C  C123  1  0.94007701  0.43691688  0.60702480  1  0.001888  0  -0.075743  -0.060612  0  3.952372  0
C  C124  1  0.17045995  0.14796211  0.48727350  1  0.331147  0  -0.056374  -0.000749  0  3.844907  0
C  C125  1  0.82953818  0.85203598  0.51272639  1  0.331217  0  -0.056329  -0.00065  0  3.844989  0
C  C126  1  0.98287517  0.07192670  0.55571768  1  0.475761  0  0.072607  0.184773  0  4.06467  0
C  C127  1  0.01712352  0.92807230  0.44428313  1  0.475814  0  0.072688  0.184903  0  4.064393  0
C  C128  1  0.08570553  0.06877638  0.49512535  1  0.020663  0  -0.027267  -0.007786  0  4.003211  0
C  C129  1  0.91429237  0.93122441  0.50487486  1  0.020554  0  -0.027277  -0.007863  0  4.003204  0
C  C130  1  0.10121805  0.99768842  0.43993104  1  -0.022472  0  -0.106871  -0.244916  0  4.002033  0
C  C131  1  0.89878083  0.00231237  0.56006961  1  -0.022477  0  -0.106881  -0.244878  0  4.002019  0
C  C132  1  0.87018586  0.14494002  0.66980787  1  0.380402  0  -0.149135  -0.186066  0  3.884581  0
C  C133  1  0.12981484  0.85505898  0.33019277  1  0.380604  0  -0.14919  -0.186165  0  3.884814  0
C  C134  1  0.67328340  0.40002860  0.42724209  1  0.277  0  -0.046008  -0.087645  0  3.912749  0
C  C135  1  0.32671710  0.59997308  0.57275782  1  0.276993  0  -0.04599  -0.087584  0  3.912628  0
C  C136  1  0.67178560  0.31054818  0.37912694  1  0.504624  0  0.118832  0.216066  0  3.960401  0
C  C137  1  0.32821472  0.68945171  0.62087313  1  0.504341  0  0.118852  0.216069  0  3.960407  0
C  C138  1  0.63717158  0.27513886  0.26911792  1  0.437337  0  0.043211  0.078567  0  3.996854  0
C  C139  1  0.36282911  0.72486013  0.73088272  1  0.437388  0  0.043152  0.078391  0  3.996945  0
C  C140  1  0.66783419  0.15382343  0.28845568  1  -0.068608  0  -0.085265  -0.133198  0  3.979494  0
C  C141  1  0.33216308  0.84617647  0.71154518  1  -0.068322  0  -0.0852  -0.133069  0  3.979403  0
C  C142  1  0.70201534  0.11072391  0.35675088  1  -0.022162  0  -0.06041  -0.000306  0  3.909887  0
C  C143  1  0.29798054  0.88927688  0.64324950  1  -0.022424  0  -0.060409  -0.000335  0  3.909905  0
C  C144  1  0.70484007  0.19013743  0.40262790  1  -0.05689  0  -0.082438  -0.165785  0  3.931076  0
C  C145  1  0.29515783  0.80986336  0.59737231  1  -0.056901  0  -0.082483  -0.165829  0  3.9311  0
N  N146  1  0.35354174  0.88373546  0.13568568  1  -1.23048  0  -0.410146  -0.335949  0  3.539076  0
N  N147  1  0.64646115  0.11626086  0.86431604  1  -1.230294  0  -0.410127  -0.335874  0  3.539028  0
N  N148  1  0.35358239  0.61718111  0.18836857  1  -1.235605  0  -0.302136  -0.273447  0  3.368113  0
N  N149  1  0.64642055  0.38281518  0.81163158  1  -1.23546  0  -0.302166  -0.273392  0  3.367956  0
N  N150  1  0.81939003  0.39407661  0.42697737  1  -1.247507  0  -0.408073  -0.325434  0  3.556406  0
N  N151  1  0.18061049  0.60592506  0.57302202  1  -1.247503  0  -0.408092  -0.325439  0  3.556351  0
N  N152  1  0.63860518  0.35201026  0.31333887  1  -1.218532  0  -0.302904  -0.267525  0  3.399296  0
N  N153  1  0.36139614  0.64798962  0.68666112  1  -1.218283  0  -0.302913  -0.267513  0  3.399303  0
N  N154  1  0.82926616  0.54712093  0.16892628  1  0.82789  0  0.081505  0.72341  0  4.42601  0
N  N155  1  0.17073226  0.45288527  0.83107553  1  0.827299  0  0.081391  0.723151  0  4.426034  0
N  N156  1  0.52687421  0.83995044  0.41168642  1  0.835468  0  0.081415  0.718249  0  4.430037  0
N  N157  1  0.47313130  0.16004486  0.58830889  1  0.835296  0  0.081568  0.71833  0  4.429115  0
N  N158  1  0.85618134  0.84703381  0.23038843  1  0.816378  0  0.084306  0.724845  0  4.407349  0
N  N159  1  0.14381673  0.15296430  0.76961303  1  0.816487  0  0.084267  0.724842  0  4.407737  0
O  O160  1  0.47140388  0.83845649  0.23244411  1  -1.204481  0  -0.394497  -0.615279  0  2.361979  0
O  O161  1  0.52859474  0.16154254  0.76755879  1  -1.20486  0  -0.39443  -0.615212  0  2.362064  0
O  O162  1  0.10377825  0.06486541  0.15358571  1  -1.075759  0  -0.169872  -0.201321  0  2.638631  0
O  O163  1  0.89622677  0.93513531  0.84641127  1  -1.075752  0  -0.169894  -0.201282  0  2.638652  0
O  O164  1  0.20804634  0.09267295  0.00622585  1  -1.081596  0  -0.193074  -0.166239  0  2.583277  0
O  O165  1  0.79194641  0.90733050  0.99377197  1  -1.081582  0  -0.193047  -0.166226  0  2.583275  0
O  O166  1  0.78372772  0.58192925  0.37686695  1  -1.205154  0  -0.400707  -0.638219  0  2.358925  0
O  O167  1  0.21627090  0.41807427  0.62313506  1  -1.205159  0  -0.400714  -0.638221  0  2.359017  0
O  O168  1  0.07485855  0.26292247  0.45834148  1  -1.081615  0  -0.170111  -0.209409  0  2.641393  0
O  O169  1  0.92514044  0.73707827  0.54165603  1  -1.08161  0  -0.170146  -0.209487  0  2.641451  0
O  O170  1  0.97181655  0.14469860  0.60716594  1  -1.08483  0  -0.189405  -0.162441  0  2.592255  0
O  O171  1  0.02818588  0.85529674  0.39283172  1  -1.08506  0  -0.189442  -0.162464  0  2.592204  0
O  O172  1  0.74999788  0.65851076  0.15629803  1  -0.586913  0  -0.250635  -0.545379  0  2.036029  0
O  O173  1  0.25000880  0.34149272  0.84370277  1  -0.586828  0  -0.250557  -0.545224  0  2.036024  0
O  O174  1  0.85223264  0.51560696  0.23383168  1  -0.584091  0  -0.237494  -0.515799  0  2.031097  0
O  O175  1  0.14776686  0.48439919  0.76616743  1  -0.584085  0  -0.237433  -0.515713  0  2.030882  0
O  O176  1  0.87980899  0.47540504  0.12169699  1  -0.477238  0  -0.163102  -0.383677  0  1.874832  0
O  O177  1  0.12018335  0.52460120  0.87830638  1  -0.476745  0  -0.163098  -0.383629  0  1.874881  0
O  O178  1  0.48187165  0.76475733  0.39201695  1  -0.573971  0  -0.238505  -0.519228  0  1.991098  0
O  O179  1  0.51813813  0.23524162  0.60798187  1  -0.574462  0  -0.238598  -0.519378  0  1.990715  0
O  O180  1  0.63530620  0.85553539  0.37096195  1  -0.590964  0  -0.251693  -0.540092  0  2.037868  0
O  O181  1  0.36469393  0.14445821  0.62903866  1  -0.590968  0  -0.251741  -0.540163  0  2.03748  0
O  O182  1  0.47088452  0.89454715  0.46622787  1  -0.489819  0  -0.141294  -0.366917  0  1.960559  0
O  O183  1  0.52911687  0.10545080  0.53376444  1  -0.489163  0  -0.141277  -0.366839  0  1.960391  0
O  O184  1  0.90357676  0.74289122  0.26359698  1  -0.580944  0  -0.241371  -0.530401  0  2.048168  0
O  O185  1  0.09642322  0.25709798  0.73640871  1  -0.581029  0  -0.241381  -0.530383  0  2.04823  0
O  O186  1  0.72263891  0.88652015  0.21961995  1  -0.587284  0  -0.242423  -0.537501  0  2.048563  0
O  O187  1  0.27734537  0.11347975  0.78037994  1  -0.587283  0  -0.242366  -0.537443  0  2.048926  0
O  O188  1  0.93340756  0.90548809  0.20984761  1  -0.46214  0  -0.136821  -0.361009  0  1.971972  0
O  O189  1  0.06659341  0.09451266  0.79015077  1  -0.462204  0  -0.136873  -0.361111  0  1.972099  0
O  O190  1  0.54079492  0.58777961  0.27997490  1  -1.312191  0  -0.682252  -0.875631  0  2.206659  0
O  O191  1  0.45920792  0.41221483  0.72002227  1  -1.312243  0  -0.682238  -0.875562  0  2.206706  0
