# generated using pymatgen
data_YbH11C9NO9
_symmetry_space_group_name_H-M   'P 1'
_cell_length_a   7.29502844
_cell_length_b   9.36697652
_cell_length_c   11.33260981
_cell_angle_alpha   73.07754295
_cell_angle_beta   71.19654966
_cell_angle_gamma   71.96498788
_symmetry_Int_Tables_number   1
_chemical_formula_structural   YbH11C9NO9
_chemical_formula_sum   'Yb2 H22 C18 N2 O18'
_cell_volume   681.11665793
_cell_formula_units_Z   2
loop_
 _symmetry_equiv_pos_site_id
 _symmetry_equiv_pos_as_xyz
  1  'x, y, z'
loop_
 _atom_site_type_symbol
 _atom_site_label
 _atom_site_symmetry_multiplicity
 _atom_site_fract_x
 _atom_site_fract_y
 _atom_site_fract_z
 _atom_site_occupancy
 _atom_site_hle17_bader_spin_density
 _atom_site_hle17_ddec_charge
 _atom_site_hle17_ddec_spin_density
 _atom_site_hle17_ddec_sum_bond_order
 _atom_site_hle17_magmom
 _atom_site_hse06_10hf_bader_spin_density
 _atom_site_hse06_10hf_ddec_charge
 _atom_site_hse06_10hf_ddec_spin_density
 _atom_site_hse06_10hf_ddec_sum_bond_order
 _atom_site_hse06_10hf_magmom
 _atom_site_hse06_bader_spin_density
 _atom_site_hse06_ddec_charge
 _atom_site_hse06_ddec_spin_density
 _atom_site_hse06_ddec_sum_bond_order
 _atom_site_hse06_magmom
 _atom_site_pbe_bader_spin_density
 _atom_site_pbe_cm5_charge
 _atom_site_pbe_ddec_charge
 _atom_site_pbe_ddec_spin_density
 _atom_site_pbe_ddec_sum_bond_order
 _atom_site_pbe_magmom
Yb  Yb0  1  0.89841673  0.45208296  0.27743674  1  0  2.156213  0  1.754352  0  0  2.076468  0  2.104374  0  0  2.140101  0  2.031167  0  0  1.572083  2.042815  0  2.132141  0
Yb  Yb1  1  0.10158703  0.54791811  0.72255900  1  0  2.156198  0  1.754307  0  0  2.076504  0  2.104239  0  0  2.140107  0  2.031094  0  0  1.572033  2.042871  0  2.131985  0
H  H2  1  0.32382861  0.39561586  0.12915389  1  0  0.450847  0  0.845606  0  0  0.415484  0  0.915838  0  0  0.427072  0  0.89908  0  0  0.298152  0.407227  0  0.927838  0
H  H3  1  0.67617165  0.60438341  0.87084470  1  0  0.450827  0  0.845642  0  0  0.415446  0  0.915899  0  0  0.42704  0  0.899133  0  0  0.298139  0.407189  0  0.927899  0
H  H4  1  0.18648824  0.38205914  0.04549085  1  0  0.456847  0  0.837022  0  0  0.425858  0  0.90003  0  0  0.437201  0  0.883625  0  0  0.302761  0.41774  0  0.91179  0
H  H5  1  0.81350906  0.61794329  0.95450871  1  0  0.456895  0  0.836955  0  0  0.425891  0  0.899981  0  0  0.437236  0  0.883574  0  0  0.30277  0.417774  0  0.91174  0
H  H6  1  0.08360353  0.13639686  0.41937444  1  0  0.45289  0  0.792438  0  0  0.438406  0  0.836061  0  0  0.446532  0  0.824397  0  0  0.340697  0.432615  0  0.844468  0
H  H7  1  0.91638481  0.86360348  0.58063371  1  0  0.452948  0  0.792428  0  0  0.438449  0  0.836016  0  0  0.446575  0  0.824354  0  0  0.340716  0.432659  0  0.844422  0
H  H8  1  0.96138447  0.13808903  0.32639389  1  0  0.44965  0  0.818716  0  0  0.423294  0  0.879763  0  0  0.433446  0  0.864662  0  0  0.322187  0.415901  0  0.890849  0
H  H9  1  0.03861859  0.86190880  0.67360566  1  0  0.449599  0  0.818758  0  0  0.423247  0  0.879819  0  0  0.4334  0  0.864718  0  0  0.322159  0.415855  0  0.890904  0
H  H10  1  0.52642217  0.48857155  0.25008869  1  0  0.426387  0  0.885917  0  0  0.388882  0  0.960989  0  0  0.401277  0  0.942966  0  0  0.294537  0.380243  0  0.973519  0
H  H11  1  0.47358305  0.51142536  0.74990989  1  0  0.426411  0  0.885885  0  0  0.388889  0  0.960986  0  0  0.401289  0  0.942956  0  0  0.294549  0.38025  0  0.973517  0
H  H12  1  0.45084918  0.51168931  0.39549023  1  0  0.448313  0  0.841779  0  0  0.42151  0  0.89653  0  0  0.433238  0  0.87933  0  0  0.305541  0.413223  0  0.908703  0
H  H13  1  0.54915348  0.48830963  0.60450932  1  0  0.448307  0  0.8418  0  0  0.421503  0  0.896552  0  0  0.433231  0  0.879351  0  0  0.305527  0.413215  0  0.908726  0
H  H14  1  0.58724808  0.24574511  0.74077354  1  0  0.316812  0  0.923975  0  0  0.30713  0  0.979067  0  0  0.313507  0  0.974128  0  0  0.290939  0.302542  0  0.982476  0
H  H15  1  0.41275119  0.75425948  0.25922603  1  0  0.316823  0  0.923953  0  0  0.307144  0  0.97904  0  0  0.313521  0  0.974101  0  0  0.290944  0.302556  0  0.982451  0
H  H16  1  0.60241233  0.05884883  0.75452430  1  0  0.293283  0  0.911745  0  0  0.289326  0  0.962959  0  0  0.29388  0  0.960314  0  0  0.296155  0.285978  0  0.964951  0
H  H17  1  0.39758814  0.94115239  0.24547525  1  0  0.293342  0  0.911736  0  0  0.289365  0  0.962973  0  0  0.293919  0  0.960328  0  0  0.296183  0.286017  0  0.964964  0
H  H18  1  0.81945640  0.98720144  0.22128410  1  0  0.105535  0  0.948699  0  0  0.114321  0  1.012213  0  0  0.119021  0  1.008043  0  0  0.099819  0.110504  0  1.015928  0
H  H19  1  0.18054436  0.01279626  0.77872022  1  0  0.105513  0  0.948756  0  0  0.114301  0  1.012261  0  0  0.119003  0  1.008091  0  0  0.099815  0.110484  0  1.015977  0
H  H20  1  0.76067839  0.85398049  0.90516787  1  0  0.104478  0  0.98103  0  0  0.113545  0  1.048168  0  0  0.117627  0  1.044972  0  0  0.104558  0.110232  0  1.051117  0
H  H21  1  0.23931715  0.14602675  0.09483458  1  0  0.104514  0  0.980961  0  0  0.113606  0  1.048067  0  0  0.117689  0  1.044871  0  0  0.104594  0.110293  0  1.051011  0
H  H22  1  0.61961391  0.33376869  0.91267514  1  0  0.124165  0  0.956792  0  0  0.13236  0  1.019858  0  0  0.136493  0  1.017172  0  0  0.111687  0.129243  0  1.022375  0
H  H23  1  0.38038817  0.66623308  0.08732633  1  0  0.1241  0  0.956916  0  0  0.13231  0  1.019942  0  0  0.136443  0  1.01726  0  0  0.111677  0.129194  0  1.022456  0
C  C24  1  0.84255125  0.74182617  0.13671071  1  0  0.648777  0  3.890224  0  0  0.601032  0  4.187746  0  0  0.634841  0  4.181488  0  0  0.193284  0.578353  0  4.191893  0
C  C25  1  0.15744488  0.25817185  0.86328883  1  0  0.648867  0  3.890216  0  0  0.60112  0  4.18778  0  0  0.63493  0  4.181519  0  0  0.193294  0.578441  0  4.191925  0
C  C26  1  0.79184742  0.90490240  0.07023245  1  0  -0.049056  0  3.811553  0  0  -0.023644  0  4.045639  0  0  -0.030425  0  4.068705  0  0  -0.020261  -0.019489  0  4.029876  0
C  C27  1  0.20815248  0.09509525  0.92976804  1  0  -0.049146  0  3.811561  0  0  -0.023762  0  4.045709  0  0  -0.030549  0  4.068784  0  0  -0.020282  -0.019608  0  4.029942  0
C  C28  1  0.78120899  0.01954434  0.13029947  1  0  -0.117861  0  3.744636  0  0  -0.157587  0  4.000852  0  0  -0.157168  0  4.01995  0  0  -0.097535  -0.15717  0  3.987758  0
C  C29  1  0.21879528  0.98044875  0.86970101  1  0  -0.117796  0  3.744463  0  0  -0.157496  0  4.000689  0  0  -0.157073  0  4.019783  0  0  -0.097524  -0.157081  0  3.987599  0
C  C30  1  0.74985999  0.94411513  0.95150785  1  0  -0.166068  0  3.668395  0  0  -0.197145  0  3.916429  0  0  -0.199756  0  3.935695  0  0  -0.087461  -0.195598  0  3.904075  0
C  C31  1  0.25013789  0.05588950  0.04849172  1  0  -0.166083  0  3.66831  0  0  -0.197185  0  3.91642  0  0  -0.199793  0  3.935689  0  0  -0.087496  -0.195645  0  3.904089  0
C  C32  1  0.69331236  0.09858205  0.89068648  1  0  0.308206  0  3.844719  0  0  0.307679  0  4.100588  0  0  0.314965  0  4.121943  0  0  0.093777  0.302725  0  4.08605  0
C  C33  1  0.30667980  0.90142444  0.10931500  1  0  0.308327  0  3.84454  0  0  0.307748  0  4.10047  0  0  0.315034  0  4.121824  0  0  0.093833  0.302791  0  4.085931  0
C  C34  1  0.67183252  0.21309387  0.95454296  1  0  -0.160022  0  3.62295  0  0  -0.192769  0  3.875187  0  0  -0.194545  0  3.892445  0  0  -0.087699  -0.192111  0  3.864269  0
C  C35  1  0.32817175  0.78690562  0.04545850  1  0  -0.159964  0  3.622991  0  0  -0.192653  0  3.875185  0  0  -0.194431  0  3.892444  0  0  -0.087658  -0.191996  0  3.864271  0
C  C36  1  0.71720133  0.17326208  0.07269907  1  0  -0.060134  0  3.807858  0  0  -0.0379  0  4.05191  0  0  -0.044191  0  4.073667  0  0  -0.022168  -0.033828  0  4.036548  0
C  C37  1  0.28280199  0.82673358  0.92730428  1  0  -0.060155  0  3.807866  0  0  -0.037983  0  4.051945  0  0  -0.044272  0  4.073699  0  0  -0.022175  -0.03391  0  4.036588  0
C  C38  1  0.69281005  0.29712005  0.13860301  1  0  0.704754  0  3.822062  0  0  0.651088  0  4.115989  0  0  0.686431  0  4.105896  0  0  0.234611  0.627705  0  4.121518  0
C  C39  1  0.30718970  0.70287793  0.86140035  1  0  0.704622  0  3.822052  0  0  0.651001  0  4.115904  0  0  0.686346  0  4.10581  0  0  0.234541  0.62762  0  4.121435  0
C  C40  1  0.11080186  0.48356248  0.46379992  1  0  0.568232  0  3.907094  0  0  0.524702  0  4.205561  0  0  0.555072  0  4.197096  0  0  0.219191  0.503891  0  4.211988  0
C  C41  1  0.88919198  0.51643541  0.53620440  1  0  0.568129  0  3.907563  0  0  0.524868  0  4.205701  0  0  0.555239  0  4.197237  0  0  0.219364  0.504059  0  4.212132  0
N  N42  1  0.66135414  0.13493072  0.76982449  1  0  -0.668631  0  3.058998  0  0  -0.640515  0  3.274172  0  0  -0.658717  0  3.275056  0  0  -0.60699  -0.627202  0  3.272885  0
N  N43  1  0.33864451  0.86507304  0.23017413  1  0  -0.668779  0  3.058987  0  0  -0.64063  0  3.274202  0  0  -0.658835  0  3.275091  0  0  -0.607074  -0.627316  0  3.272916  0
O  O44  1  0.88659190  0.70724876  0.24376617  1  0  -0.698983  0  1.963449  0  0  -0.663134  0  2.198132  0  0  -0.689552  0  2.189245  0  0  -0.410339  -0.645947  0  2.203284  0
O  O45  1  0.11340739  0.29274807  0.75623337  1  0  -0.699056  0  1.963414  0  0  -0.663196  0  2.198088  0  0  -0.689611  0  2.189204  0  0  -0.410343  -0.646011  0  2.203239  0
O  O46  1  0.83722150  0.63226843  0.09121833  1  0  -0.69661  0  2.028483  0  0  -0.641476  0  2.263321  0  0  -0.668957  0  2.253962  0  0  -0.376547  -0.623416  0  2.268236  0
O  O47  1  0.16278055  0.36772968  0.90878026  1  0  -0.696542  0  2.028392  0  0  -0.641468  0  2.263291  0  0  -0.668943  0  2.253934  0  0  -0.376528  -0.623419  0  2.268231  0
O  O48  1  0.53921211  0.40856821  0.13914751  1  0  -0.620066  0  2.037066  0  0  -0.54954  0  2.249592  0  0  -0.575744  0  2.238842  0  0  -0.288542  -0.531505  0  2.256324  0
O  O49  1  0.46078877  0.59143053  0.86085299  1  0  -0.62  0  2.037063  0  0  -0.549457  0  2.249551  0  0  -0.575677  0  2.238805  0  0  -0.288499  -0.531422  0  2.256283  0
O  O50  1  0.82734229  0.28540251  0.19325110  1  0  -0.745119  0  2.047644  0  0  -0.695186  0  2.30096  0  0  -0.724517  0  2.289149  0  0  -0.408273  -0.675833  0  2.30722  0
O  O51  1  0.17266227  0.71460271  0.80674561  1  0  -0.745082  0  2.047611  0  0  -0.695145  0  2.300847  0  0  -0.724485  0  2.289078  0  0  -0.408229  -0.675794  0  2.307108  0
O  O52  1  0.18731451  0.39042058  0.13139126  1  0  -0.951105  0  1.884035  0  0  -0.913351  0  2.097234  0  0  -0.93574  0  2.061117  0  0  -0.67891  -0.899006  0  2.121978  0
O  O53  1  0.81268573  0.60958006  0.86860638  1  0  -0.951106  0  1.883975  0  0  -0.913357  0  2.097237  0  0  -0.935743  0  2.061115  0  0  -0.678885  -0.899015  0  2.121978  0
O  O54  1  0.96080075  0.18634803  0.39269342  1  0  -0.871797  0  1.823891  0  0  -0.840659  0  1.988019  0  0  -0.858284  0  1.955734  0  0  -0.610915  -0.829656  0  2.00931  0
O  O55  1  0.03919829  0.81365598  0.60730424  1  0  -0.871784  0  1.823885  0  0  -0.840643  0  1.987995  0  0  -0.858264  0  1.95571  0  0  -0.610892  -0.829643  0  2.009284  0
O  O56  1  0.15700794  0.43400669  0.36348230  1  0  -0.631236  0  2.048669  0  0  -0.590975  0  2.284409  0  0  -0.616406  0  2.274797  0  0  -0.369023  -0.574886  0  2.29016  0
O  O57  1  0.84299105  0.56598863  0.63651055  1  0  -0.631217  0  2.049234  0  0  -0.591018  0  2.284825  0  0  -0.616443  0  2.275215  0  0  -0.369079  -0.574937  0  2.290579  0
O  O58  1  0.22921004  0.50980564  0.51214539  1  0  -0.647961  0  2.068575  0  0  -0.599932  0  2.296518  0  0  -0.626966  0  2.285409  0  0  -0.357178  -0.58255  0  2.302847  0
O  O59  1  0.77077971  0.49019113  0.48785128  1  0  -0.647944  0  2.0685  0  0  -0.599986  0  2.296324  0  0  -0.627025  0  2.285211  0  0  -0.35722  -0.582597  0  2.302654  0
O  O60  1  0.55679765  0.52746404  0.31486378  1  0  -0.930732  0  1.916928  0  0  -0.887328  0  2.111406  0  0  -0.909786  0  2.075394  0  0  -0.658194  -0.872792  0  2.134738  0
O  O61  1  0.44320578  0.47253404  0.68513481  1  0  -0.930776  0  1.916952  0  0  -0.887357  0  2.11141  0  0  -0.909808  0  2.075391  0  0  -0.658198  -0.872821  0  2.134741  0
