# generated using pymatgen
data_AlH9C24(ClO2)3
_symmetry_space_group_name_H-M   'P 1'
_cell_length_a   3.99339369
_cell_length_b   29.01059046
_cell_length_c   29.01086577
_cell_angle_alpha   119.99417556
_cell_angle_beta   89.99848529
_cell_angle_gamma   90.00154277
_symmetry_Int_Tables_number   1
_chemical_formula_structural   AlH9C24(ClO2)3
_chemical_formula_sum   'Al2 H18 C48 Cl6 O12'
_cell_volume   2910.82102215
_cell_formula_units_Z   2
loop_
 _symmetry_equiv_pos_site_id
 _symmetry_equiv_pos_as_xyz
  1  'x, y, z'
loop_
 _atom_site_type_symbol
 _atom_site_label
 _atom_site_symmetry_multiplicity
 _atom_site_fract_x
 _atom_site_fract_y
 _atom_site_fract_z
 _atom_site_occupancy
 _atom_site_pbe_bader_charge
 _atom_site_pbe_bader_spin_density
 _atom_site_pbe_cm5_charge
 _atom_site_pbe_ddec_charge
 _atom_site_pbe_ddec_spin_density
 _atom_site_pbe_ddec_sum_bond_order
 _atom_site_pbe_magmom
Al  Al0  1  0.00904719  0.50000841  0.49999289  1  2.506512  0  0.427735  1.593957  0  2.578123  0
Al  Al1  1  0.00916096  0.16666099  0.83334915  1  2.506602  0  0.427918  1.594133  0  2.577804  0
H  H2  1  0.20720267  0.17841824  0.69860759  1  0.072913  0  0.111915  0.119293  0  0.984636  0
H  H3  1  0.21108650  0.22774295  0.64831875  1  0.065321  0  0.111007  0.119466  0  0.976012  0
H  H4  1  0.78623647  0.30376317  0.82347987  1  0.120568  0  0.114233  0.135357  0  0.978507  0
H  H5  1  0.78604085  0.36289686  0.50984353  1  0.121607  0  0.114236  0.135308  0  0.97856  0
H  H6  1  0.20718731  0.48825265  0.63473579  1  0.072829  0  0.111923  0.119285  0  0.98456  0
H  H7  1  0.21115644  0.43893308  0.68502777  1  0.065098  0  0.110961  0.11944  0  0.975873  0
H  H8  1  0.20721968  0.02015895  0.82158864  1  0.115235  0  0.111955  0.11924  0  0.984485  0
H  H9  1  0.21116560  0.92054985  0.77226525  1  0.064274  0  0.11097  0.119328  0  0.976169  0
H  H10  1  0.78622092  0.01972535  0.69625283  1  0.122901  0  0.114231  0.135382  0  0.978444  0
H  H11  1  0.78611148  0.64694199  0.63709221  1  0.122054  0  0.114212  0.135362  0  0.978571  0
H  H12  1  0.20729800  0.64650439  0.51174161  1  0.114872  0  0.111977  0.119287  0  0.984439  0
H  H13  1  0.21132713  0.74611430  0.56105708  1  0.064671  0  0.110976  0.119337  0  0.976008  0
H  H14  1  0.20701899  0.30137057  0.97982175  1  0.067792  0  0.111897  0.119157  0  0.98449  0
H  H15  1  0.21086277  0.35166580  0.07943248  1  0.071175  0  0.110825  0.119253  0  0.976082  0
H  H16  1  0.78614050  0.17651403  0.98032241  1  0.122613  0  0.114212  0.13541  0  0.978455  0
H  H17  1  0.78609424  0.49015898  0.35302591  1  0.122648  0  0.11418  0.135319  0  0.978484  0
H  H18  1  0.20702541  0.36529112  0.35352119  1  0.067706  0  0.111819  0.119024  0  0.984506  0
H  H19  1  0.21095435  0.31499269  0.25391081  1  0.0713  0  0.11083  0.119311  0  0.976124  0
C  C20  1  0.50752458  0.45922892  0.41819727  1  1.556418  0  0.274864  0.650543  0  4.061655  0
C  C21  1  0.50749477  0.45899963  0.54078590  1  1.552947  0  0.274757  0.650627  0  4.061259  0
C  C22  1  0.50752700  0.58180125  0.54099531  1  1.55796  0  0.274655  0.650309  0  4.061412  0
C  C23  1  0.50764489  0.20766331  0.79254690  1  1.55306  0  0.274393  0.649961  0  4.06228  0
C  C24  1  0.50760514  0.08486514  0.79234851  1  1.557627  0  0.274518  0.650157  0  4.061253  0
C  C25  1  0.50757751  0.20744304  0.91514376  1  1.556444  0  0.274715  0.65012  0  4.061763  0
C  C26  1  0.49904158  0.23791977  0.76364831  1  0.076996  0  -0.008434  -0.022503  0  3.964042  0
C  C27  1  0.33372133  0.21663508  0.71454065  1  -0.036379  0  -0.080649  -0.095543  0  3.986642  0
C  C28  1  0.33444302  0.24413567  0.68685102  1  -0.033896  0  -0.077018  -0.108672  0  3.943539  0
C  C29  1  0.48778664  0.29463301  0.70837823  1  0.164436  0  -0.001582  0.076329  0  4.097241  0
C  C30  1  0.64298006  0.31623355  0.75889476  1  -0.00765  0  0.019856  0.103233  0  4.018173  0
C  C31  1  0.65568804  0.28765641  0.78558465  1  0.054527  0  -0.083549  -0.157178  0  3.957386  0
C  C32  1  0.48512785  0.32218703  0.67976247  1  -0.040268  0  -0.039032  -0.080828  0  4.106254  0
C  C33  1  0.48512017  0.34448929  0.65358383  1  -0.285854  0  -0.039155  -0.080861  0  4.106279  0
C  C34  1  0.48776513  0.37203900  0.62496135  1  0.165089  0  -0.001524  0.076423  0  4.097258  0
C  C35  1  0.64291177  0.35043186  0.57443907  1  -0.008687  0  0.019904  0.103241  0  4.018693  0
C  C36  1  0.65554814  0.37900568  0.54774422  1  0.052968  0  -0.083579  -0.157103  0  3.957944  0
C  C37  1  0.49891470  0.42874173  0.56968111  1  0.077279  0  -0.008402  -0.022855  0  3.964407  0
C  C38  1  0.33365898  0.45003146  0.61879539  1  -0.035999  0  -0.080783  -0.095534  0  3.986737  0
C  C39  1  0.33442475  0.42253398  0.64648813  1  -0.033881  0  -0.077  -0.108711  0  3.943659  0
C  C40  1  0.49904064  0.02571527  0.76209285  1  0.059063  0  -0.008224  -0.022918  0  3.965544  0
C  C41  1  0.33374963  0.99787986  0.78336849  1  -0.028021  0  -0.080807  -0.095164  0  3.987524  0
C  C42  1  0.33448561  0.94269865  0.75587420  1  -0.011801  0  -0.076911  -0.108685  0  3.943999  0
C  C43  1  0.48785859  0.91373752  0.70537677  1  0.167703  0  -0.001546  0.076547  0  4.097197  0
C  C44  1  0.64302989  0.94266165  0.68377806  1  0.071673  0  0.019853  0.103166  0  4.018687  0
C  C45  1  0.65571348  0.99792523  0.71235496  1  -0.03468  0  -0.083594  -0.157143  0  3.957963  0
C  C46  1  0.48520888  0.85757195  0.67782317  1  -0.522376  0  -0.039135  -0.080871  0  4.106403  0
C  C47  1  0.48524134  0.80909334  0.65550775  1  0.09477  0  -0.039106  -0.080942  0  4.10646  0
C  C48  1  0.48787787  0.75292836  0.62795632  1  0.168007  0  -0.001521  0.076633  0  4.096964  0
C  C49  1  0.64301406  0.72400426  0.64955711  1  0.071736  0  0.019955  0.103276  0  4.018605  0
C  C50  1  0.65566231  0.66874083  0.62098627  1  -0.032531  0  -0.08359  -0.157196  0  3.957869  0
C  C51  1  0.49898074  0.64094988  0.57124739  1  0.057573  0  -0.008467  -0.023154  0  3.96518  0
C  C52  1  0.33377278  0.66878576  0.54996826  1  -0.027807  0  -0.080665  -0.095143  0  3.987701  0
C  C53  1  0.33454680  0.72396434  0.57745553  1  -0.012261  0  -0.076977  -0.108659  0  3.943951  0
C  C54  1  0.49888011  0.23633441  0.97429246  1  0.037011  0  -0.008704  -0.023288  0  3.964666  0
C  C55  1  0.33354653  0.28543786  0.00211180  1  -0.121154  0  -0.080566  -0.095034  0  3.987139  0
C  C56  1  0.33424493  0.31313107  0.05729279  1  0.115827  0  -0.076706  -0.108488  0  3.944151  0
C  C57  1  0.48764324  0.29161352  0.08626784  1  0.138595  0  -0.001506  0.076714  0  4.097923  0
C  C58  1  0.64283492  0.24109875  0.05736915  1  -0.026586  0  0.019756  0.102717  0  4.018561  0
C  C59  1  0.65556131  0.21440378  0.00210331  1  0.076717  0  -0.083591  -0.156924  0  3.957182  0
C  C60  1  0.48502866  0.32024140  0.14243604  1  -0.275275  0  -0.039234  -0.081094  0  4.106806  0
C  C61  1  0.48503894  0.34642655  0.19090545  1  -0.057603  0  -0.039132  -0.080938  0  4.106628  0
C  C62  1  0.48764297  0.37505380  0.24707221  1  0.138914  0  -0.001448  0.07674  0  4.097639  0
C  C63  1  0.64282640  0.42557092  0.27597411  1  -0.026418  0  0.019717  0.102623  0  4.018691  0
C  C64  1  0.65552701  0.45226573  0.33124012  1  0.076256  0  -0.08335  -0.156539  0  3.95714  0
C  C65  1  0.49883326  0.43033564  0.35904909  1  0.037581  0  -0.008891  -0.023761  0  3.964936  0
C  C66  1  0.33352064  0.38122757  0.33123147  1  -0.121323  0  -0.080476  -0.094691  0  3.986714  0
C  C67  1  0.33426963  0.35353279  0.27604931  1  0.115501  0  -0.076833  -0.108753  0  3.94408  0
Cl  Cl68  1  0.82325113  0.37855502  0.78748786  1  -0.198234  0  -0.007885  -0.077758  0  1.522895  0
Cl  Cl69  1  0.82316113  0.28811238  0.54584473  1  -0.19797  0  -0.007827  -0.077644  0  1.523127  0
Cl  Cl70  1  0.82326294  0.90894876  0.62145455  1  -0.195189  0  -0.007927  -0.077766  0  1.523107  0
Cl  Cl71  1  0.82324635  0.75771825  0.71187888  1  -0.195205  0  -0.007953  -0.077804  0  1.523141  0
Cl  Cl72  1  0.82316153  0.21250773  0.09109795  1  -0.195862  0  -0.007808  -0.077542  0  1.522999  0
Cl  Cl73  1  0.82318048  0.45416373  0.24224704  1  -0.19599  0  -0.007776  -0.077503  0  1.523104  0
O  O74  1  0.74531893  0.55867984  0.55101831  1  -1.253981  0  -0.236865  -0.593211  0  2.360543  0
O  O75  1  0.74536838  0.49236284  0.44130669  1  -1.257519  0  -0.237  -0.593396  0  2.360628  0
O  O76  1  0.74536494  0.44897563  0.50764786  1  -1.252508  0  -0.23707  -0.593433  0  2.359877  0
O  O77  1  0.27580284  0.55799360  0.50680201  1  -1.256386  0  -0.239254  -0.599444  0  2.365555  0
O  O78  1  0.27582451  0.49319310  0.55116324  1  -1.251342  0  -0.238953  -0.599362  0  2.36629  0
O  O79  1  0.27583352  0.44884335  0.44201633  1  -1.254605  0  -0.239057  -0.599341  0  2.365798  0
O  O80  1  0.74545691  0.17430738  0.89203546  1  -1.257167  0  -0.236978  -0.593391  0  2.360401  0
O  O81  1  0.74548790  0.21769452  0.82569022  1  -1.252962  0  -0.236985  -0.5934  0  2.360465  0
O  O82  1  0.74542121  0.10798540  0.78232123  1  -1.254232  0  -0.236896  -0.593257  0  2.36016  0
O  O83  1  0.27595088  0.21782803  0.89132244  1  -1.2546  0  -0.239008  -0.599079  0  2.365874  0
O  O84  1  0.27590893  0.10867622  0.82654315  1  -1.255847  0  -0.239211  -0.599436  0  2.365526  0
O  O85  1  0.27597491  0.17346588  0.78217069  1  -1.251325  0  -0.238813  -0.599072  0  2.366286  0
