# generated using pymatgen
data_TbAgH11C15(NO6)2
_symmetry_space_group_name_H-M   'P 1'
_cell_length_a   7.53042354
_cell_length_b   8.20481847
_cell_length_c   14.20185439
_cell_angle_alpha   98.24092051
_cell_angle_beta   100.45790955
_cell_angle_gamma   94.66358846
_symmetry_Int_Tables_number   1
_chemical_formula_structural   TbAgH11C15(NO6)2
_chemical_formula_sum   'Tb2 Ag2 H22 C30 N4 O24'
_cell_volume   848.77778108
_cell_formula_units_Z   2
loop_
 _symmetry_equiv_pos_site_id
 _symmetry_equiv_pos_as_xyz
  1  'x, y, z'
loop_
 _atom_site_type_symbol
 _atom_site_label
 _atom_site_symmetry_multiplicity
 _atom_site_fract_x
 _atom_site_fract_y
 _atom_site_fract_z
 _atom_site_occupancy
 _atom_site_hle17_bader_spin_density
 _atom_site_hle17_ddec_charge
 _atom_site_hle17_ddec_spin_density
 _atom_site_hle17_ddec_sum_bond_order
 _atom_site_hle17_magmom
 _atom_site_hse06_10hf_bader_spin_density
 _atom_site_hse06_10hf_ddec_charge
 _atom_site_hse06_10hf_ddec_spin_density
 _atom_site_hse06_10hf_ddec_sum_bond_order
 _atom_site_hse06_10hf_magmom
 _atom_site_hse06_bader_spin_density
 _atom_site_hse06_ddec_charge
 _atom_site_hse06_ddec_spin_density
 _atom_site_hse06_ddec_sum_bond_order
 _atom_site_hse06_magmom
 _atom_site_pbe_bader_spin_density
 _atom_site_pbe_cm5_charge
 _atom_site_pbe_ddec_charge
 _atom_site_pbe_ddec_spin_density
 _atom_site_pbe_ddec_sum_bond_order
 _atom_site_pbe_magmom
Tb  Tb0  1  0.81114544  0.29753371  0.08056660  1  0  2.303293  0  1.595883  0  0  2.227949  0  1.926221  0  0  2.272434  0  1.88606  0  0  1.499175  2.121262  0  2.093504  0
Tb  Tb1  1  0.18885487  0.70246422  0.91943340  1  0  2.303255  0  1.595824  0  0  2.2279  0  1.926152  0  0  2.272383  0  1.885994  0  0  1.4992  2.121227  0  2.093433  0
Ag  Ag2  1  0.17077918  0.40366324  0.53203582  1  0  0.52134  0  1.400063  0  0  0.372746  0  1.833249  0  0  0.402383  0  1.791647  0  0  0.473805  0.352437  0  1.862122  0
Ag  Ag3  1  0.82922180  0.59633963  0.46796608  1  0  0.521341  0  1.400059  0  0  0.372759  0  1.833232  0  0  0.40239  0  1.791636  0  0  0.473808  0.352451  0  1.862107  0
H  H4  1  0.78475990  0.55142765  0.95872927  1  0  0.429479  0  0.872804  0  0  0.397527  0  0.939796  0  0  0.408703  0  0.923119  0  0  0.303449  0.389709  0  0.95101  0
H  H5  1  0.21524040  0.44857029  0.04127003  1  0  0.429519  0  0.872765  0  0  0.397565  0  0.939756  0  0  0.408742  0  0.923078  0  0  0.303461  0.389745  0  0.950973  0
H  H6  1  0.63739165  0.62131407  0.01886369  1  0  0.462032  0  0.820233  0  0  0.433926  0  0.877242  0  0  0.444874  0  0.861189  0  0  0.310244  0.425375  0  0.889722  0
H  H7  1  0.36260764  0.37868635  0.98113714  1  0  0.462077  0  0.820197  0  0  0.433962  0  0.877215  0  0  0.444911  0  0.861161  0  0  0.310234  0.425408  0  0.889699  0
H  H8  1  0.12731471  0.11436995  0.01696512  1  0  0.444964  0  0.843044  0  0  0.417687  0  0.902659  0  0  0.427354  0  0.888501  0  0  0.313133  0.410287  0  0.913348  0
H  H9  1  0.87268692  0.88562799  0.98303220  1  0  0.445078  0  0.84312  0  0  0.417774  0  0.902591  0  0  0.427444  0  0.888428  0  0  0.313189  0.410372  0  0.913281  0
H  H10  1  0.20333476  0.18853315  0.12684456  1  0  0.441223  0  0.851228  0  0  0.414068  0  0.907971  0  0  0.423547  0  0.894187  0  0  0.306235  0.406867  0  0.918357  0
H  H11  1  0.79666754  0.81146975  0.87315465  1  0  0.441231  0  0.85121  0  0  0.414073  0  0.907957  0  0  0.423551  0  0.894174  0  0  0.306236  0.406872  0  0.918342  0
H  H12  1  0.32870219  0.28835092  0.36350700  1  0  0.089465  0  0.965479  0  0  0.093176  0  1.039199  0  0  0.097506  0  1.033735  0  0  0.116206  0.089883  0  1.043355  0
H  H13  1  0.67130132  0.71165070  0.63649432  1  0  0.089462  0  0.965485  0  0  0.093159  0  1.039214  0  0  0.097466  0  1.033775  0  0  0.116193  0.089867  0  1.043376  0
H  H14  1  0.52345140  0.70117000  0.23980059  1  0  0.135394  0  0.911511  0  0  0.144893  0  0.967178  0  0  0.148929  0  0.963601  0  0  0.126069  0.141738  0  0.970318  0
H  H15  1  0.47654550  0.29883294  0.76019812  1  0  0.135427  0  0.911519  0  0  0.144909  0  0.967182  0  0  0.148946  0  0.963605  0  0  0.126062  0.141762  0  0.970327  0
H  H16  1  0.27994386  0.76402373  0.49441634  1  0  0.107293  0  0.953357  0  0  0.112322  0  1.022391  0  0  0.116076  0  1.01788  0  0  0.121682  0.109486  0  1.02578  0
H  H17  1  0.72005559  0.23597794  0.50558321  1  0  0.107336  0  0.953266  0  0  0.11236  0  1.022305  0  0  0.116118  0  1.017791  0  0  0.12168  0.109519  0  1.025693  0
H  H18  1  0.96469623  0.53791620  0.28489691  1  0  0.090768  0  0.973126  0  0  0.091114  0  1.052906  0  0  0.09593  0  1.046641  0  0  0.121194  0.08841  0  1.055328  0
H  H19  1  0.03530172  0.46208423  0.71510380  1  0  0.090771  0  0.973199  0  0  0.091114  0  1.052981  0  0  0.095931  0  1.046717  0  0  0.121205  0.088413  0  1.055401  0
H  H20  1  0.02488739  0.99327188  0.17046684  1  0  0.118577  0  0.976711  0  0  0.123885  0  1.045581  0  0  0.128545  0  1.039953  0  0  0.119592  0.12047  0  1.049553  0
H  H21  1  0.97511171  0.00672732  0.82953105  1  0  0.118569  0  0.976732  0  0  0.123887  0  1.045585  0  0  0.128546  0  1.039958  0  0  0.11959  0.120475  0  1.049556  0
H  H22  1  0.83449696  0.96937803  0.43722668  1  0  0.093312  0  0.93813  0  0  0.099815  0  1.008827  0  0  0.103043  0  1.004541  0  0  0.120172  0.097412  0  1.011923  0
H  H23  1  0.16550551  0.03062609  0.56277335  1  0  0.093319  0  0.938106  0  0  0.099834  0  1.008788  0  0  0.103063  0  1.004501  0  0  0.120175  0.097435  0  1.011876  0
H  H24  1  0.45445272  0.08541121  0.26719373  1  0  0.415935  0  0.878055  0  0  0.384499  0  0.952844  0  0  0.396518  0  0.935909  0  0  0.309164  0.375994  0  0.964827  0
H  H25  1  0.54554451  0.91459420  0.73280523  1  0  0.415904  0  0.878131  0  0  0.384475  0  0.952894  0  0  0.396494  0  0.935959  0  0  0.309146  0.375969  0  0.964879  0
C  C26  1  0.35304957  0.42096343  0.36266092  1  0  0.134878  0  3.635219  0  0  0.089267  0  3.884339  0  0  0.100081  0  3.899714  0  0  0.057216  0.082256  0  3.874532  0
C  C27  1  0.64694988  0.57903823  0.63733933  1  0  0.134877  0  3.635137  0  0  0.089278  0  3.884256  0  0  0.100112  0  3.899639  0  0  0.057201  0.082267  0  3.874458  0
C  C28  1  0.43785333  0.48116094  0.29320616  1  0  -0.117334  0  3.742804  0  0  -0.090507  0  3.984785  0  0  -0.103471  0  4.005148  0  0  -0.010975  -0.083182  0  3.973067  0
C  C29  1  0.56214342  0.51884075  0.70679384  1  0  -0.117405  0  3.742882  0  0  -0.09058  0  3.984837  0  0  -0.103553  0  4.005207  0  0  -0.010976  -0.083252  0  3.973128  0
C  C30  1  0.46274735  0.65175479  0.29515723  1  0  0.002831  0  3.647662  0  0  -0.042531  0  3.902973  0  0  -0.032789  0  3.915144  0  0  -0.049012  -0.048872  0  3.895938  0
C  C31  1  0.53724822  0.34824814  0.70484347  1  0  0.002773  0  3.647806  0  0  -0.042574  0  3.903112  0  0  -0.032832  0  3.915287  0  0  -0.049007  -0.048926  0  3.896086  0
C  C32  1  0.40301949  0.75681044  0.36649836  1  0  -0.133196  0  3.758948  0  0  -0.106634  0  4.000249  0  0  -0.121675  0  4.024727  0  0  -0.012691  -0.097259  0  3.984225  0
C  C33  1  0.59698015  0.24319245  0.63350342  1  0  -0.133054  0  3.758975  0  0  -0.106477  0  4.000222  0  0  -0.121519  0  4.024703  0  0  -0.012651  -0.0971  0  3.984187  0
C  C34  1  0.32691277  0.68778313  0.43648848  1  0  0.135875  0  3.631885  0  0  0.090119  0  3.880969  0  0  0.101246  0  3.896851  0  0  0.061521  0.08304  0  3.870183  0
C  C35  1  0.67308701  0.31222101  0.56351201  1  0  0.135864  0  3.631825  0  0  0.090085  0  3.880951  0  0  0.101209  0  3.896829  0  0  0.061561  0.083022  0  3.870143  0
C  C36  1  0.49846166  0.36490191  0.21703372  1  0  0.703467  0  3.873211  0  0  0.650689  0  4.170521  0  0  0.686055  0  4.160454  0  0  0.232793  0.626701  0  4.173475  0
C  C37  1  0.50153494  0.63509853  0.78296686  1  0  0.703439  0  3.873302  0  0  0.650688  0  4.17058  0  0  0.686055  0  4.160513  0  0  0.232788  0.626694  0  4.173539  0
C  C38  1  0.40467275  0.93789195  0.36198203  1  0  0.663721  0  3.835962  0  0  0.612926  0  4.132557  0  0  0.6463  0  4.126212  0  0  0.232594  0.590299  0  4.136419  0
C  C39  1  0.59532874  0.06211463  0.63802165  1  0  0.663681  0  3.835863  0  0  0.612899  0  4.132445  0  0  0.646277  0  4.126097  0  0  0.232638  0.590277  0  4.136298  0
C  C40  1  0.95618436  0.67073069  0.28897866  1  0  0.12646  0  3.662259  0  0  0.080468  0  3.912792  0  0  0.091644  0  3.928802  0  0  0.056612  0.073822  0  3.900731  0
C  C41  1  0.04381375  0.32927098  0.71102217  1  0  0.126451  0  3.66224  0  0  0.080458  0  3.912764  0  0  0.091631  0  3.928776  0  0  0.056602  0.073811  0  3.900708  0
C  C42  1  0.00488217  0.75561269  0.21769169  1  0  -0.12486  0  3.73341  0  0  -0.097251  0  3.968589  0  0  -0.111969  0  3.991391  0  0  -0.009873  -0.088432  0  3.954562  0
C  C43  1  0.99511528  0.24438403  0.78230794  1  0  -0.124827  0  3.733493  0  0  -0.097198  0  3.968671  0  0  -0.111915  0  3.991475  0  0  -0.009849  -0.088379  0  3.954647  0
C  C44  1  0.98834502  0.92478939  0.22549114  1  0  0.018609  0  3.621522  0  0  -0.024093  0  3.865786  0  0  -0.013661  0  3.87765  0  0  -0.045845  -0.030892  0  3.859102  0
C  C45  1  0.01165275  0.07520981  0.77450804  1  0  0.018581  0  3.621568  0  0  -0.024134  0  3.865835  0  0  -0.013702  0  3.877699  0  0  -0.045849  -0.030932  0  3.85915  0
C  C46  1  0.92415612  0.00483376  0.30396160  1  0  -0.103782  0  3.699898  0  0  -0.075196  0  3.933305  0  0  -0.08918  0  3.955844  0  0  -0.006768  -0.066752  0  3.919244  0
C  C47  1  0.07584449  0.99516667  0.69603654  1  0  -0.103725  0  3.699921  0  0  -0.075132  0  3.933332  0  0  -0.089115  0  3.955871  0  0  -0.006766  -0.06668  0  3.919269  0
C  C48  1  0.88300012  0.91211302  0.37392979  1  0  0.139406  0  3.627079  0  0  0.093946  0  3.875494  0  0  0.105096  0  3.892022  0  0  0.061428  0.086796  0  3.864419  0
C  C49  1  0.11700084  0.08788987  0.62607070  1  0  0.139326  0  3.627248  0  0  0.093841  0  3.875672  0  0  0.104992  0  3.8922  0  0  0.061377  0.086691  0  3.864587  0
C  C50  1  0.07233503  0.66581740  0.13428165  1  0  0.719217  0  3.870665  0  0  0.670089  0  4.163916  0  0  0.70567  0  4.154009  0  0  0.23587  0.645685  0  4.164687  0
C  C51  1  0.92766604  0.33418677  0.86571474  1  0  0.719135  0  3.870514  0  0  0.669962  0  4.163841  0  0  0.705543  0  4.153936  0  0  0.235777  0.645567  0  4.164602  0
C  C52  1  0.43438930  0.06031507  0.98056011  1  0  0.582918  0  3.89885  0  0  0.532189  0  4.212333  0  0  0.563424  0  4.199764  0  0  0.228564  0.51129  0  4.212862  0
C  C53  1  0.56559342  0.93965202  0.01943420  1  0  0.582674  0  3.899308  0  0  0.531887  0  4.212918  0  0  0.563103  0  4.20038  0  0  0.228494  0.511017  0  4.213399  0
C  C54  1  0.90110410  0.18736578  0.31202136  1  0  0.701386  0  3.87967  0  0  0.651197  0  4.174796  0  0  0.686396  0  4.166289  0  0  0.218449  0.626851  0  4.1783  0
C  C55  1  0.09889793  0.81263459  0.68798183  1  0  0.701411  0  3.879759  0  0  0.651227  0  4.174895  0  0  0.686429  0  4.166384  0  0  0.218457  0.626884  0  4.178393  0
N  N56  1  0.30162163  0.52258950  0.43390151  1  0  -0.298551  0  3.344649  0  0  -0.204659  0  3.627437  0  0  -0.227203  0  3.644732  0  0  -0.347986  -0.189635  0  3.615431  0
N  N57  1  0.69838051  0.47741215  0.56609828  1  0  -0.298567  0  3.344651  0  0  -0.204676  0  3.627453  0  0  -0.227217  0  3.644738  0  0  -0.348023  -0.189657  0  3.615447  0
N  N58  1  0.89832140  0.74789871  0.36628444  1  0  -0.303781  0  3.340933  0  0  -0.206257  0  3.62055  0  0  -0.229756  0  3.638727  0  0  -0.34914  -0.190658  0  3.608048  0
N  N59  1  0.10167924  0.25210170  0.63371581  1  0  -0.303739  0  3.340956  0  0  -0.206204  0  3.620564  0  0  -0.229701  0  3.638741  0  0  -0.349101  -0.190606  0  3.608068  0
O  O60  1  0.42482613  0.21482332  0.19841006  1  0  -0.658771  0  2.002967  0  0  -0.60037  0  2.22648  0  0  -0.624624  0  2.213062  0  0  -0.30993  -0.582827  0  2.233719  0
O  O61  1  0.57517363  0.78518084  0.80158832  1  0  -0.658834  0  2.002897  0  0  -0.600408  0  2.226344  0  0  -0.624663  0  2.212924  0  0  -0.309965  -0.582848  0  2.233568  0
O  O62  1  0.71705278  0.53225379  0.01031083  1  0  -0.925224  0  1.886029  0  0  -0.883646  0  2.078025  0  0  -0.901513  0  2.04455  0  0  -0.647702  -0.861683  0  2.107234  0
O  O63  1  0.28294839  0.46774041  0.98968893  1  0  -0.925308  0  1.88598  0  0  -0.883726  0  2.077998  0  0  -0.901594  0  2.044517  0  0  -0.647723  -0.861762  0  2.107213  0
O  O64  1  0.61764613  0.42346298  0.17510640  1  0  -0.695662  0  2.045846  0  0  -0.654845  0  2.301804  0  0  -0.681198  0  2.2923  0  0  -0.37611  -0.626119  0  2.30918  0
O  O65  1  0.38235902  0.57654113  0.82489318  1  0  -0.695557  0  2.045997  0  0  -0.654755  0  2.30194  0  0  -0.681105  0  2.292434  0  0  -0.376047  -0.626025  0  2.309319  0
O  O66  1  0.09175982  0.17047236  0.07573047  1  0  -0.901769  0  1.902263  0  0  -0.859376  0  2.093748  0  0  -0.877243  0  2.062902  0  0  -0.632597  -0.837917  0  2.120287  0
O  O67  1  0.90823947  0.82952807  0.92426965  1  0  -0.901877  0  1.902331  0  0  -0.859477  0  2.093726  0  0  -0.877345  0  2.062877  0  0  -0.632663  -0.838036  0  2.120305  0
O  O68  1  0.47877728  0.97440655  0.28842259  1  0  -0.552436  0  2.117253  0  0  -0.498455  0  2.333071  0  0  -0.522114  0  2.317768  0  0  -0.325796  -0.482043  0  2.343471  0
O  O69  1  0.52122218  0.02559511  0.71157766  1  0  -0.552313  0  2.117382  0  0  -0.498354  0  2.333178  0  0  -0.522012  0  2.317876  0  0  -0.325779  -0.481948  0  2.343582  0
O  O70  1  0.33858285  0.03563386  0.41655424  1  0  -0.561791  0  1.930988  0  0  -0.520494  0  2.156016  0  0  -0.543167  0  2.150096  0  0  -0.287342  -0.504959  0  2.159839  0
O  O71  1  0.66143142  0.96436768  0.58344596  1  0  -0.561913  0  1.930685  0  0  -0.520629  0  2.155733  0  0  -0.543303  0  2.14981  0  0  -0.28741  -0.505092  0  2.159554  0
O  O72  1  0.06012951  0.50704396  0.12340720  1  0  -0.765413  0  2.081675  0  0  -0.715567  0  2.332544  0  0  -0.742201  0  2.321061  0  0  -0.392745  -0.686287  0  2.34025  0
O  O73  1  0.93986762  0.49295027  0.87659289  1  0  -0.765413  0  2.081935  0  0  -0.715534  0  2.332803  0  0  -0.742164  0  2.321316  0  0  -0.392745  -0.68626  0  2.340508  0
O  O74  1  0.49911996  0.20961728  0.98806569  1  0  -0.648741  0  2.080373  0  0  -0.603369  0  2.316596  0  0  -0.626889  0  2.30596  0  0  -0.334229  -0.578764  0  2.325413  0
O  O75  1  0.50089113  0.79039046  0.01193828  1  0  -0.648317  0  2.081238  0  0  -0.602973  0  2.317518  0  0  -0.626478  0  2.306893  0  0  -0.334031  -0.57839  0  2.32632  0
O  O76  1  0.13882288  0.75117104  0.07913685  1  0  -0.693846  0  2.018212  0  0  -0.65101  0  2.266397  0  0  -0.675946  0  2.255656  0  0  -0.380719  -0.623856  0  2.276382  0
O  O77  1  0.86117430  0.24882316  0.92086677  1  0  -0.693805  0  2.017753  0  0  -0.650972  0  2.265973  0  0  -0.675913  0  2.255238  0  0  -0.380674  -0.623821  0  2.275955  0
O  O78  1  0.87354194  0.26294747  0.39076159  1  0  -0.648069  0  1.973101  0  0  -0.591604  0  2.234298  0  0  -0.617106  0  2.220426  0  0  -0.324482  -0.574169  0  2.244248  0
O  O79  1  0.12646373  0.73705045  0.60923610  1  0  -0.648136  0  1.973007  0  0  -0.591688  0  2.234223  0  0  -0.617192  0  2.220348  0  0  -0.32453  -0.57425  0  2.244171  0
O  O80  1  0.27140478  0.99898676  0.94521575  1  0  -0.680932  0  2.087005  0  0  -0.636433  0  2.333554  0  0  -0.660988  0  2.323324  0  0  -0.357522  -0.610007  0  2.341718  0
O  O81  1  0.72861557  0.00100978  0.05478317  1  0  -0.680994  0  2.08647  0  0  -0.636486  0  2.333034  0  0  -0.661048  0  2.322823  0  0  -0.35754  -0.610052  0  2.34117  0
O  O82  1  0.91409689  0.25323572  0.23652529  1  0  -0.767733  0  2.053235  0  0  -0.722191  0  2.31316  0  0  -0.749044  0  2.302097  0  0  -0.423771  -0.691773  0  2.322928  0
O  O83  1  0.08590253  0.74676597  0.76347214  1  0  -0.76767  0  2.053417  0  0  -0.722125  0  2.313354  0  0  -0.748976  0  2.302291  0  0  -0.42368  -0.691712  0  2.323125  0
