# generated using pymatgen
data_Cd2H32C41(NO3)4
_symmetry_space_group_name_H-M   'P 1'
_cell_length_a   14.04735394
_cell_length_b   20.42381119
_cell_length_c   20.42375289
_cell_angle_alpha   62.74511778
_cell_angle_beta   72.18105755
_cell_angle_gamma   72.18075583
_symmetry_Int_Tables_number   1
_chemical_formula_structural   Cd2H32C41(NO3)4
_chemical_formula_sum   'Cd8 H128 C164 N16 O48'
_cell_volume   4862.97161364
_cell_formula_units_Z   4
loop_
 _symmetry_equiv_pos_site_id
 _symmetry_equiv_pos_as_xyz
  1  'x, y, z'
loop_
 _atom_site_type_symbol
 _atom_site_label
 _atom_site_symmetry_multiplicity
 _atom_site_fract_x
 _atom_site_fract_y
 _atom_site_fract_z
 _atom_site_occupancy
 _atom_site_pbe_bader_charge
 _atom_site_pbe_bader_spin_density
 _atom_site_pbe_cm5_charge
 _atom_site_pbe_ddec_charge
 _atom_site_pbe_ddec_spin_density
 _atom_site_pbe_ddec_sum_bond_order
 _atom_site_pbe_magmom
Cd  Cd0  1  0.01907045  0.91588838  0.29371964  1  1.280914  0  0.770878  0.87701  0  2.194131  0
Cd  Cd1  1  0.48092793  0.70627505  0.08411288  1  1.280937  0  0.770895  0.876955  0  2.194274  0
Cd  Cd2  1  0.98090690  0.08412078  0.70627488  1  1.280792  0  0.770896  0.877025  0  2.194117  0
Cd  Cd3  1  0.51907419  0.29372229  0.91587784  1  1.280987  0  0.770875  0.876995  0  2.19417  0
Cd  Cd4  1  0.81204737  0.78887493  0.41110127  1  1.283633  0  0.770174  0.884319  0  2.18231  0
Cd  Cd5  1  0.68795832  0.58889302  0.21112665  1  1.283635  0  0.770161  0.884308  0  2.182296  0
Cd  Cd6  1  0.18796342  0.21112695  0.58889624  1  1.283565  0  0.77013  0.884302  0  2.182213  0
Cd  Cd7  1  0.31205605  0.41111223  0.78886804  1  1.283592  0  0.770151  0.884329  0  2.182292  0
H  H8  1  0.28909611  0.57169918  0.79340977  1  0.126615  0  0.1219  0.09733  0  0.979028  0
H  H9  1  0.21089604  0.20659127  0.42830089  1  0.126362  0  0.121908  0.09733  0  0.979057  0
H  H10  1  0.71089249  0.42830437  0.20658688  1  0.126423  0  0.121896  0.097305  0  0.979075  0
H  H11  1  0.78909891  0.79340838  0.57170256  1  0.126385  0  0.121938  0.0974  0  0.979115  0
H  H12  1  0.19677254  0.64604739  0.87094094  1  0.095597  0  0.114178  0.136124  0  0.988571  0
H  H13  1  0.30322128  0.12906276  0.35395223  1  0.095645  0  0.114212  0.136166  0  0.9885  0
H  H14  1  0.80322374  0.35395282  0.12906049  1  0.095621  0  0.114193  0.136125  0  0.988552  0
H  H15  1  0.69676948  0.87093857  0.64605085  1  0.095536  0  0.114188  0.136128  0  0.988523  0
H  H16  1  0.07534936  0.44944331  0.03704797  1  0.075668  0  0.113155  0.134492  0  0.992456  0
H  H17  1  0.42465363  0.96295010  0.55055395  1  0.075552  0  0.113165  0.134498  0  0.992502  0
H  H18  1  0.92465379  0.55055633  0.96295175  1  0.075708  0  0.113165  0.134493  0  0.992459  0
H  H19  1  0.57534921  0.03705065  0.44944434  1  0.07564  0  0.113148  0.134415  0  0.992534  0
H  H20  1  0.17105441  0.38438160  0.95167417  1  0.096266  0  0.117308  0.089376  0  1.011012  0
H  H21  1  0.32894837  0.04832550  0.61561477  1  0.096355  0  0.117302  0.08936  0  1.010961  0
H  H22  1  0.82894890  0.61561748  0.04832578  1  0.096265  0  0.117297  0.089389  0  1.011001  0
H  H23  1  0.67105672  0.95167525  0.38438304  1  0.096341  0  0.117315  0.089399  0  1.010935  0
H  H24  1  0.04658975  0.69184701  0.00555677  1  0.096109  0  0.110994  0.092074  0  0.997986  0
H  H25  1  0.45341153  0.99443811  0.30815159  1  0.096089  0  0.110967  0.092053  0  0.99798  0
H  H26  1  0.95341261  0.30815261  0.99443970  1  0.096074  0  0.110979  0.092046  0  0.997955  0
H  H27  1  0.54659264  0.00555758  0.69184778  1  0.096128  0  0.111002  0.092084  0  0.997978  0
H  H28  1  0.17631639  0.65460582  0.97408659  1  0.07025  0  0.110688  0.081617  0  1.001579  0
H  H29  1  0.32368149  0.02591191  0.34539152  1  0.070257  0  0.110685  0.081642  0  1.001546  0
H  H30  1  0.82368361  0.34539437  0.02591209  1  0.070258  0  0.110698  0.081632  0  1.001563  0
H  H31  1  0.67631653  0.97408714  0.65460566  1  0.070248  0  0.110685  0.08163  0  1.001561  0
H  H32  1  0.22479391  0.51333940  0.16641311  1  0.09722  0  0.111437  0.091722  0  0.980628  0
H  H33  1  0.27520759  0.83358526  0.48666245  1  0.097183  0  0.111448  0.091728  0  0.980592  0
H  H34  1  0.77520950  0.48666190  0.83358284  1  0.097145  0  0.111408  0.091691  0  0.980632  0
H  H35  1  0.72479541  0.16641213  0.51333834  1  0.096986  0  0.111413  0.091682  0  0.98063  0
H  H36  1  0.16641785  0.49361642  0.11246557  1  0.052599  0  0.107535  0.073273  0  1.008924  0
H  H37  1  0.33358103  0.88753392  0.50638237  1  0.052651  0  0.107556  0.073247  0  1.008963  0
H  H38  1  0.83357843  0.50638659  0.88753407  1  0.052561  0  0.10754  0.073236  0  1.008996  0
H  H39  1  0.66641714  0.11246738  0.49361325  1  0.052522  0  0.107567  0.07326  0  1.008955  0
H  H40  1  0.42592668  0.56335785  0.93188911  1  0.115546  0  0.11666  0.139462  0  0.974425  0
H  H41  1  0.07406869  0.06810860  0.43664406  1  0.115647  0  0.11667  0.13949  0  0.974401  0
H  H42  1  0.57407059  0.43664121  0.06810823  1  0.115539  0  0.116644  0.139435  0  0.97447  0
H  H43  1  0.92592995  0.93189103  0.56335468  1  0.11564  0  0.116672  0.139472  0  0.974434  0
H  H44  1  0.51953908  0.46409697  0.88297316  1  0.112234  0  0.117479  0.089153  0  1.004117  0
H  H45  1  0.98045762  0.11702839  0.53590584  1  0.11217  0  0.117472  0.08912  0  1.004178  0
H  H46  1  0.48045676  0.53589930  0.11703117  1  0.112096  0  0.117496  0.089198  0  1.004081  0
H  H47  1  0.01954375  0.88296957  0.46409602  1  0.112116  0  0.117467  0.089108  0  1.004119  0
H  H48  1  0.37857102  0.30186486  0.06742188  1  0.120928  0  0.121284  0.097141  0  0.983184  0
H  H49  1  0.12143253  0.93257686  0.69813702  1  0.12106  0  0.121266  0.097102  0  0.983198  0
H  H50  1  0.62143109  0.69813309  0.93257934  1  0.120972  0  0.121291  0.097198  0  0.983182  0
H  H51  1  0.87857288  0.06742278  0.30186368  1  0.120903  0  0.121282  0.097138  0  0.983163  0
H  H52  1  0.28104174  0.39282084  0.12592650  1  0.078327  0  0.112842  0.13382  0  0.9967  0
H  H53  1  0.21896002  0.87407157  0.60718131  1  0.079075  0  0.112813  0.133778  0  0.996702  0
H  H54  1  0.71896033  0.60717709  0.87407131  1  0.07829  0  0.112873  0.133816  0  0.996663  0
H  H55  1  0.78104314  0.12592807  0.39281938  1  0.078391  0  0.112867  0.133833  0  0.996682  0
H  H56  1  0.19626110  0.64371720  0.15343186  1  0.111714  0  0.107888  0.081434  0  1.051269  0
H  H57  1  0.30374199  0.84656829  0.35628049  1  0.111537  0  0.107921  0.08145  0  1.051293  0
H  H58  1  0.80375090  0.35628301  0.84656715  1  0.111574  0  0.107931  0.081422  0  1.051336  0
H  H59  1  0.69625545  0.15343583  0.64371545  1  0.111788  0  0.107901  0.081398  0  1.051326  0
H  H60  1  0.24794888  0.67628876  0.05589166  1  0.116208  0  0.112475  0.108715  0  0.98434  0
H  H61  1  0.25205015  0.94410865  0.32370986  1  0.11597  0  0.112492  0.108744  0  0.98425  0
H  H62  1  0.75206322  0.32370805  0.94410547  1  0.116546  0  0.112471  0.108631  0  0.984461  0
H  H63  1  0.74794760  0.05589435  0.67628849  1  0.116121  0  0.112476  0.108723  0  0.984337  0
H  H64  1  0.98513128  0.86617729  0.06350777  1  0.082671  0  0.11308  0.136293  0  0.998531  0
H  H65  1  0.51487214  0.93649267  0.13381934  1  0.082623  0  0.113103  0.136295  0  0.998554  0
H  H66  1  0.01487563  0.13382235  0.93649261  1  0.082495  0  0.113139  0.136393  0  0.998558  0
H  H67  1  0.48513280  0.06350583  0.86617953  1  0.08274  0  0.113066  0.136264  0  0.998559  0
H  H68  1  0.95240135  0.93645317  0.14389679  1  0.084553  0  0.117635  0.090379  0  0.999511  0
H  H69  1  0.54760479  0.85610061  0.06354748  1  0.084646  0  0.11763  0.090405  0  0.999475  0
H  H70  1  0.04759837  0.06354535  0.85610516  1  0.084491  0  0.117616  0.09035  0  0.999497  0
H  H71  1  0.45239867  0.14389510  0.93645546  1  0.084657  0  0.117625  0.090363  0  0.999483  0
H  H72  1  0.16017094  0.77577331  0.27206328  1  0.082469  0  0.114302  0.083667  0  1.019087  0
H  H73  1  0.33983599  0.72793751  0.22422328  1  0.082895  0  0.114292  0.083651  0  1.019104  0
H  H74  1  0.83983221  0.22422632  0.72793644  1  0.082487  0  0.114314  0.083677  0  1.019075  0
H  H75  1  0.66016490  0.27206493  0.77577465  1  0.082852  0  0.114318  0.083699  0  1.019074  0
H  H76  1  0.21019516  0.70268583  0.19431718  1  0.123692  0  0.110188  0.139137  0  1.049543  0
H  H77  1  0.28981171  0.80568401  0.29731110  1  0.123779  0  0.11016  0.139072  0  1.049665  0
H  H78  1  0.78981130  0.29731269  0.80568381  1  0.123787  0  0.110172  0.139096  0  1.049567  0
H  H79  1  0.71019024  0.19431730  0.70268761  1  0.123757  0  0.110169  0.139078  0  1.049565  0
H  H80  1  0.96992361  0.64788818  0.13779836  1  0.081698  0  0.109712  0.085704  0  1.046181  0
H  H81  1  0.53007616  0.86219799  0.35211586  1  0.081785  0  0.10972  0.085667  0  1.046224  0
H  H82  1  0.03007641  0.35211763  0.86219966  1  0.081745  0  0.109715  0.085685  0  1.046273  0
H  H83  1  0.46992443  0.13779995  0.64788421  1  0.081783  0  0.109723  0.085685  0  1.046222  0
H  H84  1  0.00122324  0.55094616  0.15848979  1  0.094384  0  0.112468  0.099806  0  0.965077  0
H  H85  1  0.49877296  0.84150613  0.44905601  1  0.093993  0  0.112482  0.0998  0  0.965043  0
H  H86  1  0.99877542  0.44905628  0.84150862  1  0.094373  0  0.112474  0.099783  0  0.965117  0
H  H87  1  0.50122612  0.15849181  0.55094341  1  0.094389  0  0.112457  0.099756  0  0.965028  0
H  H88  1  0.87875318  0.69433066  0.19638592  1  0.118803  0  0.109917  0.139876  0  1.055079  0
H  H89  1  0.62124006  0.80361338  0.30566779  1  0.119032  0  0.109908  0.139789  0  1.055214  0
H  H90  1  0.12123667  0.30566842  0.80361743  1  0.118952  0  0.109896  0.139842  0  1.055154  0
H  H91  1  0.37875525  0.19638736  0.69432773  1  0.118977  0  0.109903  0.139849  0  1.055118  0
H  H92  1  0.80599010  0.77170812  0.27019892  1  0.111861  0  0.114053  0.08488  0  1.021972  0
H  H93  1  0.69400564  0.72980385  0.22828955  1  0.112009  0  0.11406  0.084882  0  1.021963  0
H  H94  1  0.19400145  0.22828761  0.72981050  1  0.112272  0  0.114075  0.084828  0  1.022176  0
H  H95  1  0.30599311  0.27019801  0.77170471  1  0.111909  0  0.114042  0.08486  0  1.022046  0
H  H96  1  0.99488311  0.63905141  0.42351971  1  0.121043  0  0.118303  0.09041  0  0.99125  0
H  H97  1  0.50511884  0.57648216  0.36094532  1  0.12104  0  0.118285  0.090366  0  0.9913  0
H  H98  1  0.00511928  0.36095103  0.57647741  1  0.120997  0  0.118293  0.090396  0  0.991205  0
H  H99  1  0.49487934  0.42352195  0.63904997  1  0.12098  0  0.118306  0.09041  0  0.991261  0
H  H100  1  0.08363028  0.55757644  0.35283384  1  0.115834  0  0.111996  0.134976  0  1.009318  0
H  H101  1  0.41636954  0.64716250  0.44242592  1  0.115818  0  0.111962  0.134958  0  1.009339  0
H  H102  1  0.91637228  0.44242826  0.64716416  1  0.115875  0  0.111987  0.134974  0  1.009323  0
H  H103  1  0.58362447  0.35283489  0.55757584  1  0.115938  0  0.111976  0.134949  0  1.00929  0
H  H104  1  0.25468776  0.74309267  0.45376847  1  0.089658  0  0.094709  0.089678  0  1.061223  0
H  H105  1  0.24530927  0.54622889  0.25691090  1  0.08971  0  0.09466  0.08961  0  1.061247  0
H  H106  1  0.74530731  0.25690641  0.54623277  1  0.089582  0  0.094674  0.089617  0  1.061178  0
H  H107  1  0.75469091  0.45376795  0.74309272  1  0.089634  0  0.094689  0.089651  0  1.061193  0
H  H108  1  0.31677959  0.63844678  0.56807360  1  0.084246  0  0.101531  0.107478  0  1.012868  0
H  H109  1  0.18322206  0.43192112  0.36155308  1  0.084268  0  0.1015  0.107467  0  1.012924  0
H  H110  1  0.68322231  0.36154890  0.43192382  1  0.084211  0  0.101483  0.107451  0  1.01293  0
H  H111  1  0.81678092  0.56807346  0.63844804  1  0.084245  0  0.101505  0.107452  0  1.012872  0
H  H112  1  0.03032491  0.56737769  0.64641257  1  0.071342  0  0.101183  0.108825  0  1.008347  0
H  H113  1  0.46967927  0.35358634  0.43262316  1  0.07127  0  0.101164  0.108809  0  1.008258  0
H  H114  1  0.96967912  0.43262138  0.35358575  1  0.071138  0  0.101169  0.108791  0  1.008328  0
H  H115  1  0.53032316  0.64641330  0.56737867  1  0.07134  0  0.101188  0.108822  0  1.008332  0
H  H116  1  0.96446780  0.67462725  0.53536410  1  0.114836  0  0.100603  0.117907  0  1.056127  0
H  H117  1  0.53553301  0.46463690  0.32537124  1  0.11485  0  0.100606  0.117943  0  1.056054  0
H  H118  1  0.03553089  0.32537240  0.46463805  1  0.114832  0  0.1006  0.117904  0  1.056056  0
H  H119  1  0.46446416  0.53536554  0.67462798  1  0.114852  0  0.100586  0.117896  0  1.056061  0
H  H120  1  0.59056035  0.94513887  0.23343932  1  0.085568  0  0.09652  0.09145  0  1.055705  0
H  H121  1  0.90943411  0.76656098  0.05486166  1  0.085521  0  0.09652  0.091502  0  1.055693  0
H  H122  1  0.40943754  0.05486076  0.76655909  1  0.085504  0  0.096506  0.091438  0  1.055734  0
H  H123  1  0.09056519  0.23344204  0.94513977  1  0.085447  0  0.096541  0.09151  0  1.055705  0
H  H124  1  0.51473267  0.06156876  0.13320163  1  0.096684  0  0.10145  0.107068  0  1.011753  0
H  H125  1  0.98526205  0.86680067  0.93843319  1  0.096735  0  0.101475  0.107124  0  1.011712  0
H  H126  1  0.48525986  0.93843425  0.86679883  1  0.096669  0  0.101425  0.107063  0  1.011732  0
H  H127  1  0.01473875  0.13320235  0.06156889  1  0.096794  0  0.101449  0.107077  0  1.011746  0
H  H128  1  0.77837582  0.15464637  0.07790174  1  0.119351  0  0.100903  0.107552  0  1.005362  0
H  H129  1  0.72163022  0.92209575  0.84535307  1  0.119421  0  0.100894  0.10753  0  1.005467  0
H  H130  1  0.22162172  0.84535497  0.92210378  1  0.119328  0  0.100901  0.107547  0  1.005404  0
H  H131  1  0.27837857  0.07789937  0.15464458  1  0.119327  0  0.100899  0.107525  0  1.00538  0
H  H132  1  0.85054217  0.04206746  0.18253660  1  0.145423  0  0.100746  0.117897  0  1.057423  0
H  H133  1  0.64946088  0.81746073  0.95792883  1  0.145383  0  0.100761  0.117904  0  1.057397  0
H  H134  1  0.14946012  0.95793275  0.81746549  1  0.14547  0  0.100738  0.11787  0  1.057427  0
H  H135  1  0.35054669  0.18253326  0.04206716  1  0.145275  0  0.100741  0.117819  0  1.057512  0
C  C136  1  0.24114243  0.54667832  0.84819253  1  0.51655  0  0.051114  0.11941  0  3.964099  0
C  C137  1  0.25885234  0.15180672  0.45332235  1  0.51626  0  0.051103  0.119445  0  3.964056  0
C  C138  1  0.75885187  0.45332355  0.15180562  1  0.516141  0  0.051097  0.119415  0  3.964132  0
C  C139  1  0.74114664  0.84819180  0.54668025  1  0.516221  0  0.051063  0.11926  0  3.964288  0
C  C140  1  0.18936055  0.58795980  0.89167034  1  -0.04561  0  -0.105324  -0.27204  0  3.978663  0
C  C141  1  0.31063773  0.10832680  0.41204242  1  -0.045006  0  -0.105343  -0.272111  0  3.978457  0
C  C142  1  0.81063570  0.41204320  0.10832784  1  -0.044995  0  -0.10534  -0.27205  0  3.978654  0
C  C143  1  0.68936304  0.89167340  0.58795853  1  -0.044984  0  -0.105341  -0.272012  0  3.9786  0
C  C144  1  0.12822258  0.55274610  0.96122041  1  0.46471  0  0.098587  0.290376  0  4.080373  0
C  C145  1  0.37177972  0.03877646  0.44725355  1  0.464808  0  0.098628  0.290503  0  4.080081  0
C  C146  1  0.87177802  0.44725466  0.03877836  1  0.464748  0  0.098549  0.290396  0  4.080349  0
C  C147  1  0.62822403  0.96122373  0.55274578  1  0.464933  0  0.098602  0.290403  0  4.080167  0
C  C148  1  0.12180941  0.47820732  0.98323503  1  0.010996  0  -0.101567  -0.259234  0  4.002765  0
C  C149  1  0.37819298  0.01676302  0.52179186  1  0.011283  0  -0.101569  -0.259206  0  4.002874  0
C  C150  1  0.87818954  0.52179399  0.01676336  1  0.010953  0  -0.101541  -0.259145  0  4.002752  0
C  C151  1  0.62181271  0.98323830  0.47820653  1  0.010824  0  -0.101606  -0.259113  0  4.002775  0
C  C152  1  0.17549030  0.44214093  0.93586324  1  0.481429  0  0.04826  0.120054  0  3.964131  0
C  C153  1  0.32450878  0.06413640  0.55785637  1  0.481175  0  0.048342  0.12011  0  3.964212  0
C  C154  1  0.82450596  0.55785926  0.06413673  1  0.481473  0  0.048234  0.11993  0  3.964305  0
C  C155  1  0.67549362  0.93586323  0.44214302  1  0.481543  0  0.048272  0.119963  0  3.964181  0
C  C156  1  0.10648099  0.64102683  0.01582957  1  0.370929  0  -0.059275  -0.026867  0  3.819972  0
C  C157  1  0.39351846  0.98416738  0.35897286  1  0.371041  0  -0.059233  -0.026877  0  3.820004  0
C  C158  1  0.89351914  0.35897279  0.98416836  1  0.370983  0  -0.05922  -0.02672  0  3.819897  0
C  C159  1  0.60648184  0.01583169  0.64102676  1  0.37071  0  -0.059267  -0.026859  0  3.820101  0
C  C160  1  0.12893523  0.61025050  0.09501327  1  0.060408  0  -0.023577  0.033962  0  3.830813  0
C  C161  1  0.37106502  0.90498240  0.38975203  1  0.060331  0  -0.02364  0.033875  0  3.830908  0
C  C162  1  0.87106912  0.38975306  0.90498388  1  0.060399  0  -0.023613  0.033828  0  3.830739  0
C  C163  1  0.62893512  0.09501442  0.61024769  1  0.060377  0  -0.023608  0.033883  0  3.830883  0
C  C164  1  0.20339802  0.53432126  0.11171576  1  0.379184  0  -0.057717  -0.025327  0  3.824913  0
C  C165  1  0.29660157  0.88828133  0.46567953  1  0.379042  0  -0.057737  -0.025232  0  3.824742  0
C  C166  1  0.79660196  0.46568173  0.88828113  1  0.37912  0  -0.057696  -0.025235  0  3.824849  0
C  C167  1  0.70339988  0.11171604  0.53431769  1  0.379256  0  -0.057737  -0.025335  0  3.82491  0
C  C168  1  0.34408439  0.48663979  0.03166074  1  0.425893  0  0.1003  0.29207  0  4.083406  0
C  C169  1  0.15591362  0.96833901  0.51336248  1  0.425962  0  0.100241  0.29194  0  4.083429  0
C  C170  1  0.65591386  0.51336155  0.96834219  1  0.425751  0  0.100278  0.29199  0  4.083328  0
C  C171  1  0.84409115  0.03166005  0.48663519  1  0.425833  0  0.100231  0.292015  0  4.083545  0
C  C172  1  0.41403155  0.50577499  0.96317208  1  0.044261  0  -0.098049  -0.252157  0  3.998364  0
C  C173  1  0.08596539  0.03683017  0.49422748  1  0.044282  0  -0.098042  -0.252181  0  3.998335  0
C  C174  1  0.58596987  0.49422299  0.03683417  1  0.04435  0  -0.098043  -0.252073  0  3.998265  0
C  C175  1  0.91403551  0.96316946  0.50577175  1  0.044281  0  -0.098076  -0.25223  0  3.998408  0
C  C176  1  0.46533204  0.45082990  0.93621890  1  0.461604  0  0.045721  0.116088  0  3.972931  0
C  C177  1  0.03466199  0.06378139  0.54917490  1  0.461604  0  0.045748  0.116137  0  3.972943  0
C  C178  1  0.53466427  0.54917031  0.06378497  1  0.461709  0  0.045728  0.116  0  3.97281  0
C  C179  1  0.96533938  0.93621657  0.45082648  1  0.461622  0  0.045765  0.11618  0  3.972937  0
C  C180  1  0.38672750  0.36054915  0.03932719  1  0.496936  0  0.049917  0.119405  0  3.964966  0
C  C181  1  0.11327304  0.96067251  0.63945372  1  0.496726  0  0.049948  0.119381  0  3.96507  0
C  C182  1  0.61327072  0.63944936  0.96067412  1  0.496801  0  0.049789  0.119174  0  3.965078  0
C  C183  1  0.88672684  0.03932545  0.36054895  1  0.496714  0  0.049909  0.11934  0  3.96495  0
C  C184  1  0.33206351  0.41168393  0.07157889  1  0.014352  0  -0.107761  -0.278305  0  3.987332  0
C  C185  1  0.16793417  0.92841856  0.58831850  1  0.013575  0  -0.107702  -0.27819  0  3.98727  0
C  C186  1  0.66793407  0.58831682  0.92841907  1  0.014354  0  -0.107666  -0.278121  0  3.987297  0
C  C187  1  0.83206630  0.07157996  0.41168281  1  0.014275  0  -0.107729  -0.278249  0  3.987357  0
C  C188  1  0.17741436  0.66630637  0.09800331  1  0.357998  0  -0.064199  -0.036858  0  3.795675  0
C  C189  1  0.32258579  0.90199722  0.33369270  1  0.358481  0  -0.064207  -0.036892  0  3.795617  0
C  C190  1  0.82259776  0.33369327  0.90199447  1  0.35797  0  -0.064206  -0.03674  0  3.795673  0
C  C191  1  0.67741122  0.09800578  0.66630532  1  0.358131  0  -0.064201  -0.036792  0  3.795653  0
C  C192  1  0.09700504  0.77654028  0.12430894  1  0.462552  0  0.109363  0.315562  0  4.043246  0
C  C193  1  0.40299474  0.87569620  0.22345680  1  0.46271  0  0.109374  0.31559  0  4.043062  0
C  C194  1  0.90299980  0.22345881  0.87569410  1  0.462519  0  0.109385  0.315648  0  4.042985  0
C  C195  1  0.59700527  0.12430681  0.77654155  1  0.462226  0  0.109333  0.315522  0  4.043238  0
C  C196  1  0.02601010  0.84482702  0.10904640  1  0.004023  0  -0.098396  -0.255479  0  3.953483  0
C  C197  1  0.47399459  0.89095305  0.15517248  1  0.00459  0  -0.09841  -0.255477  0  3.953444  0
C  C198  1  0.97399606  0.15517262  0.89095365  1  0.004467  0  -0.098468  -0.255608  0  3.953478  0
C  C199  1  0.52600946  0.10904603  0.84482731  1  0.00425  0  -0.098384  -0.255424  0  3.953542  0
C  C200  1  0.00734807  0.88353204  0.15387751  1  0.495764  0  0.04373  0.112064  0  3.971283  0
C  C201  1  0.49265865  0.84611927  0.11646949  1  0.495368  0  0.043706  0.112012  0  3.971284  0
C  C202  1  0.99265449  0.11646704  0.84612309  1  0.495714  0  0.043738  0.112064  0  3.971172  0
C  C203  1  0.50734676  0.15387756  0.88353251  1  0.495635  0  0.043748  0.112068  0  3.971237  0
C  C204  1  0.12389562  0.79425408  0.22472069  1  0.528323  0  0.042877  0.113451  0  3.989152  0
C  C205  1  0.37610881  0.77528007  0.20574518  1  0.527874  0  0.042853  0.113379  0  3.98935  0
C  C206  1  0.87610739  0.20574612  0.77527929  1  0.528303  0  0.042876  0.113422  0  3.98912  0
C  C207  1  0.62389257  0.22472070  0.79425587  1  0.528266  0  0.042887  0.113408  0  3.989233  0
C  C208  1  0.14986039  0.75243850  0.18199776  1  -0.000841  0  -0.103517  -0.266065  0  3.960203  0
C  C209  1  0.35014065  0.81800640  0.24755820  1  -0.000848  0  -0.103512  -0.266012  0  3.960213  0
C  C210  1  0.85014787  0.24756170  0.81800206  1  -0.001044  0  -0.103532  -0.266082  0  3.960091  0
C  C211  1  0.64985530  0.18199772  0.75243952  1  -0.000818  0  -0.103504  -0.265988  0  3.960156  0
C  C212  1  0.02941884  0.59764218  0.15407063  1  0.388709  0  -0.058958  -0.026323  0  3.788017  0
C  C213  1  0.47057781  0.84592599  0.40235982  1  0.388911  0  -0.058938  -0.02611  0  3.787917  0
C  C214  1  0.97057979  0.40236306  0.84592453  1  0.388454  0  -0.058997  -0.026199  0  3.788138  0
C  C215  1  0.52942082  0.15407083  0.59763974  1  0.388616  0  -0.058931  -0.026063  0  3.787889  0
C  C216  1  0.99239290  0.62107946  0.26630276  1  0.4826  0  0.109963  0.318046  0  4.029199  0
C  C217  1  0.50760272  0.73369476  0.37892442  1  0.482394  0  0.109929  0.317925  0  4.029071  0
C  C218  1  0.00760336  0.37892073  0.73369721  1  0.482443  0  0.10995  0.318104  0  4.029206  0
C  C219  1  0.49239413  0.26630319  0.62107598  1  0.482576  0  0.109993  0.318116  0  4.02902  0
C  C220  1  0.91072938  0.68076767  0.24437292  1  0.046107  0  -0.103632  -0.263712  0  3.955486  0
C  C221  1  0.58926282  0.75562784  0.31923203  1  0.04587  0  -0.103569  -0.263491  0  3.955311  0
C  C222  1  0.08926020  0.31922974  0.75563371  1  0.045972  0  -0.103642  -0.263705  0  3.955588  0
C  C223  1  0.41073175  0.24437290  0.68076512  1  0.046302  0  -0.103631  -0.263712  0  3.955443  0
C  C224  1  0.86776828  0.72353045  0.28666095  1  0.424795  0  0.042676  0.114585  0  3.980709  0
C  C225  1  0.63222676  0.71334228  0.27646766  1  0.424847  0  0.042609  0.114482  0  3.98077  0
C  C226  1  0.13222402  0.27646528  0.71334831  1  0.424778  0  0.042661  0.114604  0  3.981055  0
C  C227  1  0.36776856  0.28666126  0.72352705  1  0.424448  0  0.042683  0.114615  0  3.980739  0
C  C228  1  0.97300065  0.65003501  0.37200989  1  0.476077  0  0.043277  0.111561  0  3.975485  0
C  C229  1  0.52699912  0.62799034  0.34996714  1  0.476042  0  0.043362  0.111737  0  3.975445  0
C  C230  1  0.02700146  0.34996575  0.62799003  1  0.475907  0  0.043289  0.111617  0  3.975497  0
C  C231  1  0.47299894  0.37201154  0.65003215  1  0.476005  0  0.043246  0.11154  0  3.975508  0
C  C232  1  0.02197143  0.60457924  0.33291874  1  -0.02856  0  -0.098451  -0.255786  0  3.951908  0
C  C233  1  0.47802360  0.66708141  0.39542140  1  -0.02848  0  -0.098485  -0.255833  0  3.952075  0
C  C234  1  0.97802992  0.39542152  0.66708036  1  -0.028542  0  -0.098403  -0.255783  0  3.952019  0
C  C235  1  0.52196802  0.33291935  0.60457882  1  -0.02862  0  -0.09843  -0.255755  0  3.951917  0
C  C236  1  0.07081046  0.77971887  0.41964262  1  1.536125  0  0.194099  0.554858  0  4.23582  0
C  C237  1  0.42918491  0.58035838  0.22028502  1  1.536022  0  0.193944  0.55484  0  4.235851  0
C  C238  1  0.92918639  0.22027908  0.58035777  1  1.536094  0  0.193998  0.554892  0  4.235851  0
C  C239  1  0.57080904  0.41964802  0.77971894  1  1.536071  0  0.194041  0.554831  0  4.235799  0
C  C240  1  0.10622837  0.71543951  0.48733705  1  0.000558  0  -0.026626  -0.039557  0  3.993591  0
C  C241  1  0.39376762  0.51266232  0.28456739  1  0.000287  0  -0.026614  -0.039541  0  3.993562  0
C  C242  1  0.89376820  0.28456237  0.51266305  1  0.000144  0  -0.026605  -0.039552  0  3.993597  0
C  C243  1  0.60623036  0.48734015  0.71543704  1  -0.000207  0  -0.026676  -0.039651  0  3.993612  0
C  C244  1  0.20547662  0.70501161  0.49674524  1  -0.161237  0  -0.097331  -0.115171  0  4.018564  0
C  C245  1  0.29451985  0.50325663  0.29499196  1  -0.16099  0  -0.097285  -0.115056  0  4.01848  0
C  C246  1  0.79452044  0.29498860  0.50325847  1  -0.160852  0  -0.097233  -0.115033  0  4.018445  0
C  C247  1  0.70547812  0.49674584  0.70501100  1  -0.16059  0  -0.09733  -0.115121  0  4.018569  0
C  C248  1  0.24024957  0.64689454  0.55959669  1  0.02698  0  -0.093628  -0.109464  0  3.997164  0
C  C249  1  0.25974538  0.44040504  0.35310703  1  0.026978  0  -0.093587  -0.109457  0  3.997224  0
C  C250  1  0.75974804  0.35310341  0.44040500  1  0.027114  0  -0.093624  -0.109442  0  3.997191  0
C  C251  1  0.74025224  0.55959572  0.64689385  1  0.027025  0  -0.093577  -0.109427  0  3.997223  0
C  C252  1  0.17703066  0.59702179  0.61353034  1  -0.029294  0  -0.014942  -0.010912  0  3.958807  0
C  C253  1  0.32296720  0.38647099  0.40297914  1  -0.029021  0  -0.014933  -0.010989  0  3.958925  0
C  C254  1  0.82297037  0.40297447  0.38646945  1  -0.029079  0  -0.0149  -0.011006  0  3.958708  0
C  C255  1  0.67703224  0.61352866  0.59702334  1  -0.029233  0  -0.014924  -0.010951  0  3.958963  0
C  C256  1  0.07804505  0.60711721  0.60412629  1  -0.007438  0  -0.086421  -0.096731  0  3.965374  0
C  C257  1  0.42195405  0.39587139  0.39288479  1  -0.007844  0  -0.086374  -0.096593  0  3.965277  0
C  C258  1  0.92195659  0.39288242  0.39587230  1  -0.007541  0  -0.086366  -0.096591  0  3.965251  0
C  C259  1  0.57804805  0.60412656  0.60711545  1  -0.007573  0  -0.086413  -0.096708  0  3.965418  0
C  C260  1  0.04204715  0.66642204  0.54190202  1  -0.091576  0  -0.090319  -0.107305  0  3.959901  0
C  C261  1  0.45795054  0.45809647  0.33358297  1  -0.091529  0  -0.090326  -0.107421  0  3.960068  0
C  C262  1  0.95794930  0.33358042  0.45809932  1  -0.091489  0  -0.090349  -0.107356  0  3.959914  0
C  C263  1  0.54204713  0.54190431  0.66642132  1  -0.091581  0  -0.090259  -0.107216  0  3.959838  0
C  C264  1  0.21721149  0.53236254  0.67947962  1  1.553197  0  0.18353  0.548213  0  4.250799  0
C  C265  1  0.28279075  0.32052149  0.46763962  1  1.553494  0  0.183475  0.548152  0  4.251069  0
C  C266  1  0.78279282  0.46763540  0.32051818  1  1.553497  0  0.183571  0.548321  0  4.250769  0
C  C267  1  0.71721261  0.67947479  0.53236601  1  1.553702  0  0.183612  0.548256  0  4.250989  0
C  C268  1  0.76449600  0.91890246  0.27842167  1  1.524855  0  0.193994  0.553259  0  4.237474  0
C  C269  1  0.73550726  0.72157737  0.08109484  1  1.524391  0  0.194122  0.553302  0  4.237606  0
C  C270  1  0.23550546  0.08109211  0.72157734  1  1.524223  0  0.193997  0.553199  0  4.237568  0
C  C271  1  0.26449666  0.27841947  0.91890748  1  1.524928  0  0.194181  0.553385  0  4.237599  0
C  C272  1  0.72419398  0.98672747  0.21501127  1  -0.081047  0  -0.025481  -0.03955  0  3.99385  0
C  C273  1  0.77580653  0.78498786  0.01326980  1  -0.08087  0  -0.025464  -0.039445  0  3.993826  0
C  C274  1  0.27580620  0.01326936  0.78499186  1  -0.080775  0  -0.025508  -0.039598  0  3.993931  0
C  C275  1  0.22419959  0.21500896  0.98672911  1  -0.080649  0  -0.025477  -0.039478  0  3.993825  0
C  C276  1  0.63027303  0.99195253  0.20022911  1  -0.04861  0  -0.095165  -0.110745  0  4.012695  0
C  C277  1  0.86972967  0.79976721  0.00804351  1  -0.048558  0  -0.0951  -0.110838  0  4.012661  0
C  C278  1  0.36972930  0.00804427  0.79976671  1  -0.048639  0  -0.095087  -0.110692  0  4.01267  0
C  C279  1  0.13027584  0.20023185  0.99195351  1  -0.04821  0  -0.095142  -0.110876  0  4.012578  0
C  C280  1  0.58862132  0.05598369  0.14426755  1  -0.051163  0  -0.092436  -0.109373  0  3.992745  0
C  C281  1  0.91137536  0.85573471  0.94401775  1  -0.051333  0  -0.092483  -0.109359  0  3.992615  0
C  C282  1  0.41137746  0.94401537  0.85573093  1  -0.051316  0  -0.092508  -0.109467  0  3.992623  0
C  C283  1  0.08862528  0.14426886  0.05598265  1  -0.051632  0  -0.092477  -0.109352  0  3.992715  0
C  C284  1  0.64199999  0.11490157  0.10028332  1  -0.082759  0  -0.014682  -0.010948  0  3.961192  0
C  C285  1  0.85799472  0.89971905  0.88509940  1  -0.082562  0  -0.014764  -0.011055  0  3.961218  0
C  C286  1  0.35799340  0.88510148  0.89972525  1  -0.082397  0  -0.014642  -0.010859  0  3.96079  0
C  C287  1  0.14200637  0.10028285  0.11490216  1  -0.08248  0  -0.014733  -0.011032  0  3.961302  0
C  C288  1  0.73704622  0.10892218  0.11365581  1  -0.06168  0  -0.087061  -0.096361  0  3.969268  0
C  C289  1  0.76295322  0.88634204  0.89107814  1  -0.061793  0  -0.087021  -0.096315  0  3.969377  0
C  C290  1  0.26294908  0.89107917  0.88635069  1  -0.061754  0  -0.087039  -0.096311  0  3.969214  0
C  C291  1  0.23705215  0.11365477  0.10891996  1  -0.061711  0  -0.087055  -0.096296  0  3.969294  0
C  C292  1  0.77741817  0.04587868  0.17144535  1  -0.016819  0  -0.091393  -0.109672  0  3.966071  0
C  C293  1  0.72258192  0.82855130  0.95411845  1  -0.017024  0  -0.091461  -0.10974  0  3.966017  0
C  C294  1  0.22258188  0.95411872  0.82855902  1  -0.016963  0  -0.091375  -0.109619  0  3.96608  0
C  C295  1  0.27742594  0.17144157  0.04587751  1  -0.017225  0  -0.091397  -0.109616  0  3.96621  0
C  C296  1  0.59803929  0.18268342  0.03829291  1  1.55164  0  0.18401  0.5491  0  4.251018  0
C  C297  1  0.90195284  0.96171252  0.81731824  1  1.551884  0  0.184017  0.54905  0  4.250881  0
C  C298  1  0.40195755  0.81731795  0.96171716  1  1.552333  0  0.183861  0.548953  0  4.250947  0
C  C299  1  0.09804032  0.03829387  0.18268198  1  1.551584  0  0.183973  0.549059  0  4.251092  0
N  N300  1  0.23500085  0.47509244  0.86937561  1  -1.200864  0  -0.329797  -0.246525  0  3.485307  0
N  N301  1  0.26499831  0.13062338  0.52490794  1  -1.200921  0  -0.329874  -0.246628  0  3.485368  0
N  N302  1  0.76499540  0.52491055  0.13062209  1  -1.200919  0  -0.32978  -0.246465  0  3.485259  0
N  N303  1  0.73500321  0.86937682  0.47509236  1  -1.200894  0  -0.329775  -0.246453  0  3.485276  0
N  N304  1  0.45129368  0.37934999  0.97267338  1  -1.242664  0  -0.334923  -0.249042  0  3.495803  0
N  N305  1  0.04870807  0.02732591  0.62065366  1  -1.242727  0  -0.334953  -0.248995  0  3.495966  0
N  N306  1  0.54870350  0.62064965  0.02732812  1  -1.24253  0  -0.334893  -0.248936  0  3.495771  0
N  N307  1  0.95129629  0.97267205  0.37934755  1  -1.242541  0  -0.334901  -0.24897  0  3.495863  0
N  N308  1  0.05390517  0.85825759  0.21223430  1  -1.230577  0  -0.34351  -0.260298  0  3.522038  0
N  N309  1  0.44609981  0.78776442  0.14174119  1  -1.230677  0  -0.343488  -0.260197  0  3.522075  0
N  N310  1  0.94609485  0.14173981  0.78776763  1  -1.230449  0  -0.343493  -0.260193  0  3.521806  0
N  N311  1  0.55390320  0.21223297  0.85826058  1  -1.230551  0  -0.343517  -0.260234  0  3.522195  0
N  N312  1  0.89774639  0.70994076  0.34895948  1  -1.242761  0  -0.340913  -0.263103  0  3.514438  0
N  N313  1  0.60224910  0.65104288  0.29005920  1  -1.242471  0  -0.340857  -0.26309  0  3.514242  0
N  N314  1  0.10225220  0.29005947  0.65104683  1  -1.24251  0  -0.3409  -0.263095  0  3.514514  0
N  N315  1  0.39774713  0.34896012  0.70993704  1  -1.242642  0  -0.340856  -0.26306  0  3.514221  0
O  O316  1  0.07089262  0.58542577  0.00934214  1  -1.082129  0  -0.176142  -0.199413  0  2.552292  0
O  O317  1  0.42910871  0.99065160  0.41457661  1  -1.082245  0  -0.176182  -0.199517  0  2.552207  0
O  O318  1  0.92910799  0.41457498  0.99065712  1  -1.082119  0  -0.176129  -0.199501  0  2.552233  0
O  O319  1  0.57089623  0.00934691  0.58542324  1  -1.081967  0  -0.176115  -0.199443  0  2.552211  0
O  O320  1  0.29333681  0.54385375  0.05305862  1  -1.079473  0  -0.166592  -0.187701  0  2.562587  0
O  O321  1  0.20665798  0.94693584  0.45615021  1  -1.079265  0  -0.166604  -0.187688  0  2.562441  0
O  O322  1  0.70665848  0.45615260  0.94693283  1  -1.079207  0  -0.166588  -0.187675  0  2.562483  0
O  O323  1  0.79333823  0.05306153  0.54384717  1  -1.079101  0  -0.166577  -0.187629  0  2.562685  0
O  O324  1  0.10651807  0.73755354  0.08322706  1  -1.080513  0  -0.166992  -0.186611  0  2.53159  0
O  O325  1  0.39347987  0.91677944  0.26244299  1  -1.080643  0  -0.166989  -0.186672  0  2.531622  0
O  O326  1  0.89349860  0.26244611  0.91677413  1  -1.080679  0  -0.166984  -0.186704  0  2.531694  0
O  O327  1  0.60651818  0.08322524  0.73755354  1  -1.080586  0  -0.166969  -0.186648  0  2.531587  0
O  O328  1  0.04763558  0.57829457  0.22730457  1  -1.06524  0  -0.169767  -0.1913  0  2.527165  0
O  O329  1  0.45235534  0.77269482  0.42170665  1  -1.065224  0  -0.169767  -0.191375  0  2.527082  0
O  O330  1  0.95235842  0.42171123  0.77269133  1  -1.065175  0  -0.169741  -0.191382  0  2.52702  0
O  O331  1  0.54764120  0.22730425  0.57829280  1  -1.065339  0  -0.169794  -0.191462  0  2.527096  0
O  O332  1  0.97775481  0.79620472  0.41398728  1  -1.192909  0  -0.335008  -0.582529  0  2.346855  0
O  O333  1  0.52224150  0.58600998  0.20379828  1  -1.192747  0  -0.334999  -0.582576  0  2.346938  0
O  O334  1  0.02224320  0.20379434  0.58600941  1  -1.192757  0  -0.335049  -0.582643  0  2.34685  0
O  O335  1  0.47775258  0.41399305  0.79620575  1  -1.192916  0  -0.335001  -0.582564  0  2.346989  0
O  O336  1  0.13562239  0.81886849  0.36967707  1  -1.177712  0  -0.326571  -0.557385  0  2.233252  0
O  O337  1  0.36437586  0.63032489  0.18112854  1  -1.177662  0  -0.32648  -0.557389  0  2.233402  0
O  O338  1  0.86437837  0.18112328  0.63032778  1  -1.177851  0  -0.32647  -0.557362  0  2.233481  0
O  O339  1  0.63561787  0.36967924  0.81887016  1  -1.177604  0  -0.326545  -0.557359  0  2.233391  0
O  O340  1  0.16364027  0.48327310  0.72426602  1  -1.162295  0  -0.338839  -0.560223  0  2.150708  0
O  O341  1  0.33635880  0.27573269  0.51673082  1  -1.162419  0  -0.338841  -0.56017  0  2.150735  0
O  O342  1  0.83636121  0.51672708  0.27573184  1  -1.162345  0  -0.338886  -0.560277  0  2.150712  0
O  O343  1  0.66364219  0.72426417  0.48327702  1  -1.162475  0  -0.338932  -0.560278  0  2.150762  0
O  O344  1  0.30639308  0.52945334  0.68660548  1  -1.174695  0  -0.344239  -0.582313  0  2.22518  0
O  O345  1  0.19360939  0.31340020  0.47054330  1  -1.174883  0  -0.344155  -0.582256  0  2.225261  0
O  O346  1  0.69361140  0.47054685  0.31339271  1  -1.174909  0  -0.344249  -0.582339  0  2.225207  0
O  O347  1  0.80639389  0.68660167  0.52945340  1  -1.174906  0  -0.344228  -0.582284  0  2.225197  0
O  O348  1  0.71486347  0.86532123  0.31360466  1  -1.165609  0  -0.324231  -0.557266  0  2.247972  0
O  O349  1  0.78513977  0.68638743  0.13467708  1  -1.16549  0  -0.324394  -0.557384  0  2.248001  0
O  O350  1  0.28513798  0.13467552  0.68638110  1  -1.165286  0  -0.324321  -0.557346  0  2.248104  0
O  O351  1  0.21485732  0.31360999  0.86533086  1  -1.165669  0  -0.324399  -0.557384  0  2.248016  0
O  O352  1  0.84317518  0.91687206  0.29831442  1  -1.191171  0  -0.333516  -0.58203  0  2.334847  0
O  O353  1  0.65682864  0.70169223  0.08311584  1  -1.190769  0  -0.333488  -0.582027  0  2.335  0
O  O354  1  0.15682779  0.08311128  0.70169142  1  -1.190784  0  -0.333436  -0.581959  0  2.334811  0
O  O355  1  0.34317816  0.29830737  0.91687674  1  -1.191072  0  -0.333557  -0.582127  0  2.335063  0
O  O356  1  0.50456463  0.19082672  0.03658020  1  -1.181271  0  -0.342329  -0.579336  0  2.213318  0
O  O357  1  0.99542863  0.96341936  0.80918066  1  -1.181288  0  -0.342398  -0.579387  0  2.213202  0
O  O358  1  0.49543690  0.80916788  0.96342466  1  -1.181804  0  -0.342289  -0.579298  0  2.213457  0
O  O359  1  0.00456290  0.03659040  0.19082031  1  -1.181203  0  -0.342289  -0.579316  0  2.213356  0
O  O360  1  0.65504362  0.22819703  0.98944291  1  -1.165475  0  -0.338317  -0.563023  0  2.170104  0
O  O361  1  0.84495064  0.01056171  0.77180177  1  -1.165597  0  -0.338271  -0.562965  0  2.170197  0
O  O362  1  0.34494682  0.77181165  0.01056614  1  -1.165615  0  -0.338233  -0.562968  0  2.170193  0
O  O363  1  0.15503847  0.98944299  0.22820011  1  -1.165385  0  -0.33834  -0.563053  0  2.170288  0
