# generated using pymatgen
data_HgH8C2(IN)2
_symmetry_space_group_name_H-M   'P 1'
_cell_length_a   6.71852239
_cell_length_b   6.88520480
_cell_length_c   9.45967922
_cell_angle_alpha   90.22283212
_cell_angle_beta   82.40851881
_cell_angle_gamma   73.83448424
_symmetry_Int_Tables_number   1
_chemical_formula_structural   HgH8C2(IN)2
_chemical_formula_sum   'Hg2 H16 C4 I4 N4'
_cell_volume   416.22393489
_cell_formula_units_Z   2
loop_
 _symmetry_equiv_pos_site_id
 _symmetry_equiv_pos_as_xyz
  1  'x, y, z'
loop_
 _atom_site_type_symbol
 _atom_site_label
 _atom_site_symmetry_multiplicity
 _atom_site_fract_x
 _atom_site_fract_y
 _atom_site_fract_z
 _atom_site_occupancy
 _atom_site_pbe_bader_spin_density
 _atom_site_pbe_cm5_charge
 _atom_site_pbe_ddec_charge
 _atom_site_pbe_ddec_spin_density
 _atom_site_pbe_ddec_sum_bond_order
 _atom_site_pbe_magmom
Hg  Hg0  1  0.44367844  0.82763144  0.24659695  1  0  0.401025  0.429572  0  2.587407  0
Hg  Hg1  1  0.55632921  0.17236695  0.75341639  1  0  0.401018  0.429545  0  2.587327  0
H  H2  1  0.01748215  0.89633486  0.64235903  1  0  0.082117  0.060774  0  1.042091  0
H  H3  1  0.98250151  0.10372541  0.35764055  1  0  0.082128  0.060752  0  1.042112  0
H  H4  1  0.17755379  0.04830656  0.56738423  1  0  0.080856  0.061577  0  1.037658  0
H  H5  1  0.82245428  0.95173248  0.43260265  1  0  0.080827  0.061523  0  1.037788  0
H  H6  1  0.95020473  0.01664931  0.16270735  1  0  0.089355  0.070269  0  1.031888  0
H  H7  1  0.04981747  0.98328529  0.83728251  1  0  0.089348  0.070222  0  1.031655  0
H  H8  1  0.12322773  0.13186731  0.06013877  1  0  0.079086  0.064667  0  1.038321  0
H  H9  1  0.87678776  0.86810518  0.93985697  1  0  0.079024  0.064554  0  1.03853  0
H  H10  1  0.34031052  0.69720050  0.52199953  1  0  0.261906  0.253251  0  1.012928  0
H  H11  1  0.65964443  0.30281891  0.47801629  1  0  0.261942  0.253223  0  1.013277  0
H  H12  1  0.15388767  0.66684518  0.43450774  1  0  0.269828  0.26198  0  0.98192  0
H  H13  1  0.84608435  0.33321359  0.56549814  1  0  0.269593  0.261849  0  0.981734  0
H  H14  1  0.17217780  0.69332790  0.08389739  1  0  0.263455  0.256443  0  1.003987  0
H  H15  1  0.82787968  0.30662956  0.91609257  1  0  0.26339  0.25638  0  1.003542  0
H  H16  1  0.32969651  0.78726151  0.97179483  1  0  0.256369  0.248235  0  1.028533  0
H  H17  1  0.67034952  0.21269897  0.02819930  1  0  0.256516  0.248355  0  1.028709  0
C  C18  1  0.08663632  0.94563500  0.54162358  1  0  -0.091564  -0.009088  0  3.908932  0
C  C19  1  0.91332788  0.05442054  0.45836501  1  0  -0.091434  -0.008657  0  3.90888  0
C  C20  1  0.05902813  0.00123266  0.06334559  1  0  -0.093664  -0.022746  0  3.913987  0
C  C21  1  0.94097901  0.99872174  0.93666250  1  0  -0.093622  -0.022435  0  3.913762  0
I  I22  1  0.83912523  0.57189573  0.23232190  1  0  -0.183641  -0.345673  0  1.603797  0
I  I23  1  0.16086771  0.42811761  0.76767792  1  0  -0.183614  -0.345649  0  1.603613  0
I  I24  1  0.40257912  0.24680458  0.27167948  1  0  -0.202729  -0.363595  0  1.493582  0
I  I25  1  0.59742529  0.75319519  0.72832146  1  0  -0.202713  -0.363574  0  1.493656  0
N  N26  1  0.23126374  0.76900118  0.45883087  1  0  -0.607786  -0.492613  0  3.364979  0
N  N27  1  0.76867637  0.23101344  0.54116616  1  0  -0.607682  -0.492486  0  3.365094  0
N  N28  1  0.23127040  0.81515561  0.06739863  1  0  -0.604626  -0.473265  0  3.371029  0
N  N29  1  0.76873850  0.18480792  0.93261354  1  0  -0.604708  -0.473389  0  3.371045  0
