# generated using pymatgen
data_CeZnH17C21N3O16
_symmetry_space_group_name_H-M   'P 1'
_cell_length_a   10.17412083
_cell_length_b   12.44503208
_cell_length_c   13.64420000
_cell_angle_alpha   95.17852514
_cell_angle_beta   90.46729757
_cell_angle_gamma   111.46776710
_symmetry_Int_Tables_number   1
_chemical_formula_structural   CeZnH17C21N3O16
_chemical_formula_sum   'Ce2 Zn2 H34 C42 N6 O32'
_cell_volume   1599.59294612
_cell_formula_units_Z   2
loop_
 _symmetry_equiv_pos_site_id
 _symmetry_equiv_pos_as_xyz
  1  'x, y, z'
loop_
 _atom_site_type_symbol
 _atom_site_label
 _atom_site_symmetry_multiplicity
 _atom_site_fract_x
 _atom_site_fract_y
 _atom_site_fract_z
 _atom_site_occupancy
 _atom_site_hle17_bader_spin_density
 _atom_site_hle17_ddec_charge
 _atom_site_hle17_ddec_spin_density
 _atom_site_hle17_ddec_sum_bond_order
 _atom_site_hle17_magmom
 _atom_site_hse06_10hf_bader_spin_density
 _atom_site_hse06_10hf_ddec_charge
 _atom_site_hse06_10hf_ddec_spin_density
 _atom_site_hse06_10hf_ddec_sum_bond_order
 _atom_site_hse06_10hf_magmom
 _atom_site_hse06_bader_spin_density
 _atom_site_hse06_ddec_charge
 _atom_site_hse06_ddec_spin_density
 _atom_site_hse06_ddec_sum_bond_order
 _atom_site_hse06_magmom
 _atom_site_pbe_bader_charge
 _atom_site_pbe_bader_spin_density
 _atom_site_pbe_cm5_charge
 _atom_site_pbe_ddec_charge
 _atom_site_pbe_ddec_spin_density
 _atom_site_pbe_ddec_sum_bond_order
 _atom_site_pbe_magmom
Ce  Ce0  1  0.03466071  0.80849628  0.23365267  1  0  2.008658  0  2.338042  0  0  2.056357  0  2.82578  0  0  2.185321  0  2.802219  0  2.370776  0  1.551291  1.953385  0  2.867064  0
Ce  Ce1  1  0.96534470  0.19150585  0.76634446  1  0  2.008414  0  2.337927  0  0  2.056309  0  2.82587  0  0  2.185405  0  2.802078  0  2.370643  0  1.551242  1.953421  0  2.866996  0
Zn  Zn2  1  0.49999124  0.99998998  0.50000271  1  0  1.210714  0  1.672211  0  0  1.06264  0  2.11547  0  0  1.108118  0  2.054571  0  1.37803  0  0.669676  1.030329  0  2.157728  0
Zn  Zn3  1  0.49999847  0.00000781  0.00000129  1  0  1.209306  0  1.666126  0  0  1.061885  0  2.105258  0  0  1.107213  0  2.045263  0  1.375778  0  0.669122  1.029644  0  2.146955  0
H  H4  1  0.44062633  0.26315252  0.30234431  1  0  0.132926  0  0.906213  0  0  0.14557  0  0.954414  0  0  0.14965  0  0.952284  0  0.147621  0  0.128329  0.142523  0  0.956281  0
H  H5  1  0.55937443  0.73683486  0.69766770  1  0  0.133  0  0.906049  0  0  0.145584  0  0.954344  0  0  0.149656  0  0.952223  0  0.147783  0  0.12835  0.142538  0  0.95621  0
H  H6  1  0.33054502  0.35801985  0.18754009  1  0  0.113378  0  0.917446  0  0  0.127357  0  0.966132  0  0  0.130651  0  0.964187  0  0.113687  0  0.12132  0.124936  0  0.967647  0
H  H7  1  0.66945609  0.64197707  0.81247564  1  0  0.11344  0  0.917368  0  0  0.127408  0  0.966091  0  0  0.1307  0  0.964152  0  0.113457  0  0.121337  0.124985  0  0.967611  0
H  H8  1  0.09891790  0.23354916  0.09617707  1  0  0.107565  0  0.986576  0  0  0.113698  0  1.054565  0  0  0.116002  0  1.055424  0  0.111142  0  0.108211  0.111998  0  1.054162  0
H  H9  1  0.90108086  0.76644690  0.90383345  1  0  0.107553  0  0.986698  0  0  0.113755  0  1.054613  0  0  0.11602  0  1.055522  0  0.111093  0  0.108225  0.112056  0  1.054208  0
H  H10  1  0.90093761  0.82032443  0.62717360  1  0  0.110613  0  0.969553  0  0  0.11449  0  1.039648  0  0  0.1168  0  1.040424  0  0.103147  0  0.109053  0.112773  0  1.039354  0
H  H11  1  0.09908009  0.17969853  0.37282385  1  0  0.110646  0  0.969486  0  0  0.114529  0  1.039584  0  0  0.116839  0  1.040363  0  0.103407  0  0.109081  0.112836  0  1.039268  0
H  H12  1  0.00814722  0.67919453  0.67863207  1  0  0.096092  0  0.9355  0  0  0.107926  0  0.990754  0  0  0.110059  0  0.989993  0  0.072965  0  0.110338  0.106402  0  0.991337  0
H  H13  1  0.99185052  0.32081020  0.32136743  1  0  0.096138  0  0.935462  0  0  0.107926  0  0.990767  0  0  0.110062  0  0.990001  0  0.073006  0  0.110323  0.1064  0  0.991354  0
H  H14  1  0.12271274  0.58751117  0.54961977  1  0  0.119661  0  0.922655  0  0  0.130622  0  0.976609  0  0  0.134125  0  0.97537  0  0.127531  0  0.119863  0.128053  0  0.977764  0
H  H15  1  0.87726698  0.41247968  0.45037628  1  0  0.119683  0  0.922607  0  0  0.130683  0  0.976534  0  0  0.13415  0  0.975343  0  0.127418  0  0.119898  0.128113  0  0.977689  0
H  H16  1  0.15564779  0.66698108  0.85355403  1  0  0.127139  0  0.917763  0  0  0.139093  0  0.969318  0  0  0.143119  0  0.967413  0  0.102839  0  0.121478  0.136101  0  0.971035  0
H  H17  1  0.84435660  0.33302974  0.14644161  1  0  0.127196  0  0.917698  0  0  0.139157  0  0.969231  0  0  0.143187  0  0.967331  0  0.102924  0  0.121543  0.136168  0  0.970945  0
H  H18  1  0.91506271  0.50635859  0.81146073  1  0  0.117365  0  0.972944  0  0  0.125301  0  1.034567  0  0  0.130363  0  1.030098  0  0.167351  0  0.113608  0.121686  0  1.037588  0
H  H19  1  0.08493383  0.49364788  0.18853010  1  0  0.117423  0  0.972789  0  0  0.125312  0  1.034485  0  0  0.130372  0  1.030017  0  0.167306  0  0.11362  0.121698  0  1.037506  0
H  H20  1  0.73320435  0.46513362  0.94044174  1  0  0.125939  0  0.913369  0  0  0.136856  0  0.966041  0  0  0.141332  0  0.963561  0  0.10118  0  0.121148  0.133585  0  0.968075  0
H  H21  1  0.26679494  0.53487459  0.05955806  1  0  0.125959  0  0.913396  0  0  0.136866  0  0.96607  0  0  0.141343  0  0.963589  0  0.10124  0  0.121161  0.133593  0  0.968107  0
H  H22  1  0.49004959  0.80996374  0.37297016  1  0  0.42604  0  0.812418  0  0  0.414443  0  0.856318  0  0  0.42223  0  0.848033  0  0.596932  0  0.330943  0.408584  0  0.862911  0
H  H23  1  0.50995564  0.19003579  0.62703042  1  0  0.426114  0  0.812415  0  0  0.41451  0  0.856311  0  0  0.422303  0  0.848019  0  0.596919  0  0.330962  0.408647  0  0.86291  0
H  H24  1  0.35557403  0.84741290  0.36940654  1  0  0.422877  0  0.884038  0  0  0.390628  0  0.950145  0  0  0.402711  0  0.932428  0  0.645286  0  0.297993  0.382247  0  0.962363  0
H  H25  1  0.64442182  0.15257448  0.63059224  1  0  0.422851  0  0.884127  0  0  0.390659  0  0.950169  0  0  0.402745  0  0.932445  0  0.645316  0  0.298026  0.382276  0  0.962389  0
H  H26  1  0.75652158  0.00568064  0.44934812  1  0  0.425524  0  0.885348  0  0  0.388803  0  0.958076  0  0  0.401777  0  0.939322  0  0.657766  0  0.286554  0.379571  0  0.971433  0
H  H27  1  0.24347343  0.99431803  0.55064720  1  0  0.425543  0  0.885329  0  0  0.388835  0  0.958036  0  0  0.401808  0  0.939285  0  0.657892  0  0.286559  0.379604  0  0.971392  0
H  H28  1  0.69592315  0.06739183  0.36894550  1  0  0.424427  0  0.820301  0  0  0.409061  0  0.871716  0  0  0.417321  0  0.862522  0  0.62107  0  0.323076  0.40308  0  0.878483  0
H  H29  1  0.30405984  0.93261291  0.63106050  1  0  0.424504  0  0.820159  0  0  0.409122  0  0.871611  0  0  0.417384  0  0.86241  0  0.620951  0  0.32312  0.40314  0  0.878385  0
H  H30  1  0.26134323  0.04616190  0.98626218  1  0  0.429954  0  0.88004  0  0  0.393133  0  0.952452  0  0  0.406205  0  0.93361  0  0.659514  0  0.28799  0.383881  0  0.965793  0
H  H31  1  0.73865238  0.95383589  0.01373526  1  0  0.429958  0  0.880011  0  0  0.39316  0  0.952388  0  0  0.406229  0  0.93355  0  0.659515  0  0.288016  0.383911  0  0.965724  0
H  H32  1  0.39172908  0.16910613  0.02061524  1  0  0.433221  0  0.811881  0  0  0.419756  0  0.85867  0  0  0.42774  0  0.850082  0  0.625865  0  0.329373  0.414012  0  0.864919  0
H  H33  1  0.60825645  0.83090208  0.97937787  1  0  0.433081  0  0.811979  0  0  0.419606  0  0.858811  0  0  0.427589  0  0.850225  0  0.625925  0  0.329283  0.413862  0  0.865061  0
H  H34  1  0.55717278  0.93098404  0.16485531  1  0  0.414357  0  0.82636  0  0  0.401182  0  0.875069  0  0  0.409974  0  0.864826  0  0.588155  0  0.322333  0.394673  0  0.882858  0
H  H35  1  0.44283376  0.06902937  0.83514129  1  0  0.414475  0  0.826141  0  0  0.40129  0  0.874869  0  0  0.410085  0  0.864617  0  0.588073  0  0.322391  0.394779  0  0.88266  0
H  H36  1  0.40022024  0.92845093  0.15696119  1  0  0.419977  0  0.889847  0  0  0.388658  0  0.95441  0  0  0.400919  0  0.936567  0  0.635488  0  0.294328  0.380027  0  0.966898  0
H  H37  1  0.59978357  0.07155641  0.84303709  1  0  0.420119  0  0.889661  0  0  0.388797  0  0.954234  0  0  0.401057  0  0.936392  0  0.635636  0  0.294382  0.380161  0  0.966731  0
C  C38  1  0.27353683  0.09633045  0.27032612  1  0  0.115251  0  3.728809  0  0  0.121726  0  3.981699  0  0  0.123888  0  3.997859  0  0.514783  0  0.131404  0.120292  0  3.970056  0
C  C39  1  0.72646647  0.90366040  0.72967300  1  0  0.115312  0  3.728867  0  0  0.121761  0  3.9818  0  0  0.123924  0  3.997959  0  0.514444  0  0.13136  0.120329  0  3.970157  0
C  C40  1  0.34157835  0.21451391  0.26081212  1  0  -0.070894  0  3.629068  0  0  -0.095065  0  3.869578  0  0  -0.096559  0  3.884887  0  -0.013426  0  -0.049742  -0.09428  0  3.859639  0
C  C41  1  0.65842042  0.78547781  0.73919584  1  0  -0.070956  0  3.628921  0  0  -0.095066  0  3.869501  0  0  -0.096554  0  3.884813  0  -0.01361  0  -0.049691  -0.094281  0  3.859558  0
C  C42  1  0.27934555  0.26613776  0.19739719  1  0  -0.008065  0  3.678408  0  0  -0.021342  0  3.923927  0  0  -0.019752  0  3.940062  0  -0.018314  0  -0.052768  -0.022297  0  3.913061  0
C  C43  1  0.72065419  0.73385830  0.80261333  1  0  -0.008065  0  3.678289  0  0  -0.021373  0  3.923911  0  0  -0.019782  0  3.940038  0  -0.018255  0  -0.052823  -0.022333  0  3.913056  0
C  C44  1  0.15159503  0.19842050  0.14698266  1  0  -0.094422  0  3.672514  0  0  -0.11965  0  3.920686  0  0  -0.121835  0  3.938718  0  0.004616  0  -0.065501  -0.1184  0  3.908856  0
C  C45  1  0.84840704  0.80158076  0.85302684  1  0  -0.094524  0  3.672502  0  0  -0.119822  0  3.920669  0  0  -0.121983  0  3.938744  0  0.004783  0  -0.065536  -0.118573  0  3.908839  0
C  C46  1  0.09034148  0.08100158  0.16153119  1  0  0.111571  0  3.742085  0  0  0.118251  0  3.990923  0  0  0.120492  0  4.007554  0  0.493432  0  0.127467  0.116839  0  3.978808  0
C  C47  1  0.90966512  0.91899882  0.83847460  1  0  0.111569  0  3.741923  0  0  0.118347  0  3.990634  0  0  0.120589  0  4.007261  0  0.492876  0  0.127495  0.116937  0  3.978523  0
C  C48  1  0.95311530  0.99854509  0.11194671  1  0  0.635074  0  3.897811  0  0  0.591186  0  4.19832  0  0  0.628921  0  4.186148  0  1.592264  0  0.228005  0.56591  0  4.204832  0
C  C49  1  0.04688897  0.00145010  0.88805644  1  0  0.635041  0  3.897652  0  0  0.591133  0  4.198161  0  0  0.628871  0  4.185991  0  1.59234  0  0.227905  0.565853  0  4.204677  0
C  C50  1  0.32859035  0.02948273  0.33483115  1  0  0.655713  0  3.866338  0  0  0.603288  0  4.168586  0  0  0.6408  0  4.156895  0  1.61336  0  0.235594  0.57814  0  4.174698  0
C  C51  1  0.67140982  0.97050552  0.66517140  1  0  0.655633  0  3.866655  0  0  0.603205  0  4.168936  0  0  0.640719  0  4.157249  0  1.613207  0  0.235587  0.578056  0  4.17505  0
C  C52  1  0.95395697  0.79977573  0.47660614  1  0  0.118606  0  3.741409  0  0  0.125524  0  3.987226  0  0  0.127875  0  4.004683  0  0.510419  0  0.129755  0.124149  0  3.974418  0
C  C53  1  0.04604627  0.20022814  0.52338892  1  0  0.11836  0  3.741548  0  0  0.125247  0  3.987363  0  0  0.127598  0  4.004827  0  0.511065  0  0.129666  0.123873  0  3.974561  0
C  C54  1  0.95042142  0.77727534  0.57503862  1  0  -0.085285  0  3.6555  0  0  -0.110681  0  3.902739  0  0  -0.11325  0  3.920393  0  -0.031882  0  -0.063083  -0.109237  0  3.891276  0
C  C55  1  0.04958752  0.22273026  0.42496102  1  0  -0.085108  0  3.655529  0  0  -0.1105  0  3.902732  0  0  -0.113072  0  3.920389  0  -0.032211  0  -0.062945  -0.109075  0  3.891249  0
C  C56  1  0.01121858  0.70007734  0.60266588  1  0  0.012861  0  3.683968  0  0  -0.002231  0  3.935012  0  0  0.000806  0  3.95088  0  0.022018  0  -0.05497  -0.004176  0  3.92446  0
C  C57  1  0.98877956  0.29992393  0.39733480  1  0  0.012719  0  3.683975  0  0  -0.002322  0  3.935027  0  0  0.000717  0  3.950888  0  0.022091  0  -0.055009  -0.004267  0  3.924477  0
C  C58  1  0.07374234  0.64827385  0.53191188  1  0  -0.076143  0  3.652256  0  0  -0.10279  0  3.900449  0  0  -0.105551  0  3.9171  0  -0.011243  0  -0.055274  -0.101272  0  3.889719  0
C  C59  1  0.92624521  0.35172134  0.46808604  1  0  -0.076223  0  3.652201  0  0  -0.102919  0  3.900423  0  0  -0.105654  0  3.917085  0  -0.011153  0  -0.055349  -0.101396  0  3.889687  0
C  C60  1  0.07220252  0.67521653  0.43501256  1  0  0.118201  0  3.727346  0  0  0.128094  0  3.96995  0  0  0.131208  0  3.987207  0  0.531762  0  0.130116  0.126199  0  3.95736  0
C  C61  1  0.92778739  0.32477953  0.56498764  1  0  0.118481  0  3.727294  0  0  0.128345  0  3.969958  0  0  0.131466  0  3.987208  0  0.531621  0  0.130247  0.126452  0  3.957363  0
C  C62  1  0.13217721  0.62441795  0.34989036  1  0  0.612382  0  3.91086  0  0  0.574594  0  4.217001  0  0  0.610945  0  4.206835  0  1.587444  0  0.218722  0.550332  0  4.22185  0
C  C63  1  0.86781014  0.37557897  0.65010624  1  0  0.612198  0  3.910627  0  0  0.57437  0  4.21687  0  0  0.610721  0  4.206715  0  1.587385  0  0.218655  0.550106  0  4.221719  0
C  C64  1  0.89334004  0.88082157  0.43582012  1  0  0.633206  0  3.899488  0  0  0.590457  0  4.201365  0  0  0.628175  0  4.189268  0  1.617951  0  0.229298  0.565173  0  4.207555  0
C  C65  1  0.10666380  0.11918143  0.56417341  1  0  0.633387  0  3.899246  0  0  0.590727  0  4.200988  0  0  0.628447  0  4.188892  0  1.618003  0  0.229355  0.565442  0  4.207184  0
C  C66  1  0.09470311  0.70832320  0.99808516  1  0  0.110154  0  3.751722  0  0  0.112848  0  4.009294  0  0  0.115237  0  4.026136  0  0.454641  0  0.125849  0.11138  0  3.997021  0
C  C67  1  0.90529796  0.29168240  0.00191150  1  0  0.110113  0  3.75169  0  0  0.112836  0  4.009243  0  0  0.115223  0  4.026089  0  0.454957  0  0.125793  0.111374  0  3.996976  0
C  C68  1  0.07112027  0.64581623  0.90538352  1  0  -0.097113  0  3.665407  0  0  -0.123935  0  3.91859  0  0  -0.127076  0  3.935714  0  0.024562  0  -0.063006  -0.122151  0  3.907455  0
C  C69  1  0.92887668  0.35418677  0.09460923  1  0  -0.09724  0  3.665455  0  0  -0.124042  0  3.91861  0  0  -0.127193  0  3.935745  0  0.024374  0  -0.06306  -0.122262  0  3.907479  0
C  C70  1  0.93925946  0.55751036  0.88296332  1  0  -0.003319  0  3.662984  0  0  -0.02053  0  3.917225  0  0  -0.018158  0  3.932483  0  -0.060307  0  -0.057054  -0.021768  0  3.906828  0
C  C71  1  0.06073631  0.44249438  0.11703104  1  0  -0.00332  0  3.662856  0  0  -0.020526  0  3.917134  0  0  -0.018153  0  3.932395  0  -0.06018  0  -0.057107  -0.021763  0  3.90674  0
C  C72  1  0.83704955  0.53380893  0.95398731  1  0  -0.091639  0  3.659072  0  0  -0.114843  0  3.905592  0  0  -0.11874  0  3.923715  0  0.008492  0  -0.06012  -0.112579  0  3.893725  0
C  C73  1  0.16294976  0.46619494  0.04601066  1  0  -0.09164  0  3.658908  0  0  -0.114791  0  3.905444  0  0  -0.118688  0  3.923561  0  0.008402  0  -0.060047  -0.112525  0  3.893577  0
C  C74  1  0.86968376  0.59977930  0.04546069  1  0  0.103343  0  3.744453  0  0  0.112811  0  3.988588  0  0  0.115578  0  4.007538  0  0.528436  0  0.125779  0.111129  0  3.974861  0
C  C75  1  0.13032245  0.40022023  0.95453184  1  0  0.103461  0  3.744377  0  0  0.112803  0  3.988629  0  0  0.11558  0  4.007574  0  0.528331  0  0.125773  0.111118  0  3.974906  0
C  C76  1  0.77059750  0.57966016  0.13035160  1  0  0.61909  0  3.912594  0  0  0.584084  0  4.215856  0  0  0.620493  0  4.205524  0  1.603677  0  0.216643  0.55974  0  4.221027  0
C  C77  1  0.22942268  0.42033764  0.86964966  1  0  0.618843  0  3.913044  0  0  0.583964  0  4.216142  0  0  0.62037  0  4.20582  0  1.604133  0  0.216665  0.559621  0  4.221318  0
C  C78  1  0.23034262  0.80565336  0.03171221  1  0  0.653884  0  3.860028  0  0  0.606758  0  4.153712  0  0  0.644181  0  4.141264  0  1.604927  0  0.235426  0.5816  0  4.160185  0
C  C79  1  0.76966355  0.19435485  0.96828470  1  0  0.653994  0  3.859788  0  0  0.606851  0  4.153534  0  0  0.644276  0  4.141081  0  1.605949  0  0.235487  0.581681  0  4.160029  0
N  N80  1  0.15149365  0.03197767  0.22136956  1  0  -0.356837  0  3.274747  0  0  -0.339872  0  3.550932  0  0  -0.359681  0  3.579419  0  -1.238114  0  -0.350949  -0.32537  0  3.530373  0
N  N81  1  0.84850924  0.96801666  0.77863131  1  0  -0.356767  0  3.274553  0  0  -0.339795  0  3.550688  0  0  -0.359614  0  3.579173  0  -1.23749  0  -0.350915  -0.325301  0  3.530123  0
N  N82  1  0.01346721  0.74936767  0.40927846  1  0  -0.36283  0  3.283516  0  0  -0.343657  0  3.555249  0  0  -0.364826  0  3.58424  0  -1.225257  0  -0.366644  -0.328139  0  3.533831  0
N  N83  1  0.98652545  0.25063012  0.59072116  1  0  -0.362891  0  3.283536  0  0  -0.343697  0  3.555294  0  0  -0.364884  0  3.584291  0  -1.225284  0  -0.366736  -0.32819  0  3.533875  0
N  N84  1  0.99561989  0.68526655  0.06556858  1  0  -0.368127  0  3.28539  0  0  -0.349151  0  3.562765  0  0  -0.370135  0  3.592054  0  -1.243911  0  -0.361116  -0.333814  0  3.541389  0
N  N85  1  0.00438454  0.31473558  0.93442488  1  0  -0.368061  0  3.285302  0  0  -0.349071  0  3.562734  0  0  -0.370071  0  3.592024  0  -1.244066  0  -0.361061  -0.333738  0  3.541351  0
O  O86  1  0.25746464  0.91939193  0.32798614  1  0  -0.657422  0  2.087843  0  0  -0.622269  0  2.345971  0  0  -0.658347  0  2.343786  0  -1.166358  0  -0.348254  -0.595918  0  2.345567  0
O  O87  1  0.74254123  0.08059805  0.67200926  1  0  -0.657401  0  2.08805  0  0  -0.622241  0  2.346169  0  0  -0.658345  0  2.343987  0  -1.166213  0  -0.348234  -0.595896  0  2.345761  0
O  O88  1  0.43734417  0.08184075  0.38940282  1  0  -0.590521  0  2.025968  0  0  -0.53188  0  2.272081  0  0  -0.558681  0  2.25821  0  -1.152245  0  -0.290486  -0.513328  0  2.281017  0
O  O89  1  0.56265147  0.91814837  0.61060417  1  0  -0.590497  0  2.025923  0  0  -0.531851  0  2.272033  0  0  -0.55865  0  2.258159  0  -1.152203  0  -0.290485  -0.513302  0  2.280978  0
O  O90  1  0.91889937  0.89136624  0.12589689  1  0  -0.63179  0  1.985104  0  0  -0.622246  0  2.250176  0  0  -0.657287  0  2.245399  0  -1.138774  0  -0.370662  -0.596546  0  2.251846  0
O  O91  1  0.08111194  0.10863589  0.87410028  1  0  -0.631839  0  1.984778  0  0  -0.622298  0  2.249835  0  0  -0.657359  0  2.245052  0  -1.138672  0  -0.370645  -0.596607  0  2.2515  0
O  O92  1  0.88136996  0.03869619  0.06128179  1  0  -0.571708  0  1.994672  0  0  -0.520031  0  2.210348  0  0  -0.546708  0  2.201639  0  -1.157586  0  -0.287316  -0.501651  0  2.215684  0
O  O93  1  0.11863252  0.96130160  0.93872156  1  0  -0.57162  0  1.994772  0  0  -0.519961  0  2.21049  0  0  -0.54664  0  2.20178  0  -1.157393  0  -0.287244  -0.501577  0  2.215838  0
O  O94  1  0.91277810  0.89485307  0.34398507  1  0  -0.636393  0  1.97251  0  0  -0.631068  0  2.237646  0  0  -0.666487  0  2.232389  0  -1.151508  0  -0.377332  -0.604561  0  2.239241  0
O  O95  1  0.08722418  0.10514646  0.65601549  1  0  -0.636519  0  1.972081  0  0  -0.631273  0  2.237218  0  0  -0.666711  0  2.231949  0  -1.151716  0  -0.377426  -0.604778  0  2.238812  0
O  O96  1  0.82854723  0.92819579  0.49160559  1  0  -0.562846  0  1.994517  0  0  -0.514045  0  2.211341  0  0  -0.540232  0  2.202375  0  -1.172297  0  -0.283421  -0.495842  0  2.216831  0
O  O97  1  0.17145327  0.07180634  0.50839371  1  0  -0.562772  0  1.994689  0  0  -0.513999  0  2.211455  0  0  -0.540184  0  2.20249  0  -1.172367  0  -0.283376  -0.495799  0  2.216946  0
O  O98  1  0.12962654  0.67188156  0.26815916  1  0  -0.649909  0  1.984705  0  0  -0.647261  0  2.259836  0  0  -0.687513  0  2.258421  0  -1.126138  0  -0.400344  -0.618301  0  2.259  0
O  O99  1  0.87036690  0.32811797  0.73184574  1  0  -0.649806  0  1.984427  0  0  -0.647152  0  2.259563  0  0  -0.687424  0  2.258144  0  -1.126117  0  -0.400249  -0.618203  0  2.258722  0
O  O100  1  0.17507427  0.54465212  0.35833791  1  0  -0.533034  0  1.871092  0  0  -0.513523  0  2.077273  0  0  -0.53703  0  2.070178  0  -1.135501  0  -0.302854  -0.496807  0  2.081351  0
O  O101  1  0.82490325  0.45534480  0.64165569  1  0  -0.532931  0  1.870984  0  0  -0.513432  0  2.077198  0  0  -0.536938  0  2.070103  0  -1.135558  0  -0.302866  -0.496715  0  2.081273  0
O  O102  1  0.23439819  0.85033219  0.12106251  1  0  -0.655082  0  2.086444  0  0  -0.62041  0  2.337777  0  0  -0.655144  0  2.334204  0  -1.167925  0  -0.342608  -0.594512  0  2.338151  0
O  O103  1  0.76560272  0.14966648  0.87893505  1  0  -0.65514  0  2.086327  0  0  -0.620503  0  2.337726  0  0  -0.655254  0  2.334144  0  -1.16797  0  -0.342627  -0.594609  0  2.338108  0
O  O104  1  0.32993388  0.83713724  0.97369335  1  0  -0.599442  0  2.002573  0  0  -0.540147  0  2.240972  0  0  -0.566215  0  2.226756  0  -1.157053  0  -0.29754  -0.522098  0  2.250171  0
O  O105  1  0.67006815  0.16287270  0.02629927  1  0  -0.599508  0  2.002522  0  0  -0.540202  0  2.240941  0  0  -0.566272  0  2.226728  0  -1.158125  0  -0.29761  -0.522152  0  2.250154  0
O  O106  1  0.82351271  0.65468952  0.20759686  1  0  -0.63195  0  1.93669  0  0  -0.632753  0  2.200579  0  0  -0.67159  0  2.195464  0  -1.114106  0  -0.402007  -0.604633  0  2.202382  0
O  O107  1  0.17649745  0.34530567  0.79239533  1  0  -0.631966  0  1.936558  0  0  -0.632834  0  2.200417  0  0  -0.671692  0  2.195296  0  -1.114167  0  -0.402152  -0.604724  0  2.202213  0
O  O108  1  0.65498686  0.49859002  0.12343162  1  0  -0.532539  0  1.823892  0  0  -0.516123  0  2.013818  0  0  -0.538261  0  2.005555  0  -1.142844  0  -0.31518  -0.500664  0  2.018954  0
O  O109  1  0.34504633  0.50139736  0.87657912  1  0  -0.532345  0  1.824256  0  0  -0.515974  0  2.014103  0  0  -0.538104  0  2.005838  0  -1.1432  0  -0.315079  -0.500516  0  2.019242  0
O  O110  1  0.42478204  0.83276699  0.41360417  1  0  -0.806882  0  1.881093  0  0  -0.754183  0  2.06577  0  0  -0.773628  0  2.034558  0  -1.205452  0  -0.561114  -0.74048  0  2.087746  0
O  O111  1  0.57521204  0.16721866  0.58639593  1  0  -0.806932  0  1.881158  0  0  -0.754294  0  2.065735  0  0  -0.773736  0  2.034499  0  -1.205436  0  -0.561144  -0.740586  0  2.087717  0
O  O112  1  0.69816424  0.05536495  0.43813654  1  0  -0.835736  0  1.925326  0  0  -0.779412  0  2.135527  0  0  -0.801818  0  2.105108  0  -1.252218  0  -0.566911  -0.763654  0  2.156803  0
O  O113  1  0.30181627  0.94462330  0.56186736  1  0  -0.835855  0  1.925231  0  0  -0.779532  0  2.135415  0  0  -0.801938  0  2.104999  0  -1.252187  0  -0.566935  -0.76375  0  2.156642  0
O  O114  1  0.35963645  0.08548205  0.02057374  1  0  -0.853265  0  1.928891  0  0  -0.795036  0  2.139683  0  0  -0.817708  0  2.10894  0  -1.26133  0  -0.569341  -0.779126  0  2.161084  0
O  O115  1  0.64035930  0.91452703  0.97942684  1  0  -0.853158  0  1.928898  0  0  -0.794955  0  2.139676  0  0  -0.817621  0  2.108936  0  -1.261427  0  -0.569342  -0.779047  0  2.161074  0
O  O116  1  0.50313546  0.98038372  0.15741081  1  0  -0.80188  0  1.859182  0  0  -0.750692  0  2.038507  0  0  -0.770351  0  2.00743  0  -1.19426  0  -0.5651  -0.736804  0  2.060537  0
O  O117  1  0.49686795  0.01962710  0.84258775  1  0  -0.802122  0  1.858865  0  0  -0.750923  0  2.038177  0  0  -0.770585  0  2.007091  0  -1.194314  0  -0.565208  -0.737031  0  2.060214  0
