# generated using pymatgen
data_RbH13C18O
_symmetry_space_group_name_H-M   'P 1'
_cell_length_a   5.55259158
_cell_length_b   11.70102331
_cell_length_c   21.11511780
_cell_angle_alpha   89.99915065
_cell_angle_beta   89.99950624
_cell_angle_gamma   92.97869441
_symmetry_Int_Tables_number   1
_chemical_formula_structural   RbH13C18O
_chemical_formula_sum   'Rb4 H52 C72 O4'
_cell_volume   1370.01689576
_cell_formula_units_Z   4
loop_
 _symmetry_equiv_pos_site_id
 _symmetry_equiv_pos_as_xyz
  1  'x, y, z'
loop_
 _atom_site_type_symbol
 _atom_site_label
 _atom_site_symmetry_multiplicity
 _atom_site_fract_x
 _atom_site_fract_y
 _atom_site_fract_z
 _atom_site_occupancy
 _atom_site_hle17_bader_spin_density
 _atom_site_hle17_ddec_charge
 _atom_site_hle17_ddec_spin_density
 _atom_site_hle17_ddec_sum_bond_order
 _atom_site_hle17_magmom
 _atom_site_hse06_10hf_bader_spin_density
 _atom_site_hse06_10hf_ddec_charge
 _atom_site_hse06_10hf_ddec_spin_density
 _atom_site_hse06_10hf_ddec_sum_bond_order
 _atom_site_hse06_10hf_magmom
 _atom_site_hse06_bader_spin_density
 _atom_site_hse06_ddec_charge
 _atom_site_hse06_ddec_spin_density
 _atom_site_hse06_ddec_sum_bond_order
 _atom_site_hse06_magmom
 _atom_site_pbe_bader_charge
 _atom_site_pbe_bader_spin_density
 _atom_site_pbe_cm5_charge
 _atom_site_pbe_ddec_charge
 _atom_site_pbe_ddec_spin_density
 _atom_site_pbe_ddec_sum_bond_order
 _atom_site_pbe_magmom
Rb  Rb0  1  0.24320034  0.94891138  0.95123552  1  0  0.91906  0  0.579782  0  0  0.866574  0  0.7927  0  0  0.878338  0  0.778445  0  0.86316  0  0.774928  0.857908  0  0.802795  0
Rb  Rb1  1  0.24322677  0.44890001  0.54876369  1  0  0.919119  0  0.579743  0  0  0.866644  0  0.792648  0  0  0.878406  0  0.778394  0  0.86313  0  0.77497  0.857977  0  0.802755  0
Rb  Rb2  1  0.75677604  0.05109399  0.04876080  1  0  0.919056  0  0.579806  0  0  0.866586  0  0.79273  0  0  0.87835  0  0.778473  0  0.863113  0  0.774971  0.857914  0  0.802824  0
Rb  Rb3  1  0.75678782  0.55109253  0.45123594  1  0  0.91905  0  0.579838  0  0  0.866546  0  0.792765  0  0  0.878313  0  0.778508  0  0.863144  0  0.774959  0.85788  0  0.802866  0
H  H4  1  0.33845494  0.52436944  0.96226884  1  0  0.08331  0  0.97391  0  0  0.096221  0  1.035998  0  0  0.098519  0  1.034719  0  0.04339  0  0.096135  0.094537  0  1.036951  0
H  H5  1  0.33847287  0.02435611  0.53772894  1  0  0.083358  0  0.974015  0  0  0.096239  0  1.036131  0  0  0.098566  0  1.034819  0  0.043356  0  0.096157  0.094556  0  1.037083  0
H  H6  1  0.66158637  0.47563679  0.03772652  1  0  0.083257  0  0.973719  0  0  0.096183  0  1.035835  0  0  0.098472  0  1.03457  0  0.043031  0  0.096092  0.094514  0  1.036767  0
H  H7  1  0.66150429  0.97562358  0.46227495  1  0  0.083389  0  0.974088  0  0  0.096294  0  1.036168  0  0  0.098595  0  1.034885  0  0.043133  0  0.096204  0.094613  0  1.037117  0
H  H8  1  0.56171902  0.46001036  0.86823811  1  0  0.085671  0  0.979737  0  0  0.097617  0  1.04081  0  0  0.099383  0  1.042479  0  0.051915  0  0.091139  0.096405  0  1.039706  0
H  H9  1  0.56170411  0.96001799  0.63176394  1  0  0.085684  0  0.979723  0  0  0.097609  0  1.040814  0  0  0.099376  0  1.042481  0  0.051699  0  0.091156  0.096396  0  1.03971  0
H  H10  1  0.43831442  0.53998988  0.13176152  1  0  0.085674  0  0.979679  0  0  0.097536  0  1.040839  0  0  0.099302  0  1.042509  0  0.051986  0  0.091089  0.096325  0  1.039732  0
H  H11  1  0.43827909  0.03998396  0.36824280  1  0  0.085684  0  0.979698  0  0  0.097567  0  1.040844  0  0  0.099331  0  1.042513  0  0.052  0  0.091124  0.096354  0  1.039742  0
H  H12  1  0.85063041  0.59710218  0.81446479  1  0  0.075705  0  0.984295  0  0  0.087908  0  1.048402  0  0  0.090224  0  1.047089  0  0.039956  0  0.08968  0.086241  0  1.049336  0
H  H13  1  0.85058533  0.09709524  0.68554436  1  0  0.075562  0  0.984309  0  0  0.087762  0  1.048434  0  0  0.090078  0  1.047121  0  0.040185  0  0.089643  0.086099  0  1.049361  0
H  H14  1  0.14937695  0.40290661  0.18552726  1  0  0.075643  0  0.984446  0  0  0.087867  0  1.048534  0  0  0.090183  0  1.047219  0  0.040303  0  0.0897  0.086202  0  1.049468  0
H  H15  1  0.14939181  0.90290072  0.31445763  1  0  0.075552  0  0.984202  0  0  0.08777  0  1.048312  0  0  0.090086  0  1.047001  0  0.040269  0  0.089617  0.086105  0  1.049244  0
H  H16  1  0.66477790  0.81404736  0.06841970  1  0  0.075068  0  1.014387  0  0  0.083167  0  1.0837  0  0  0.08683  0  1.081229  0  0.065792  0  0.093333  0.080558  0  1.085451  0
H  H17  1  0.66474154  0.31403708  0.43157420  1  0  0.075078  0  1.014459  0  0  0.083213  0  1.083697  0  0  0.086873  0  1.081239  0  0.066101  0  0.09328  0.08063  0  1.085365  0
H  H18  1  0.33521735  0.18594945  0.93158088  1  0  0.07496  0  1.014402  0  0  0.083136  0  1.083588  0  0  0.086803  0  1.081123  0  0.06541  0  0.093283  0.080505  0  1.085407  0
H  H19  1  0.33524652  0.68594347  0.56841786  1  0  0.074921  0  1.014562  0  0  0.083141  0  1.083723  0  0  0.086811  0  1.081257  0  0.06554  0  0.093246  0.08055  0  1.085415  0
H  H20  1  0.45208768  0.83691874  0.17068813  1  0  0.080741  0  0.958079  0  0  0.094197  0  1.016204  0  0  0.096607  0  1.015547  0  0.068643  0  0.099053  0.092452  0  1.016761  0
H  H21  1  0.45201491  0.33694236  0.32931145  1  0  0.0807  0  0.958111  0  0  0.094136  0  1.016239  0  0  0.096571  0  1.015549  0  0.068527  0  0.09905  0.092366  0  1.016825  0
H  H22  1  0.54793715  0.16306866  0.82931671  1  0  0.080857  0  0.957936  0  0  0.094274  0  1.016106  0  0  0.096683  0  1.015449  0  0.068642  0  0.099095  0.09253  0  1.016659  0
H  H23  1  0.54797816  0.66305103  0.67068297  1  0  0.08062  0  0.958192  0  0  0.094098  0  1.016288  0  0  0.096525  0  1.015609  0  0.068467  0  0.099042  0.092326  0  1.016877  0
H  H24  1  0.04188184  0.74047334  0.18676098  1  0  0.083286  0  0.977022  0  0  0.094204  0  1.039264  0  0  0.095993  0  1.040146  0  0.05929  0  0.093981  0.092894  0  1.038769  0
H  H25  1  0.04181060  0.24050127  0.31324760  1  0  0.083359  0  0.976684  0  0  0.094305  0  1.038942  0  0  0.096107  0  1.039796  0  0.060219  0  0.094011  0.092987  0  1.038453  0
H  H26  1  0.95813209  0.25951320  0.81324955  1  0  0.083246  0  0.977177  0  0  0.094227  0  1.03935  0  0  0.096019  0  1.040222  0  0.059342  0  0.093972  0.092916  0  1.038855  0
H  H27  1  0.95817345  0.75950838  0.68674966  1  0  0.083275  0  0.976627  0  0  0.094193  0  1.038936  0  0  0.095992  0  1.039792  0  0.05995  0  0.093952  0.092879  0  1.038444  0
H  H28  1  0.84567774  0.63305287  0.09771814  1  0  0.08992  0  0.956899  0  0  0.103988  0  1.01309  0  0  0.105833  0  1.013287  0  0.072865  0  0.100931  0.102542  0  1.013195  0
H  H29  1  0.84563853  0.13306475  0.40229375  1  0  0.089847  0  0.956904  0  0  0.103858  0  1.013208  0  0  0.105699  0  1.013411  0  0.073081  0  0.100886  0.102492  0  1.0132  0
H  H30  1  0.15434747  0.36693795  0.90228623  1  0  0.089881  0  0.956852  0  0  0.103908  0  1.013126  0  0  0.105752  0  1.013326  0  0.072646  0  0.100889  0.102528  0  1.013144  0
H  H31  1  0.15433243  0.86695688  0.59770304  1  0  0.089871  0  0.956772  0  0  0.103908  0  1.013024  0  0  0.105751  0  1.013225  0  0.073375  0  0.100942  0.102488  0  1.013097  0
H  H32  1  0.04699923  0.62224353  0.99393857  1  0  0.096587  0  0.955247  0  0  0.108085  0  1.017004  0  0  0.110428  0  1.016884  0  0.090377  0  0.103125  0.10634  0  1.017272  0
H  H33  1  0.04697299  0.12223538  0.50606727  1  0  0.096903  0  0.955037  0  0  0.108287  0  1.016877  0  0  0.110606  0  1.016776  0  0.090236  0  0.103245  0.106541  0  1.017145  0
H  H34  1  0.95301089  0.37775756  0.00606248  1  0  0.096625  0  0.955124  0  0  0.108054  0  1.016979  0  0  0.110379  0  1.016877  0  0.090271  0  0.103094  0.106309  0  1.017246  0
H  H35  1  0.95297002  0.87777769  0.49392810  1  0  0.096733  0  0.954876  0  0  0.108139  0  1.016732  0  0  0.110449  0  1.016647  0  0.090364  0  0.103197  0.106392  0  1.017001  0
H  H36  1  0.22821461  0.68663888  0.82843867  1  0  0.095735  0  0.969862  0  0  0.105983  0  1.034803  0  0  0.108151  0  1.035196  0  0.066684  0  0.099563  0.104415  0  1.034619  0
H  H37  1  0.22822567  0.18665923  0.67156386  1  0  0.095724  0  0.969885  0  0  0.105941  0  1.034891  0  0  0.108107  0  1.035284  0  0.066502  0  0.099587  0.104374  0  1.034705  0
H  H38  1  0.77177561  0.31336135  0.17156475  1  0  0.095725  0  0.969883  0  0  0.106063  0  1.034737  0  0  0.108229  0  1.03513  0  0.066314  0  0.099568  0.104494  0  1.034561  0
H  H39  1  0.77180521  0.81335041  0.32843767  1  0  0.09567  0  0.969862  0  0  0.105869  0  1.03491  0  0  0.108034  0  1.035305  0  0.066576  0  0.099525  0.104316  0  1.034676  0
H  H40  1  0.49353843  0.80744047  0.75867301  1  0  0.088815  0  0.956881  0  0  0.101724  0  1.014818  0  0  0.103713  0  1.015039  0  0.076042  0  0.098702  0.100309  0  1.014684  0
H  H41  1  0.49354241  0.30745440  0.74132857  1  0  0.088801  0  0.956792  0  0  0.101711  0  1.014746  0  0  0.103693  0  1.014981  0  0.076063  0  0.098659  0.100307  0  1.014601  0
H  H42  1  0.50644903  0.19256746  0.24132946  1  0  0.088743  0  0.956844  0  0  0.101667  0  1.014777  0  0  0.103663  0  1.014983  0  0.075903  0  0.098716  0.100261  0  1.014634  0
H  H43  1  0.50645881  0.69254754  0.25868101  1  0  0.08877  0  0.956894  0  0  0.101682  0  1.014833  0  0  0.103664  0  1.015071  0  0.076333  0  0.09868  0.100268  0  1.014699  0
H  H44  1  0.38748555  0.00635193  0.73198408  1  0  0.087162  0  0.972863  0  0  0.098341  0  1.035118  0  0  0.100983  0  1.034346  0  0.085285  0  0.096606  0.096455  0  1.035688  0
H  H45  1  0.38746952  0.50634861  0.76801513  1  0  0.087159  0  0.973114  0  0  0.098373  0  1.035301  0  0  0.101011  0  1.034518  0  0.085298  0  0.096626  0.096486  0  1.035873  0
H  H46  1  0.61250485  0.99365002  0.26801034  1  0  0.087049  0  0.972721  0  0  0.098197  0  1.035047  0  0  0.100834  0  1.034272  0  0.085315  0  0.096488  0.096309  0  1.035615  0
H  H47  1  0.61252610  0.49365163  0.23199776  1  0  0.087114  0  0.973045  0  0  0.098266  0  1.035323  0  0  0.100899  0  1.034548  0  0.085369  0  0.096574  0.096382  0  1.035893  0
H  H48  1  0.01346533  0.08295346  0.77745245  1  0  0.080522  0  0.981638  0  0  0.091893  0  1.044466  0  0  0.094298  0  1.043465  0  0.058705  0  0.095974  0.090187  0  1.045187  0
H  H49  1  0.01347870  0.58296121  0.72254582  1  0  0.080501  0  0.981669  0  0  0.091922  0  1.044442  0  0  0.094332  0  1.043421  0  0.058638  0  0.096035  0.090216  0  1.045167  0
H  H50  1  0.98652195  0.91705276  0.22253250  1  0  0.080584  0  0.98179  0  0  0.091918  0  1.044639  0  0  0.094331  0  1.043617  0  0.058743  0  0.096011  0.090207  0  1.045382  0
H  H51  1  0.98655322  0.41704159  0.27745476  1  0  0.080474  0  0.981625  0  0  0.09183  0  1.044469  0  0  0.094231  0  1.043478  0  0.058692  0  0.095947  0.090125  0  1.045186  0
H  H52  1  0.74333039  0.96076689  0.84515418  1  0  0.092251  0  0.97545  0  0  0.099619  0  1.044412  0  0  0.103283  0  1.04212  0  0.101175  0  0.102102  0.097007  0  1.046094  0
H  H53  1  0.74332945  0.46079930  0.65484456  1  0  0.092307  0  0.975547  0  0  0.099733  0  1.044456  0  0  0.103393  0  1.042163  0  0.101098  0  0.102192  0.097139  0  1.046085  0
H  H54  1  0.25666117  0.03922906  0.15483740  1  0  0.092146  0  0.975508  0  0  0.099574  0  1.044405  0  0  0.103233  0  1.042116  0  0.101039  0  0.102149  0.096965  0  1.046077  0
H  H55  1  0.25670075  0.53922062  0.34515555  1  0  0.092306  0  0.975412  0  0  0.0997  0  1.044333  0  0  0.103361  0  1.042042  0  0.100929  0  0.102165  0.097085  0  1.046025  0
C  C56  1  0.67810814  0.77474899  0.93500639  1  0  0.286907  0  3.897212  0  0  0.274403  0  4.15805  0  0  0.289497  0  4.173328  0  0.706031  0  0.053592  0.264234  0  4.14717  0
C  C57  1  0.67812041  0.27474956  0.56499851  1  0  0.286837  0  3.897806  0  0  0.274328  0  4.15865  0  0  0.289424  0  4.173927  0  0.707224  0  0.05353  0.26415  0  4.147772  0
C  C58  1  0.32191686  0.22525637  0.06499088  1  0  0.287114  0  3.897335  0  0  0.274613  0  4.158076  0  0  0.28971  0  4.173352  0  0.705826  0  0.053648  0.264441  0  4.147192  0
C  C59  1  0.32185826  0.72524382  0.43500160  1  0  0.286994  0  3.89773  0  0  0.274366  0  4.15868  0  0  0.289463  0  4.173953  0  0.706652  0  0.053543  0.26419  0  4.147803  0
C  C60  1  0.50630126  0.69370474  0.96432945  1  0  -0.120893  0  3.765666  0  0  -0.107043  0  4.004322  0  0  -0.115216  0  4.03068  0  -0.012186  0  -0.05215  -0.101647  0  3.986456  0
C  C61  1  0.50628237  0.19369923  0.53567781  1  0  -0.120857  0  3.765204  0  0  -0.107056  0  4.003891  0  0  -0.115226  0  4.030256  0  -0.012196  0  -0.052162  -0.101657  0  3.986025  0
C  C62  1  0.49371845  0.30628522  0.03567302  1  0  -0.121162  0  3.766377  0  0  -0.107351  0  4.005038  0  0  -0.115529  0  4.031392  0  -0.012302  0  -0.052254  -0.101947  0  3.987169  0
C  C63  1  0.49370037  0.80629844  0.46432324  1  0  -0.120714  0  3.765174  0  0  -0.106876  0  4.003911  0  0  -0.115043  0  4.030265  0  -0.012895  0  -0.052092  -0.101482  0  3.98605  0
C  C64  1  0.46443724  0.58410885  0.93813448  1  0  -0.084191  0  3.801425  0  0  -0.107014  0  4.056905  0  0  -0.104543  0  4.076777  0  -0.115691  0  -0.097313  -0.108237  0  4.043103  0
C  C65  1  0.46441846  0.08410360  0.56186378  1  0  -0.084345  0  3.80174  0  0  -0.107125  0  4.057207  0  0  -0.104671  0  4.077065  0  -0.115499  0  -0.097363  -0.108348  0  4.043403  0
C  C66  1  0.53556900  0.41588968  0.06186563  1  0  -0.084071  0  3.80105  0  0  -0.106889  0  4.056499  0  0  -0.104408  0  4.076374  0  -0.115032  0  -0.097231  -0.10812  0  4.042683  0
C  C67  1  0.53556561  0.91588979  0.43813821  1  0  -0.084615  0  3.802139  0  0  -0.107431  0  4.057615  0  0  -0.104962  0  4.077481  0  -0.115277  0  -0.097534  -0.108654  0  4.043819  0
C  C68  1  0.58801623  0.54757182  0.88531498  1  0  -0.13256  0  3.871972  0  0  -0.14815  0  4.132791  0  0  -0.154726  0  4.156812  0  -0.021663  0  -0.126733  -0.143793  0  4.116242  0
C  C69  1  0.58801063  0.04757050  0.61468471  1  0  -0.132481  0  3.871837  0  0  -0.148045  0  4.132614  0  0  -0.154621  0  4.156639  0  -0.021776  0  -0.126718  -0.143688  0  4.116069  0
C  C70  1  0.41198185  0.45243440  0.11468276  1  0  -0.13247  0  3.871972  0  0  -0.147998  0  4.132801  0  0  -0.154572  0  4.156817  0  -0.022011  0  -0.126655  -0.143641  0  4.116255  0
C  C71  1  0.41199381  0.95242802  0.38531919  1  0  -0.132307  0  3.871788  0  0  -0.147822  0  4.13255  0  0  -0.154392  0  4.156565  0  -0.022007  0  -0.126642  -0.143471  0  4.116009  0
C  C72  1  0.75251889  0.62445954  0.85608331  1  0  -0.089819  0  3.800562  0  0  -0.109754  0  4.048777  0  0  -0.107858  0  4.069049  0  -0.071328  0  -0.100585  -0.110563  0  4.034599  0
C  C73  1  0.75248540  0.12446773  0.64392063  1  0  -0.089793  0  3.80019  0  0  -0.10971  0  4.048399  0  0  -0.107811  0  4.068668  0  -0.071191  0  -0.100596  -0.110522  0  4.034219  0
C  C74  1  0.24748184  0.37555439  0.14391726  1  0  -0.08981  0  3.801289  0  0  -0.109815  0  4.049419  0  0  -0.107918  0  4.06969  0  -0.071798  0  -0.100689  -0.110626  0  4.035244  0
C  C75  1  0.24750331  0.87553507  0.35608516  1  0  -0.08977  0  3.800069  0  0  -0.109742  0  4.048244  0  0  -0.107847  0  4.068517  0  -0.071663  0  -0.100533  -0.110555  0  4.034069  0
C  C76  1  0.79461469  0.73664772  0.87802446  1  0  -0.098298  0  3.755072  0  0  -0.083697  0  3.990083  0  0  -0.091381  0  4.016042  0  -0.059393  0  -0.040002  -0.07863  0  3.972473  0
C  C77  1  0.79461774  0.23666396  0.62197617  1  0  -0.098228  0  3.755504  0  0  -0.083641  0  3.99042  0  0  -0.09133  0  4.016375  0  -0.060228  0  -0.039962  -0.078565  0  3.972811  0
C  C78  1  0.20538129  0.26337220  0.12197659  1  0  -0.098403  0  3.755082  0  0  -0.083578  0  3.989858  0  0  -0.091259  0  4.015816  0  -0.059035  0  -0.039902  -0.078514  0  3.972254  0
C  C79  1  0.20537456  0.76333884  0.37802915  1  0  -0.098435  0  3.756012  0  0  -0.083695  0  3.990844  0  0  -0.091383  0  4.016794  0  -0.059604  0  -0.039967  -0.078622  0  3.973238  0
C  C80  1  0.37387292  0.71715436  0.02340314  1  0  0.049348  0  3.821754  0  0  0.066695  0  4.049967  0  0  0.069  0  4.072962  0  -0.036288  0  -0.033157  0.065069  0  4.034488  0
C  C81  1  0.37383124  0.21715529  0.47659313  1  0  0.049154  0  3.821373  0  0  0.066576  0  4.049547  0  0  0.068886  0  4.072516  0  -0.036006  0  -0.033247  0.064947  0  4.034078  0
C  C82  1  0.62613276  0.28283903  0.97660597  1  0  0.049234  0  3.822156  0  0  0.066628  0  4.050305  0  0  0.068938  0  4.073301  0  -0.036451  0  -0.033255  0.064999  0  4.034825  0
C  C83  1  0.62614544  0.78283639  0.52340414  1  0  0.049073  0  3.821555  0  0  0.066432  0  4.049821  0  0  0.068737  0  4.072809  0  -0.036432  0  -0.033239  0.064809  0  4.034339  0
C  C84  1  0.48040972  0.77978938  0.07412746  1  0  -0.164517  0  3.814924  0  0  -0.181452  0  4.060346  0  0  -0.183658  0  4.078891  0  -0.096465  0  -0.11417  -0.179913  0  4.047894  0
C  C85  1  0.48036605  0.27980766  0.42586881  1  0  -0.164514  0  3.814923  0  0  -0.181474  0  4.060344  0  0  -0.183695  0  4.078923  0  -0.097599  0  -0.114126  -0.179917  0  4.047888  0
C  C86  1  0.51960176  0.22019117  0.92587975  1  0  -0.164341  0  3.814505  0  0  -0.181302  0  4.059891  0  0  -0.18352  0  4.078449  0  -0.096358  0  -0.114  -0.179772  0  4.047431  0
C  C87  1  0.51960672  0.72019771  0.57413130  1  0  -0.164435  0  3.814956  0  0  -0.181449  0  4.060349  0  0  -0.183678  0  4.078935  0  -0.096628  0  -0.11408  -0.179892  0  4.04789  0
C  C88  1  0.36179124  0.78975679  0.13204568  1  0  -0.084488  0  3.823797  0  0  -0.094024  0  4.070245  0  0  -0.095525  0  4.091192  0  -0.082383  0  -0.095322  -0.092936  0  4.055999  0
C  C89  1  0.36174697  0.28978426  0.36795201  1  0  -0.084179  0  3.823984  0  0  -0.093686  0  4.070431  0  0  -0.095205  0  4.091379  0  -0.082138  0  -0.09526  -0.092585  0  4.056196  0
C  C90  1  0.63824934  0.21022633  0.86795916  1  0  -0.084506  0  3.823622  0  0  -0.094016  0  4.070114  0  0  -0.095516  0  4.09106  0  -0.081641  0  -0.095411  -0.092926  0  4.055859  0
C  C91  1  0.63823670  0.71022196  0.63204525  1  0  -0.083948  0  3.823734  0  0  -0.093494  0  4.070166  0  0  -0.095009  0  4.091116  0  -0.08134  0  -0.095183  -0.092392  0  4.055933  0
C  C92  1  0.13310696  0.73648922  0.14113632  1  0  -0.090758  0  3.780695  0  0  -0.102896  0  4.025261  0  0  -0.105303  0  4.047035  0  -0.091102  0  -0.097479  -0.101203  0  4.010424  0
C  C93  1  0.13309218  0.23650093  0.35887415  1  0  -0.091085  0  3.780208  0  0  -0.103277  0  4.024774  0  0  -0.10569  0  4.046562  0  -0.092112  0  -0.09753  -0.101582  0  4.009959  0
C  C94  1  0.86690726  0.26349989  0.85886852  1  0  -0.090899  0  3.780976  0  0  -0.103112  0  4.025546  0  0  -0.105517  0  4.047316  0  -0.091952  0  -0.097536  -0.10142  0  4.010726  0
C  C95  1  0.86691682  0.76348989  0.64111790  1  0  -0.090987  0  3.779668  0  0  -0.103157  0  4.02426  0  0  -0.105568  0  4.046043  0  -0.092302  0  -0.097443  -0.101463  0  4.00943  0
C  C96  1  0.02309899  0.67554179  0.09108403  1  0  -0.057552  0  3.776888  0  0  -0.068558  0  4.022313  0  0  -0.069383  0  4.043055  0  -0.019345  0  -0.087415  -0.067882  0  4.008244  0
C  C97  1  0.02307628  0.17554389  0.40893023  1  0  -0.057217  0  3.776754  0  0  -0.06817  0  4.022149  0  0  -0.068996  0  4.042897  0  -0.01958  0  -0.087332  -0.067551  0  4.008049  0
C  C98  1  0.97691684  0.32444561  0.90892176  1  0  -0.057404  0  3.776782  0  0  -0.068374  0  4.022211  0  0  -0.069197  0  4.042948  0  -0.018776  0  -0.087306  -0.067742  0  4.008113  0
C  C99  1  0.97692751  0.82444864  0.59105945  1  0  -0.05748  0  3.776752  0  0  -0.068454  0  4.022176  0  0  -0.06928  0  4.042921  0  -0.019399  0  -0.087475  -0.067803  0  4.008105  0
C  C100  1  0.13884310  0.66787644  0.03281535  1  0  -0.121239  0  3.720808  0  0  -0.141492  0  3.969761  0  0  -0.144245  0  3.989975  0  -0.122436  0  -0.091213  -0.139613  0  3.956143  0
C  C101  1  0.13881385  0.16787019  0.46719275  1  0  -0.121564  0  3.721505  0  0  -0.141764  0  3.970463  0  0  -0.14449  0  3.990668  0  -0.122145  0  -0.09123  -0.139891  0  3.956875  0
C  C102  1  0.86116988  0.33211780  0.96718996  1  0  -0.121182  0  3.720792  0  0  -0.141409  0  3.969695  0  0  -0.144146  0  3.989907  0  -0.122221  0  -0.091135  -0.139531  0  3.956094  0
C  C103  1  0.86117117  0.83211550  0.53279977  1  0  -0.121172  0  3.721214  0  0  -0.141355  0  3.970182  0  0  -0.144078  0  3.990399  0  -0.122607  0  -0.091221  -0.13948  0  3.956576  0
C  C104  1  0.96074088  0.81308039  0.84049022  1  0  0.048643  0  3.824691  0  0  0.066762  0  4.049936  0  0  0.069136  0  4.072483  0  -0.078058  0  -0.037357  0.06507  0  4.034811  0
C  C105  1  0.96069367  0.31308771  0.65951373  1  0  0.048588  0  3.824887  0  0  0.066843  0  4.049955  0  0  0.069225  0  4.072491  0  -0.077006  0  -0.03732  0.065145  0  4.034834  0
C  C106  1  0.03924583  0.18692070  0.15951320  1  0  0.048645  0  3.824278  0  0  0.066589  0  4.049649  0  0  0.068959  0  4.072198  0  -0.078325  0  -0.037385  0.0649  0  4.03452  0
C  C107  1  0.03931817  0.68691252  0.34048922  1  0  0.048395  0  3.825078  0  0  0.066574  0  4.050219  0  0  0.068955  0  4.072758  0  -0.077392  0  -0.037472  0.064879  0  4.035096  0
C  C108  1  0.17595114  0.77220891  0.81551664  1  0  -0.147889  0  3.756391  0  0  -0.167428  0  4.005792  0  0  -0.170899  0  4.027349  0  -0.053047  0  -0.103805  -0.165075  0  3.991298  0
C  C109  1  0.17591521  0.27221914  0.68448493  1  0  -0.147775  0  3.756245  0  0  -0.16736  0  4.005642  0  0  -0.170831  0  4.027196  0  -0.053505  0  -0.10382  -0.165006  0  3.991154  0
C  C110  1  0.82402533  0.22779731  0.18447825  1  0  -0.147868  0  3.756572  0  0  -0.16745  0  4.006003  0  0  -0.170921  0  4.027564  0  -0.052091  0  -0.10384  -0.165095  0  3.991501  0
C  C111  1  0.82409026  0.72778880  0.31551138  1  0  -0.14755  0  3.75592  0  0  -0.167106  0  4.005307  0  0  -0.170576  0  4.026863  0  -0.053443  0  -0.103673  -0.164747  0  3.990822  0
C  C112  1  0.32722225  0.84082233  0.77670796  1  0  -0.06944  0  3.794319  0  0  -0.082308  0  4.043704  0  0  -0.083434  0  4.065131  0  0.000559  0  -0.095344  -0.081505  0  4.029209  0
C  C113  1  0.32720658  0.34082699  0.72329788  1  0  -0.069527  0  3.794095  0  0  -0.082398  0  4.043525  0  0  -0.083523  0  4.064944  0  0.001283  0  -0.095309  -0.081606  0  4.02903  0
C  C114  1  0.67275990  0.15918646  0.22328457  1  0  -0.069427  0  3.794184  0  0  -0.082338  0  4.043617  0  0  -0.083464  0  4.065048  0  -5.6e-05  0  -0.095327  -0.081542  0  4.029118  0
C  C115  1  0.67280221  0.65917838  0.27670317  1  0  -0.06957  0  3.794383  0  0  -0.082453  0  4.043796  0  0  -0.083577  0  4.065213  0  0.000862  0  -0.095382  -0.08165  0  4.029302  0
C  C116  1  0.26962559  0.95283265  0.76236563  1  0  -0.094767  0  3.791232  0  0  -0.107055  0  4.036967  0  0  -0.109259  0  4.058099  0  -0.169634  0  -0.101277  -0.105516  0  4.022614  0
C  C117  1  0.26962359  0.45283909  0.73763642  1  0  -0.094617  0  3.791486  0  0  -0.106937  0  4.037248  0  0  -0.109129  0  4.058372  0  -0.170003  0  -0.101233  -0.1054  0  4.022904  0
C  C118  1  0.73038131  0.04717186  0.23762737  1  0  -0.094561  0  3.790779  0  0  -0.106785  0  4.036461  0  0  -0.108984  0  4.057593  0  -0.168955  0  -0.101131  -0.105245  0  4.022111  0
C  C119  1  0.73037080  0.54716628  0.26236889  1  0  -0.094526  0  3.791389  0  0  -0.106778  0  4.037115  0  0  -0.108967  0  4.058233  0  -0.169807  0  -0.101173  -0.105243  0  4.022765  0
C  C120  1  0.05904521  0.99529331  0.78755611  1  0  -0.094482  0  3.827767  0  0  -0.104311  0  4.07209  0  0  -0.106293  0  4.094268  0  -0.076874  0  -0.104451  -0.1029  0  4.057008  0
C  C121  1  0.05906975  0.49529686  0.71244452  1  0  -0.094569  0  3.827627  0  0  -0.10445  0  4.072023  0  0  -0.106433  0  4.094208  0  -0.076627  0  -0.104632  -0.103043  0  4.056946  0
C  C122  1  0.94095960  0.00470863  0.21243452  1  0  -0.094841  0  3.828455  0  0  -0.104677  0  4.072798  0  0  -0.106658  0  4.094977  0  -0.077306  0  -0.104636  -0.10327  0  4.057715  0
C  C123  1  0.94094634  0.50470937  0.28756127  1  0  -0.09458  0  3.82773  0  0  -0.104403  0  4.072098  0  0  -0.106387  0  4.094271  0  -0.076565  0  -0.10447  -0.102994  0  4.057024  0
C  C124  1  0.90679461  0.92665166  0.82606406  1  0  -0.151133  0  3.793485  0  0  -0.168503  0  4.037687  0  0  -0.170829  0  4.056804  0  -0.101396  0  -0.118375  -0.166937  0  4.024885  0
C  C125  1  0.90676919  0.42666931  0.67393657  1  0  -0.151208  0  3.793112  0  0  -0.168693  0  4.037342  0  0  -0.171013  0  4.056446  0  -0.101791  0  -0.118429  -0.167118  0  4.024551  0
C  C126  1  0.09321172  0.07334772  0.17393415  1  0  -0.150737  0  3.793711  0  0  -0.168104  0  4.037956  0  0  -0.170423  0  4.057071  0  -0.100959  0  -0.118301  -0.166537  0  4.025153  0
C  C127  1  0.09323457  0.57333948  0.32606827  1  0  -0.151064  0  3.79338  0  0  -0.168476  0  4.037574  0  0  -0.170798  0  4.056684  0  -0.101677  0  -0.118411  -0.166911  0  4.024771  0
O  O128  1  0.72496694  0.87759114  0.95831196  1  0  -0.816742  0  2.047181  0  0  -0.763722  0  2.298672  0  0  -0.7877  0  2.296528  0  -1.242553  0  -0.592738  -0.746294  0  2.299237  0
O  O129  1  0.72498972  0.37757502  0.54167730  1  0  -0.816689  0  2.047638  0  0  -0.763668  0  2.299127  0  0  -0.787644  0  2.296981  0  -1.243221  0  -0.592709  -0.746289  0  2.299788  0
O  O130  1  0.27502080  0.12241937  0.04168672  1  0  -0.816778  0  2.04732  0  0  -0.763847  0  2.298897  0  0  -0.787827  0  2.296755  0  -1.242665  0  -0.592798  -0.746428  0  2.299494  0
O  O131  1  0.27501484  0.62240809  0.45831665  1  0  -0.816712  0  2.047397  0  0  -0.763663  0  2.298942  0  0  -0.787643  0  2.2968  0  -1.242611  0  -0.592701  -0.746265  0  2.29957  0
