# generated using pymatgen
data_CdH12PtC10(N3O)2
_symmetry_space_group_name_H-M   'P 1'
_cell_length_a   8.64355286
_cell_length_b   8.72685949
_cell_length_c   11.38599919
_cell_angle_alpha   73.68416762
_cell_angle_beta   72.45403469
_cell_angle_gamma   68.78495695
_symmetry_Int_Tables_number   1
_chemical_formula_structural   CdH12PtC10(N3O)2
_chemical_formula_sum   'Cd2 H24 Pt2 C20 N12 O4'
_cell_volume   749.00041959
_cell_formula_units_Z   2
loop_
 _symmetry_equiv_pos_site_id
 _symmetry_equiv_pos_as_xyz
  1  'x, y, z'
loop_
 _atom_site_type_symbol
 _atom_site_label
 _atom_site_symmetry_multiplicity
 _atom_site_fract_x
 _atom_site_fract_y
 _atom_site_fract_z
 _atom_site_occupancy
 _atom_site_hle17_bader_spin_density
 _atom_site_hle17_ddec_charge
 _atom_site_hle17_ddec_spin_density
 _atom_site_hle17_ddec_sum_bond_order
 _atom_site_hle17_magmom
 _atom_site_hse06_10hf_bader_spin_density
 _atom_site_hse06_10hf_ddec_charge
 _atom_site_hse06_10hf_ddec_spin_density
 _atom_site_hse06_10hf_ddec_sum_bond_order
 _atom_site_hse06_10hf_magmom
 _atom_site_hse06_bader_spin_density
 _atom_site_hse06_ddec_charge
 _atom_site_hse06_ddec_spin_density
 _atom_site_hse06_ddec_sum_bond_order
 _atom_site_hse06_magmom
 _atom_site_pbe_bader_spin_density
 _atom_site_pbe_cm5_charge
 _atom_site_pbe_ddec_charge
 _atom_site_pbe_ddec_spin_density
 _atom_site_pbe_ddec_sum_bond_order
 _atom_site_pbe_magmom
Cd  Cd0  1  0.33767049  0.14871627  0.26667441  1  0  1.143145  0  1.739837  0  0  0.958716  0  2.190197  0  0  1.007501  0  2.143276  0  0  0.796491  0.924418  0  2.222  0
Cd  Cd1  1  0.66232993  0.85128465  0.73332503  1  0  1.143195  0  1.739774  0  0  0.958771  0  2.190125  0  0  1.007555  0  2.143204  0  0  0.79651  0.924471  0  2.221932  0
H  H2  1  0.07070939  0.41137868  0.37874572  1  0  0.289902  0  0.904574  0  0  0.283375  0  0.955916  0  0  0.288077  0  0.954021  0  0  0.292557  0.280005  0  0.957373  0
H  H3  1  0.92929391  0.58862106  0.62125159  1  0  0.289928  0  0.904577  0  0  0.283412  0  0.9559  0  0  0.288114  0  0.954005  0  0  0.29256  0.280042  0  0.957358  0
H  H4  1  0.17497026  0.50067794  0.24609476  1  0  0.289591  0  0.904773  0  0  0.282864  0  0.956379  0  0  0.287496  0  0.954532  0  0  0.293959  0.279611  0  0.957655  0
H  H5  1  0.82502824  0.49932176  0.75390268  1  0  0.28959  0  0.904779  0  0  0.282866  0  0.956385  0  0  0.287499  0  0.954535  0  0  0.293942  0.279612  0  0.957662  0
H  H6  1  0.91845770  0.33973189  0.26646624  1  0  0.079547  0  0.917375  0  0  0.099007  0  0.974712  0  0  0.098705  0  0.976041  0  0  0.111257  0.099215  0  0.973783  0
H  H7  1  0.08154483  0.66026660  0.73353061  1  0  0.079591  0  0.917319  0  0  0.09904  0  0.97466  0  0  0.098743  0  0.975977  0  0  0.11126  0.099226  0  0.973753  0
H  H8  1  0.02759949  0.43690550  0.12619299  1  0  0.082611  0  0.909539  0  0  0.103684  0  0.964228  0  0  0.103413  0  0.965809  0  0  0.112362  0.103781  0  0.963315  0
H  H9  1  0.97239403  0.56310158  0.87380842  1  0  0.082583  0  0.909519  0  0  0.103655  0  0.964215  0  0  0.103383  0  0.965797  0  0  0.112328  0.103762  0  0.963286  0
H  H10  1  0.36662114  0.41380852  0.04744393  1  0  0.407947  0  0.903922  0  0  0.371159  0  0.977823  0  0  0.381957  0  0.962047  0  0  0.285008  0.363593  0  0.988848  0
H  H11  1  0.63338253  0.58618994  0.95255443  1  0  0.407979  0  0.90386  0  0  0.371199  0  0.977745  0  0  0.381996  0  0.961969  0  0  0.285052  0.363634  0  0.988767  0
H  H12  1  0.55509481  0.30432838  0.04924997  1  0  0.404141  0  0.898002  0  0  0.376663  0  0.958483  0  0  0.385025  0  0.946547  0  0  0.289377  0.3708  0  0.966833  0
H  H13  1  0.44491014  0.69567391  0.95074562  1  0  0.404179  0  0.898008  0  0  0.376688  0  0.958469  0  0  0.385051  0  0.946533  0  0  0.289404  0.370826  0  0.966819  0
H  H14  1  0.68129091  0.54434152  0.14863898  1  0  0.111759  0  0.963168  0  0  0.121912  0  1.02265  0  0  0.124757  0  1.02241  0  0  0.104864  0.119878  0  1.022964  0
H  H15  1  0.31870551  0.45565308  0.85136165  1  0  0.111799  0  0.963208  0  0  0.121953  0  1.022671  0  0  0.124795  0  1.022436  0  0  0.104882  0.11992  0  1.022983  0
H  H16  1  0.17685132  0.93678878  0.47427040  1  0  0.403927  0  0.892602  0  0  0.376229  0  0.957496  0  0  0.384505  0  0.945695  0  0  0.291355  0.370406  0  0.9658  0
H  H17  1  0.82314468  0.06321460  0.52572947  1  0  0.403994  0  0.892504  0  0  0.376271  0  0.957455  0  0  0.384549  0  0.945649  0  0  0.291362  0.37045  0  0.965757  0
H  H18  1  0.07720925  0.12059928  0.49877231  1  0  0.408489  0  0.900453  0  0  0.372812  0  0.972242  0  0  0.383556  0  0.956553  0  0  0.28594  0.365275  0  0.983225  0
H  H19  1  0.92278923  0.87940794  0.50122453  1  0  0.408521  0  0.900384  0  0  0.37285  0  0.972177  0  0  0.383592  0  0.956492  0  0  0.28597  0.365313  0  0.983159  0
H  H20  1  0.70017685  0.97378173  0.33995580  1  0  0.086834  0  0.962343  0  0  0.092599  0  1.030271  0  0  0.095294  0  1.027479  0  0  0.111006  0.090602  0  1.032326  0
H  H21  1  0.29981639  0.02622291  0.66004262  1  0  0.086792  0  0.962377  0  0  0.092559  0  1.030294  0  0  0.095255  0  1.027503  0  0  0.111015  0.090563  0  1.032345  0
H  H22  1  0.44884100  0.81458922  0.16158918  1  0  0.082036  0  0.953504  0  0  0.091134  0  1.015318  0  0  0.093198  0  1.013888  0  0  0.112008  0.089625  0  1.016325  0
H  H23  1  0.55115388  0.18541043  0.83840901  1  0  0.082049  0  0.953472  0  0  0.091171  0  1.015266  0  0  0.093242  0  1.013828  0  0  0.112008  0.089662  0  1.016273  0
H  H24  1  0.94632701  0.71653189  0.32734867  1  0  0.105444  0  0.973604  0  0  0.1128  0  1.039733  0  0  0.116223  0  1.038787  0  0  0.100055  0.110384  0  1.040563  0
H  H25  1  0.05366778  0.28346770  0.67265219  1  0  0.105423  0  0.973612  0  0  0.112766  0  1.039739  0  0  0.116188  0  1.038793  0  0  0.100054  0.11035  0  1.040569  0
Pt  Pt26  1  0.99999664  0.00000378  0.99999642  1  0  0.088639  0  4.062169  0  0  0.117217  0  4.632213  0  0  0.105376  0  4.609884  0  0  0.539307  0.127035  0  4.645989  0
Pt  Pt27  1  0.49999543  0.50000156  0.50000488  1  0  0.085524  0  4.100391  0  0  0.127151  0  4.654322  0  0  0.113067  0  4.637192  0  0  0.549153  0.138225  0  4.664947  0
C  C28  1  0.11642873  0.03784367  0.10998117  1  0  0.119057  0  3.593524  0  0  0.085183  0  3.935441  0  0  0.099708  0  3.944035  0  0  0.007502  0.074949  0  3.929335  0
C  C29  1  0.88358381  0.96216119  0.89001410  1  0  0.118938  0  3.59394  0  0  0.085057  0  3.935887  0  0  0.099584  0  3.944483  0  0  0.007471  0.074821  0  3.929783  0
C  C30  1  0.49014340  0.34166194  0.41014464  1  0  0.116081  0  3.610868  0  0  0.07956  0  3.951392  0  0  0.094472  0  3.961241  0  0  0.000705  0.069024  0  3.944524  0
C  C31  1  0.50985924  0.65833134  0.58986111  1  0  0.115955  0  3.611215  0  0  0.079419  0  3.951756  0  0  0.094334  0  3.961603  0  0  0.00063  0.068884  0  3.944887  0
C  C32  1  0.26897250  0.64084717  0.47850573  1  0  0.105269  0  3.600265  0  0  0.072973  0  3.941531  0  0  0.08562  0  3.949926  0  0  0.008208  0.06412  0  3.935634  0
C  C33  1  0.73103371  0.35914989  0.52150030  1  0  0.105272  0  3.599912  0  0  0.07298  0  3.941167  0  0  0.085629  0  3.949565  0  0  0.008242  0.064127  0  3.935271  0
C  C34  1  0.97468756  0.44287935  0.22611495  1  0  0.031362  0  3.692818  0  0  -0.032432  0  3.956134  0  0  -0.029068  0  3.968974  0  0  -0.067665  -0.034632  0  3.947121  0
C  C35  1  0.02531286  0.55711780  0.77388523  1  0  0.0313  0  3.69251  0  0  -0.032452  0  3.95585  0  0  -0.029089  0  3.968682  0  0  -0.067687  -0.034646  0  3.946836  0
C  C36  1  0.69112961  0.63742511  0.19042123  1  0  -0.169086  0  3.727138  0  0  -0.191095  0  3.987849  0  0  -0.199023  0  4.007358  0  0  -0.091176  -0.186119  0  3.974899  0
C  C37  1  0.30886137  0.36257431  0.80958573  1  0  -0.169225  0  3.726737  0  0  -0.191191  0  3.987498  0  0  -0.199118  0  4.00701  0  0  -0.091234  -0.186212  0  3.974547  0
C  C38  1  0.70173303  0.87695963  0.29611339  1  0  0.133441  0  3.724512  0  0  0.097954  0  3.990141  0  0  0.106647  0  4.006607  0  0  0.039807  0.092428  0  3.978749  0
C  C39  1  0.29825517  0.12304481  0.70389227  1  0  0.133357  0  3.724735  0  0  0.097876  0  3.990356  0  0  0.106569  0  4.006824  0  0  0.039705  0.092352  0  3.978964  0
C  C40  1  0.56075811  0.78706761  0.19817690  1  0  0.135492  0  3.732193  0  0  0.100778  0  3.992072  0  0  0.10907  0  4.0092  0  0  0.040589  0.095509  0  3.980301  0
C  C41  1  0.43923551  0.21292069  0.80182467  1  0  0.13561  0  3.731913  0  0  0.100863  0  3.991803  0  0  0.109152  0  4.008926  0  0  0.04071  0.095594  0  3.980032  0
C  C42  1  0.83472972  0.60676069  0.23643929  1  0  0.11192  0  3.736061  0  0  0.123687  0  3.985971  0  0  0.129024  0  4.007141  0  0  0.003908  0.120373  0  3.971546  0
C  C43  1  0.16526136  0.39322749  0.76356635  1  0  0.111979  0  3.736066  0  0  0.123637  0  3.98608  0  0  0.128973  0  4.007254  0  0  0.003918  0.120318  0  3.971671  0
C  C44  1  0.83891819  0.73080223  0.28968407  1  0  -0.181527  0  3.733799  0  0  -0.204975  0  3.997545  0  0  -0.213436  0  4.017533  0  0  -0.097042  -0.199645  0  3.984171  0
C  C45  1  0.16107737  0.26919483  0.71031801  1  0  -0.181324  0  3.734167  0  0  -0.204715  0  3.997927  0  0  -0.213175  0  4.017918  0  0  -0.09694  -0.199376  0  3.984532  0
C  C46  1  0.85328153  0.23448612  0.98792949  1  0  0.110261  0  3.605309  0  0  0.0791  0  3.945682  0  0  0.09162  0  3.95328  0  0  0.010764  0.070301  0  3.940228  0
C  C47  1  0.14673596  0.76551511  0.01206196  1  0  0.110102  0  3.605315  0  0  0.078946  0  3.945663  0  0  0.091463  0  3.953261  0  0  0.010675  0.070148  0  3.940208  0
N  N48  1  0.11595762  0.40961352  0.28493787  1  0  -0.637536  0  3.114572  0  0  -0.58535  0  3.35717  0  0  -0.604814  0  3.358836  0  0  -0.625245  -0.571667  0  3.355684  0
N  N49  1  0.88403686  0.59039116  0.71505941  1  0  -0.63765  0  3.114583  0  0  -0.585473  0  3.357144  0  0  -0.604935  0  3.358809  0  0  -0.625217  -0.571784  0  3.355655  0
N  N50  1  0.56467771  0.90531133  0.25110419  1  0  -0.357557  0  3.275444  0  0  -0.279234  0  3.547129  0  0  -0.300595  0  3.565894  0  0  -0.335774  -0.264675  0  3.533806  0
N  N51  1  0.43531833  0.09468454  0.74889539  1  0  -0.357639  0  3.275614  0  0  -0.279318  0  3.547296  0  0  -0.300678  0  3.566062  0  0  -0.335836  -0.264761  0  3.533977  0
N  N52  1  0.48153196  0.25040107  0.35581099  1  0  -0.461208  0  2.955718  0  0  -0.389831  0  3.23821  0  0  -0.411248  0  3.248221  0  0  -0.375008  -0.37514  0  3.231199  0
N  N53  1  0.51846729  0.74960362  0.64418706  1  0  -0.461094  0  2.955857  0  0  -0.389717  0  3.238335  0  0  -0.411134  0  3.248349  0  0  -0.37497  -0.375027  0  3.231323  0
N  N54  1  0.13087075  0.72574637  0.46832183  1  0  -0.475387  0  2.850843  0  0  -0.414333  0  3.095964  0  0  -0.430624  0  3.105562  0  0  -0.357498  -0.403234  0  3.089586  0
N  N55  1  0.86915284  0.27424592  0.53167979  1  0  -0.475492  0  2.850721  0  0  -0.414429  0  3.095836  0  0  -0.430724  0  3.105437  0  0  -0.357557  -0.40333  0  3.089459  0
N  N56  1  0.18474971  0.06073634  0.17504730  1  0  -0.460919  0  2.967066  0  0  -0.390766  0  3.253024  0  0  -0.412129  0  3.263291  0  0  -0.370734  -0.376105  0  3.24588  0
N  N57  1  0.81525499  0.93926202  0.82495615  1  0  -0.460789  0  2.96703  0  0  -0.390647  0  3.252986  0  0  -0.41201  0  3.263257  0  0  -0.370727  -0.375985  0  3.24584  0
N  N58  1  0.76288227  0.37309781  0.98091881  1  0  -0.470087  0  2.88002  0  0  -0.406569  0  3.120729  0  0  -0.422915  0  3.130636  0  0  -0.351942  -0.395386  0  3.114066  0
N  N59  1  0.23712180  0.62689941  0.01907973  1  0  -0.469962  0  2.880162  0  0  -0.406426  0  3.120849  0  0  -0.422772  0  3.130758  0  0  -0.351846  -0.395242  0  3.114183  0
O  O60  1  0.44003344  0.29605152  0.06496581  1  0  -0.821394  0  1.892184  0  0  -0.761231  0  2.081277  0  0  -0.781961  0  2.051412  0  0  -0.588715  -0.746492  0  2.101699  0
O  O61  1  0.55997097  0.70394817  0.93503392  1  0  -0.821475  0  1.892156  0  0  -0.761306  0  2.081225  0  0  -0.782035  0  2.051358  0  0  -0.588789  -0.746556  0  2.101627  0
O  O62  1  0.19261494  0.04317658  0.47292673  1  0  -0.810559  0  1.875397  0  0  -0.748466  0  2.060681  0  0  -0.769192  0  2.03078  0  0  -0.581122  -0.733756  0  2.081278  0
O  O63  1  0.80738261  0.95682929  0.52707408  1  0  -0.810648  0  1.875236  0  0  -0.748574  0  2.060528  0  0  -0.769301  0  2.030623  0  0  -0.581158  -0.733863  0  2.081124  0
