# generated using pymatgen
data_CdH18C26S2(N2O)2
_symmetry_space_group_name_H-M   'P 1'
_cell_length_a   5.82690228
_cell_length_b   7.55060735
_cell_length_c   13.59028584
_cell_angle_alpha   104.92163703
_cell_angle_beta   92.73421791
_cell_angle_gamma   93.92729654
_symmetry_Int_Tables_number   1
_chemical_formula_structural   CdH18C26S2(N2O)2
_chemical_formula_sum   'Cd1 H18 C26 S2 N4 O2'
_cell_volume   575.08207144
_cell_formula_units_Z   1
loop_
 _symmetry_equiv_pos_site_id
 _symmetry_equiv_pos_as_xyz
  1  'x, y, z'
loop_
 _atom_site_type_symbol
 _atom_site_label
 _atom_site_symmetry_multiplicity
 _atom_site_fract_x
 _atom_site_fract_y
 _atom_site_fract_z
 _atom_site_occupancy
 _atom_site_hle17_bader_spin_density
 _atom_site_hle17_ddec_charge
 _atom_site_hle17_ddec_spin_density
 _atom_site_hle17_ddec_sum_bond_order
 _atom_site_hle17_magmom
 _atom_site_hse06_10hf_bader_spin_density
 _atom_site_hse06_10hf_ddec_charge
 _atom_site_hse06_10hf_ddec_spin_density
 _atom_site_hse06_10hf_ddec_sum_bond_order
 _atom_site_hse06_10hf_magmom
 _atom_site_hse06_bader_spin_density
 _atom_site_hse06_ddec_charge
 _atom_site_hse06_ddec_spin_density
 _atom_site_hse06_ddec_sum_bond_order
 _atom_site_hse06_magmom
 _atom_site_pbe_bader_spin_density
 _atom_site_pbe_cm5_charge
 _atom_site_pbe_ddec_charge
 _atom_site_pbe_ddec_spin_density
 _atom_site_pbe_ddec_sum_bond_order
 _atom_site_pbe_magmom
Cd  Cd0  1  0.00000985  0.49999411  0.49999890  1  0  0.958847  0  1.943652  0  0  0.772346  0  2.404127  0  0  0.820007  0  2.365963  0  0  0.726444  0.739253  0  2.429601  0
H  H1  1  0.56066719  0.25493638  0.35549195  1  0  0.077082  0  0.970359  0  0  0.085034  0  1.035727  0  0  0.08634  0  1.03552  0  0  0.111528  0.08403  0  1.03596  0
H  H2  1  0.43932445  0.74507290  0.64451443  1  0  0.077065  0  0.970483  0  0  0.084981  0  1.035884  0  0  0.086287  0  1.035677  0  0  0.111531  0.083977  0  1.036116  0
H  H3  1  0.37137442  0.20028537  0.18035740  1  0  0.105455  0  0.981011  0  0  0.112055  0  1.047978  0  0  0.114215  0  1.049605  0  0  0.10444  0.110476  0  1.046973  0
H  H4  1  0.62862069  0.79970607  0.81963251  1  0  0.105468  0  0.981055  0  0  0.112033  0  1.048065  0  0  0.114202  0  1.049678  0  0  0.104424  0.110459  0  1.047047  0
H  H5  1  0.98465214  0.46878604  0.09773241  1  0  0.125911  0  0.945678  0  0  0.133124  0  1.008062  0  0  0.136608  0  1.006803  0  0  0.112459  0.130619  0  1.009124  0
H  H6  1  0.01534866  0.53121223  0.90227113  1  0  0.125869  0  0.945693  0  0  0.13307  0  1.008081  0  0  0.136552  0  1.006826  0  0  0.112445  0.130566  0  1.009145  0
H  H7  1  0.14122026  0.52331419  0.27808931  1  0  0.083549  0  0.961848  0  0  0.08978  0  1.029205  0  0  0.091822  0  1.0283  0  0  0.112236  0.088296  0  1.029896  0
H  H8  1  0.85877235  0.47668686  0.72190708  1  0  0.083635  0  0.961776  0  0  0.089807  0  1.029193  0  0  0.091851  0  1.028285  0  0  0.112248  0.088321  0  1.029889  0
H  H9  1  0.95696044  0.14482018  0.00749452  1  0  0.088345  0  0.991377  0  0  0.097942  0  1.057556  0  0  0.100162  0  1.057053  0  0  0.100516  0.096353  0  1.057962  0
H  H10  1  0.04302666  0.85516161  0.99250117  1  0  0.088291  0  0.991418  0  0  0.097935  0  1.05755  0  0  0.100157  0  1.057046  0  0  0.100514  0.096345  0  1.057956  0
H  H11  1  0.14654054  0.00427726  0.85076451  1  0  0.085311  0  0.975758  0  0  0.093756  0  1.041094  0  0  0.09558  0  1.042384  0  0  0.096349  0.092479  0  1.040244  0
H  H12  1  0.85345234  0.99569355  0.14922459  1  0  0.085341  0  0.975846  0  0  0.093796  0  1.04114  0  0  0.095624  0  1.042419  0  0  0.096349  0.09251  0  1.040319  0
H  H13  1  0.96253064  0.99790702  0.68031895  1  0  0.085735  0  0.97486  0  0  0.091902  0  1.045499  0  0  0.094522  0  1.044529  0  0  0.090936  0.089976  0  1.046269  0
H  H14  1  0.03745873  0.00209542  0.31967462  1  0  0.08579  0  0.974942  0  0  0.091939  0  1.045593  0  0  0.094561  0  1.044624  0  0  0.090982  0.090014  0  1.046361  0
H  H15  1  0.58701510  0.12843569  0.66790961  1  0  0.08923  0  0.988616  0  0  0.095793  0  1.056377  0  0  0.09783  0  1.0568  0  0  0.09305  0.094278  0  1.05625  0
H  H16  1  0.41298312  0.87158598  0.33209209  1  0  0.089197  0  0.988666  0  0  0.095767  0  1.056434  0  0  0.097793  0  1.056853  0  0  0.093042  0.094244  0  1.056316  0
H  H17  1  0.39669084  0.27318683  0.82641559  1  0  0.096009  0  0.965356  0  0  0.104045  0  1.03099  0  0  0.106684  0  1.030407  0  0  0.101716  0.102108  0  1.031536  0
H  H18  1  0.60331413  0.72683347  0.17358386  1  0  0.095917  0  0.965476  0  0  0.103968  0  1.03114  0  0  0.106614  0  1.030519  0  0  0.101683  0.102032  0  1.031686  0
C  C19  1  0.48563294  0.29505507  0.53561654  1  0  0.300934  0  4.023514  0  0  0.278168  0  4.330048  0  0  0.30123  0  4.342878  0  0  0.147454  0.26255  0  4.320903  0
C  C20  1  0.51438986  0.70495691  0.46439463  1  0  0.300901  0  4.023592  0  0  0.278141  0  4.330114  0  0  0.301206  0  4.342941  0  0  0.147445  0.262524  0  4.320968  0
C  C21  1  0.64814884  0.30118239  0.29642207  1  0  0.13257  0  3.694988  0  0  0.106062  0  3.938737  0  0  0.112333  0  3.957769  0  0  0.046649  0.101899  0  3.925909  0
C  C22  1  0.35184499  0.69881452  0.70357817  1  0  0.132623  0  3.694999  0  0  0.106143  0  3.938768  0  0  0.112413  0  3.957799  0  0  0.046707  0.101979  0  3.925943  0
C  C23  1  0.54368942  0.27022894  0.19869766  1  0  -0.131848  0  3.703024  0  0  -0.149764  0  3.947289  0  0  -0.155318  0  3.967865  0  0  -0.077361  -0.14622  0  3.933732  0
C  C24  1  0.45630756  0.72976522  0.80130151  1  0  -0.131816  0  3.703136  0  0  -0.149709  0  3.947396  0  0  -0.155263  0  3.967963  0  0  -0.077387  -0.146167  0  3.933841  0
C  C25  1  0.66333214  0.32800309  0.12411817  1  0  0.024356  0  3.725907  0  0  0.034873  0  3.962454  0  0  0.035259  0  3.980611  0  0  0.004708  0.034765  0  3.950218  0
C  C26  1  0.33666299  0.67198970  0.87588003  1  0  0.024287  0  3.725987  0  0  0.034812  0  3.962534  0  0  0.035193  0  3.980695  0  0  0.00476  0.03471  0  3.950302  0
C  C27  1  0.88351622  0.41941104  0.15202288  1  0  -0.130277  0  3.675656  0  0  -0.150634  0  3.928485  0  0  -0.155266  0  3.946114  0  0  -0.074263  -0.147776  0  3.91687  0
C  C28  1  0.11647730  0.58058311  0.84797843  1  0  -0.130216  0  3.675612  0  0  -0.150543  0  3.92841  0  0  -0.155172  0  3.946034  0  0  -0.074262  -0.147695  0  3.916804  0
C  C29  1  0.97296935  0.44894481  0.25240397  1  0  0.130412  0  3.6916  0  0  0.100087  0  3.945212  0  0  0.1066  0  3.963179  0  0  0.047242  0.095853  0  3.933012  0
C  C30  1  0.02701891  0.55104798  0.74759407  1  0  0.130247  0  3.69155  0  0  0.099957  0  3.94518  0  0  0.106471  0  3.963142  0  0  0.047166  0.095723  0  3.932978  0
C  C31  1  0.54310571  0.29695602  0.01992193  1  0  0.389081  0  3.709076  0  0  0.370847  0  3.965244  0  0  0.392993  0  3.96683  0  0  0.165421  0.355677  0  3.964085  0
C  C32  1  0.45690176  0.70303952  0.98007548  1  0  0.389231  0  3.709287  0  0  0.370991  0  3.965472  0  0  0.393135  0  3.967055  0  0  0.165499  0.355817  0  3.964319  0
C  C33  1  0.66477685  0.21949014  0.92738912  1  0  -0.054767  0  3.7831  0  0  -0.03601  0  4.015321  0  0  -0.044339  0  4.04058  0  0  -0.024009  -0.030462  0  3.998131  0
C  C34  1  0.33521771  0.78051364  0.07261213  1  0  -0.054955  0  3.783236  0  0  -0.036155  0  4.015484  0  0  -0.044481  0  4.040744  0  0  -0.024012  -0.030604  0  3.998289  0
C  C35  1  0.87538862  0.14214745  0.93349038  1  0  -0.068481  0  3.723524  0  0  -0.093278  0  3.97051  0  0  -0.092448  0  3.990491  0  0  -0.08139  -0.093515  0  3.956761  0
C  C36  1  0.12460109  0.85784260  0.06650583  1  0  -0.06839  0  3.723626  0  0  -0.093228  0  3.970601  0  0  -0.092404  0  3.990586  0  0  -0.081354  -0.093461  0  3.956848  0
C  C37  1  0.98220739  0.06263582  0.84504848  1  0  -0.07734  0  3.761195  0  0  -0.088049  0  4.011704  0  0  -0.091539  0  4.032604  0  0  -0.092633  -0.085788  0  3.99752  0
C  C38  1  0.01778046  0.93735285  0.15494749  1  0  -0.077389  0  3.761318  0  0  -0.088112  0  4.011838  0  0  -0.091605  0  4.032748  0  0  -0.092702  -0.085853  0  3.997648  0
C  C39  1  0.87962132  0.05942979  0.74973875  1  0  -0.043153  0  3.729312  0  0  -0.059223  0  3.974923  0  0  -0.059614  0  3.996236  0  0  -0.079672  -0.058647  0  3.960286  0
C  C40  1  0.12036410  0.94056851  0.25025929  1  0  -0.043185  0  3.729269  0  0  -0.059231  0  3.974879  0  0  -0.059626  0  3.996196  0  0  -0.079656  -0.058652  0  3.960237  0
C  C41  1  0.66776443  0.13416367  0.74268707  1  0  -0.078604  0  3.757972  0  0  -0.085632  0  4.000594  0  0  -0.090545  0  4.023904  0  0  -0.088765  -0.082361  0  3.984735  0
C  C42  1  0.33223570  0.86584423  0.25731636  1  0  -0.078622  0  3.757812  0  0  -0.085641  0  4.000466  0  0  -0.090534  0  4.02376  0  0  -0.088767  -0.082365  0  3.984615  0
C  C43  1  0.56116076  0.21421514  0.83067157  1  0  -0.060107  0  3.699985  0  0  -0.083024  0  3.944177  0  0  -0.081999  0  3.964246  0  0  -0.077653  -0.083467  0  3.930463  0
C  C44  1  0.43884268  0.78579139  0.16933027  1  0  -0.059913  0  3.699905  0  0  -0.082902  0  3.944148  0  0  -0.081869  0  3.964217  0  0  -0.077645  -0.083344  0  3.930425  0
S  S45  1  0.22718965  0.19133268  0.51885251  1  0  -0.316289  0  2.103074  0  0  -0.282055  0  2.421502  0  0  -0.29942  0  2.41508  0  0  -0.134493  -0.269805  0  2.425513  0
S  S46  1  0.77283867  0.80868340  0.48116380  1  0  -0.316284  0  2.102978  0  0  -0.282028  0  2.421359  0  0  -0.299395  0  2.414939  0  0  -0.134457  -0.269776  0  2.425367  0
N  N47  1  0.67461205  0.36964840  0.55000074  1  0  -0.545261  0  2.89785  0  0  -0.487249  0  3.179416  0  0  -0.509211  0  3.185474  0  0  -0.396515  -0.472232  0  3.174987  0
N  N48  1  0.32540941  0.63036769  0.45001467  1  0  -0.545267  0  2.897981  0  0  -0.487291  0  3.179604  0  0  -0.509253  0  3.185663  0  0  -0.396576  -0.472263  0  3.175153  0
N  N49  1  0.85913910  0.38988661  0.32335608  1  0  -0.329599  0  3.256896  0  0  -0.251307  0  3.511927  0  0  -0.270714  0  3.532793  0  0  -0.322755  -0.238066  0  3.49744  0
N  N50  1  0.14085159  0.61011306  0.67664375  1  0  -0.329602  0  3.256944  0  0  -0.251301  0  3.511955  0  0  -0.270708  0  3.532818  0  0  -0.322772  -0.238058  0  3.497466  0
O  O51  1  0.33972238  0.33341492  0.01494091  1  0  -0.457674  0  1.962602  0  0  -0.413393  0  2.180195  0  0  -0.431759  0  2.179243  0  0  -0.248398  -0.400626  0  2.180624  0
O  O52  1  0.66027066  0.66659025  0.98505755  1  0  -0.457651  0  1.962941  0  0  -0.413394  0  2.180564  0  0  -0.431761  0  2.179611  0  0  -0.248445  -0.400631  0  2.181  0
