# generated using pymatgen
data_Cu3H7C6(NCl)3
_symmetry_space_group_name_H-M   'P 1'
_cell_length_a   3.78339062
_cell_length_b   13.85412550
_cell_length_c   19.48618123
_cell_angle_alpha   98.40830443
_cell_angle_beta   90.00982964
_cell_angle_gamma   97.81931209
_symmetry_Int_Tables_number   1
_chemical_formula_structural   Cu3H7C6(NCl)3
_chemical_formula_sum   'Cu12 H28 C24 N12 Cl12'
_cell_volume   1000.79612429
_cell_formula_units_Z   4
loop_
 _symmetry_equiv_pos_site_id
 _symmetry_equiv_pos_as_xyz
  1  'x, y, z'
loop_
 _atom_site_type_symbol
 _atom_site_label
 _atom_site_symmetry_multiplicity
 _atom_site_fract_x
 _atom_site_fract_y
 _atom_site_fract_z
 _atom_site_occupancy
 _atom_site_hle17_bader_spin_density
 _atom_site_hle17_ddec_charge
 _atom_site_hle17_ddec_spin_density
 _atom_site_hle17_ddec_sum_bond_order
 _atom_site_hle17_magmom
 _atom_site_hse06_10hf_bader_spin_density
 _atom_site_hse06_10hf_ddec_charge
 _atom_site_hse06_10hf_ddec_spin_density
 _atom_site_hse06_10hf_ddec_sum_bond_order
 _atom_site_hse06_10hf_magmom
 _atom_site_hse06_bader_spin_density
 _atom_site_hse06_ddec_charge
 _atom_site_hse06_ddec_spin_density
 _atom_site_hse06_ddec_sum_bond_order
 _atom_site_hse06_magmom
 _atom_site_pbe_bader_spin_density
 _atom_site_pbe_cm5_charge
 _atom_site_pbe_ddec_charge
 _atom_site_pbe_ddec_spin_density
 _atom_site_pbe_ddec_sum_bond_order
 _atom_site_pbe_magmom
Cu  Cu0  1  0.15618255  0.56978096  0.05312838  1  0  0.431773  0  1.854423  0  0  0.312183  0  2.342687  0  0  0.325242  0  2.282225  0  0  0.456763  0.305728  0  2.382476  0
Cu  Cu1  1  0.58785468  0.43028264  0.44686724  1  0  0.431368  0  1.852953  0  0  0.311742  0  2.34089  0  0  0.324964  0  2.280347  0  0  0.456019  0.305193  0  2.380774  0
Cu  Cu2  1  0.84376057  0.43021188  0.94686889  1  0  0.431816  0  1.854566  0  0  0.312256  0  2.342819  0  0  0.32534  0  2.282324  0  0  0.456824  0.30577  0  2.382613  0
Cu  Cu3  1  0.41217955  0.56972858  0.55313865  1  0  0.431371  0  1.852871  0  0  0.311744  0  2.340845  0  0  0.325001  0  2.280245  0  0  0.456006  0.305202  0  2.380711  0
Cu  Cu4  1  0.93006741  0.83003320  0.16076128  1  0  0.373217  0  2.021445  0  0  0.289104  0  2.526772  0  0  0.305821  0  2.459762  0  0  0.250578  0.279981  0  2.571203  0
Cu  Cu5  1  0.10107195  0.16977098  0.33875933  1  0  0.374003  0  2.020229  0  0  0.289763  0  2.526005  0  0  0.306475  0  2.458977  0  0  0.250141  0.280611  0  2.570494  0
Cu  Cu6  1  0.06994619  0.16996846  0.83923847  1  0  0.373233  0  2.021482  0  0  0.289109  0  2.526814  0  0  0.305821  0  2.459808  0  0  0.250584  0.279987  0  2.571261  0
Cu  Cu7  1  0.89892579  0.83023068  0.66124401  1  0  0.373955  0  2.020376  0  0  0.289724  0  2.526149  0  0  0.306438  0  2.459143  0  0  0.250151  0.280571  0  2.570652  0
Cu  Cu8  1  0.49740696  0.96117715  0.18287301  1  0  0.354481  0  2.068381  0  0  0.284123  0  2.562414  0  0  0.301612  0  2.492531  0  0  0.245733  0.272739  0  2.610356  0
Cu  Cu9  1  0.53707488  0.03855583  0.31690904  1  0  0.354421  0  2.068045  0  0  0.283734  0  2.562674  0  0  0.301377  0  2.492585  0  0  0.245494  0.272219  0  2.610773  0
Cu  Cu10  1  0.50260069  0.03881789  0.81712604  1  0  0.354529  0  2.068298  0  0  0.284184  0  2.562314  0  0  0.301688  0  2.492447  0  0  0.245754  0.2728  0  2.610257  0
Cu  Cu11  1  0.46295428  0.96143994  0.68309059  1  0  0.3544  0  2.068083  0  0  0.283705  0  2.562733  0  0  0.301351  0  2.492629  0  0  0.245503  0.2722  0  2.610832  0
H  H12  1  0.45128891  0.77716433  0.05361729  1  0  0.071544  0  0.985546  0  0  0.075324  0  1.066943  0  0  0.080306  0  1.057103  0  0  0.096993  0.071008  0  1.07477  0
H  H13  1  0.67462908  0.22288561  0.44626830  1  0  0.071597  0  0.986978  0  0  0.075984  0  1.067225  0  0  0.080818  0  1.057681  0  0  0.097536  0.071762  0  1.074892  0
H  H14  1  0.54867263  0.22283366  0.94638155  1  0  0.071536  0  0.985595  0  0  0.075283  0  1.067042  0  0  0.080264  0  1.057202  0  0  0.096934  0.070966  0  1.074881  0
H  H15  1  0.32537087  0.77712047  0.55373447  1  0  0.071661  0  0.987012  0  0  0.076005  0  1.067344  0  0  0.080846  0  1.057785  0  0  0.097517  0.071782  0  1.075015  0
H  H16  1  0.39895541  0.90291073  0.97421127  1  0  0.137179  0  0.952496  0  0  0.14411  0  1.013903  0  0  0.14799  0  1.014226  0  0  0.101687  0.141048  0  1.014287  0
H  H17  1  0.49657223  0.09700287  0.52551035  1  0  0.137368  0  0.952814  0  0  0.144779  0  1.013651  0  0  0.148549  0  1.014097  0  0  0.101985  0.141773  0  1.013954  0
H  H18  1  0.60098382  0.09709021  0.02578839  1  0  0.137218  0  0.952556  0  0  0.144163  0  1.013908  0  0  0.148048  0  1.014228  0  0  0.101715  0.141105  0  1.014291  0
H  H19  1  0.50341487  0.90300395  0.47449046  1  0  0.137393  0  0.952665  0  0  0.144786  0  1.013494  0  0  0.148564  0  1.013937  0  0  0.101998  0.141763  0  1.013819  0
H  H20  1  0.06599847  0.84333879  0.85828368  1  0  0.110736  0  0.970662  0  0  0.118837  0  1.03681  0  0  0.121424  0  1.03254  0  0  0.108943  0.116384  0  1.040534  0
H  H21  1  0.22394483  0.15645186  0.64153073  1  0  0.11053  0  0.970464  0  0  0.119053  0  1.036059  0  0  0.121632  0  1.031817  0  0  0.10937  0.116606  0  1.039738  0
H  H22  1  0.93393973  0.15665479  0.14171213  1  0  0.110721  0  0.970613  0  0  0.118795  0  1.036774  0  0  0.121385  0  1.032498  0  0  0.108954  0.116347  0  1.040498  0
H  H23  1  0.77607515  0.84355200  0.35847131  1  0  0.110497  0  0.970397  0  0  0.118937  0  1.036104  0  0  0.121507  0  1.031859  0  0  0.109364  0.116496  0  1.039785  0
H  H24  1  0.80268312  0.48768142  0.79485220  1  0  0.070026  0  0.931853  0  0  0.088281  0  0.992905  0  0  0.088479  0  0.993353  0  0  0.10045  0.08787  0  0.992836  0
H  H25  1  0.31375222  0.51213139  0.70516172  1  0  0.070635  0  0.93205  0  0  0.088661  0  0.993475  0  0  0.088741  0  0.994049  0  0  0.100729  0.088332  0  0.993315  0
H  H26  1  0.19730345  0.51230846  0.20514681  1  0  0.069966  0  0.931998  0  0  0.08823  0  0.993042  0  0  0.088429  0  0.99349  0  0  0.100428  0.087822  0  0.992966  0
H  H27  1  0.68628473  0.48787469  0.29484003  1  0  0.07062  0  0.931914  0  0  0.088686  0  0.993275  0  0  0.088776  0  0.99385  0  0  0.100742  0.088362  0  0.993109  0
H  H28  1  0.40438059  0.52011324  0.83272139  1  0  0.073743  0  0.96457  0  0  0.088853  0  1.027763  0  0  0.088682  0  1.029487  0  0  0.097861  0.088766  0  1.026712  0
H  H29  1  0.88355209  0.47937735  0.66718633  1  0  0.074716  0  0.962823  0  0  0.089799  0  1.025943  0  0  0.089551  0  1.027732  0  0  0.098417  0.089759  0  1.02485  0
H  H30  1  0.59560114  0.47987222  0.16727458  1  0  0.073807  0  0.964556  0  0  0.088923  0  1.02771  0  0  0.088753  0  1.029436  0  0  0.097893  0.088836  0  1.026653  0
H  H31  1  0.11648523  0.52062947  0.33281601  1  0  0.074728  0  0.962869  0  0  0.089721  0  1.026089  0  0  0.089475  0  1.027889  0  0  0.098431  0.089686  0  1.024993  0
H  H32  1  0.56588244  0.68512274  0.80384722  1  0  0.087702  0  0.945595  0  0  0.100849  0  1.010625  0  0  0.100957  0  1.011403  0  0  0.103498  0.100446  0  1.010411  0
H  H33  1  0.88220643  0.31452316  0.69616932  1  0  0.08792  0  0.947204  0  0  0.101507  0  1.012047  0  0  0.101542  0  1.012901  0  0  0.103722  0.101136  0  1.011794  0
H  H34  1  0.43409173  0.31486348  0.19614422  1  0  0.087581  0  0.945727  0  0  0.100808  0  1.010706  0  0  0.100914  0  1.011473  0  0  0.103513  0.100407  0  1.010494  0
H  H35  1  0.11784447  0.68548439  0.30383464  1  0  0.087918  0  0.94719  0  0  0.101391  0  1.012202  0  0  0.101419  0  1.013066  0  0  0.10372  0.101029  0  1.011949  0
H  H36  1  0.97614634  0.65438355  0.77181206  1  0  0.089673  0  0.947986  0  0  0.102229  0  1.015342  0  0  0.103493  0  1.01487  0  0  0.100456  0.100869  0  1.016103  0
H  H37  1  0.32335664  0.34546449  0.72807724  1  0  0.089324  0  0.948714  0  0  0.102319  0  1.016019  0  0  0.10357  0  1.015508  0  0  0.100585  0.100954  0  1.016779  0
H  H38  1  0.02384023  0.34560633  0.22818695  1  0  0.089574  0  0.947976  0  0  0.102142  0  1.015363  0  0  0.103401  0  1.014887  0  0  0.100441  0.100787  0  1.016122  0
H  H39  1  0.67669008  0.65454527  0.27192593  1  0  0.089176  0  0.948773  0  0  0.10224  0  1.016028  0  0  0.103488  0  1.015516  0  0  0.100602  0.100882  0  1.01679  0
C  C40  1  0.99783194  0.63173310  0.92561598  1  0  0.491269  0  3.80148  0  0  0.442978  0  4.056474  0  0  0.466513  0  4.069982  0  0  0.333028  0.427896  0  4.047221  0
C  C41  1  0.36646115  0.36821355  0.57432093  1  0  0.490172  0  3.802911  0  0  0.442283  0  4.057422  0  0  0.465792  0  4.070985  0  0  0.33343  0.427179  0  4.048109  0
C  C42  1  0.00215229  0.36826268  0.07438160  1  0  0.491072  0  3.801557  0  0  0.442929  0  4.056381  0  0  0.466459  0  4.069884  0  0  0.33303  0.427804  0  4.047113  0
C  C43  1  0.63356332  0.63179400  0.42568149  1  0  0.490115  0  3.802909  0  0  0.442246  0  4.057446  0  0  0.465776  0  4.070935  0  0  0.33342  0.427143  0  4.048141  0
C  C44  1  0.31144386  0.75665021  0.00353459  1  0  0.217159  0  3.633858  0  0  0.173498  0  3.889912  0  0  0.194127  0  3.898286  0  0  0.059361  0.159125  0  3.886042  0
C  C45  1  0.55525981  0.24334730  0.49634095  1  0  0.217044  0  3.63498  0  0  0.17297  0  3.89108  0  0  0.193529  0  3.899578  0  0  0.058906  0.158586  0  3.887098  0
C  C46  1  0.68849581  0.24334631  0.99646307  1  0  0.217089  0  3.633766  0  0  0.173463  0  3.889754  0  0  0.194087  0  3.898136  0  0  0.059392  0.159071  0  3.885852  0
C  C47  1  0.44477333  0.75666173  0.50365958  1  0  0.216799  0  3.635372  0  0  0.172705  0  3.891468  0  0  0.193256  0  3.89999  0  0  0.058861  0.158328  0  3.887474  0
C  C48  1  0.28531800  0.82650873  0.95921709  1  0  -0.217924  0  3.73377  0  0  -0.233666  0  4.007127  0  0  -0.251852  0  4.027317  0  0  -0.113234  -0.222436  0  3.995589  0
C  C49  1  0.45945714  0.17339126  0.54056689  1  0  -0.217549  0  3.733446  0  0  -0.233694  0  4.006912  0  0  -0.2518  0  4.027254  0  0  -0.112723  -0.222478  0  3.99526  0
C  C50  1  0.71462996  0.17348852  0.04078167  1  0  -0.218117  0  3.73382  0  0  -0.233916  0  4.007205  0  0  -0.252106  0  4.027386  0  0  -0.113359  -0.222689  0  3.995686  0
C  C51  1  0.54055074  0.82661483  0.45943281  1  0  -0.217483  0  3.733478  0  0  -0.233519  0  4.006828  0  0  -0.251643  0  4.02718  0  0  -0.112658  -0.222284  0  3.995186  0
C  C52  1  0.10718565  0.79561106  0.89635851  1  0  0.153148  0  3.623787  0  0  0.100177  0  3.884939  0  0  0.120318  0  3.894423  0  0  0.060885  0.085963  0  3.879973  0
C  C53  1  0.31274537  0.20423479  0.60348632  1  0  0.154143  0  3.62303  0  0  0.101217  0  3.883546  0  0  0.121209  0  3.89314  0  0  0.061111  0.087101  0  3.87844  0
C  C54  1  0.89277516  0.20438546  0.10363915  1  0  0.153479  0  3.623898  0  0  0.100653  0  3.884909  0  0  0.120797  0  3.894384  0  0  0.061066  0.086413  0  3.879945  0
C  C55  1  0.68726742  0.79577055  0.39651587  1  0  0.15437  0  3.622953  0  0  0.101498  0  3.8835  0  0  0.121511  0  3.89308  0  0  0.061228  0.087371  0  3.878399  0
C  C56  1  0.69352405  0.54279622  0.83219349  1  0  0.021445  0  3.609053  0  0  -0.032769  0  3.86321  0  0  -0.028769  0  3.87471  0  0  -0.070102  -0.035139  0  3.855632  0
C  C57  1  0.15033734  0.45692463  0.66778490  1  0  0.018984  0  3.609452  0  0  -0.034662  0  3.863995  0  0  -0.030615  0  3.875537  0  0  -0.070422  -0.037075  0  3.856362  0
C  C58  1  0.30646701  0.45719735  0.16780489  1  0  0.021186  0  3.609374  0  0  -0.033024  0  3.863531  0  0  -0.029037  0  3.875025  0  0  -0.0702  -0.035391  0  3.855947  0
C  C59  1  0.84969886  0.54307996  0.33221926  1  0  0.018923  0  3.609245  0  0  -0.034637  0  3.863763  0  0  -0.030622  0  3.87532  0  0  -0.070419  -0.037042  0  3.856143  0
C  C60  1  0.79432690  0.64892078  0.81552646  1  0  -0.025597  0  3.538128  0  0  -0.085348  0  3.787181  0  0  -0.082064  0  3.798186  0  0  -0.054263  -0.087189  0  3.780043  0
C  C61  1  0.14636522  0.35080987  0.68441173  1  0  -0.024396  0  3.541318  0  0  -0.085661  0  3.791747  0  0  -0.082336  0  3.802602  0  0  -0.054789  -0.087526  0  3.784677  0
C  C62  1  0.20566268  0.35106983  0.18447160  1  0  -0.025014  0  3.537674  0  0  -0.084878  0  3.786835  0  0  -0.081562  0  3.797791  0  0  -0.054165  -0.086787  0  3.779791  0
C  C63  1  0.85367738  0.64919694  0.31559113  1  0  -0.023977  0  3.540857  0  0  -0.085284  0  3.791461  0  0  -0.081943  0  3.802311  0  0  -0.054773  -0.08718  0  3.784434  0
N  N64  1  0.17298587  0.66127581  0.98821998  1  0  -0.405002  0  3.341208  0  0  -0.319886  0  3.632573  0  0  -0.340245  0  3.634923  0  0  -0.381717  -0.308097  0  3.63184  0
N  N65  1  0.51225048  0.33873079  0.51172449  1  0  -0.403335  0  3.34159  0  0  -0.317981  0  3.632394  0  0  -0.338384  0  3.634898  0  0  -0.381293  -0.306033  0  3.631478  0
N  N66  1  0.82699344  0.33872071  0.01177768  1  0  -0.404912  0  3.341182  0  0  -0.319845  0  3.632485  0  0  -0.340204  0  3.634846  0  0  -0.381716  -0.307958  0  3.631669  0
N  N67  1  0.48776907  0.66127749  0.48827904  1  0  -0.403239  0  3.341447  0  0  -0.317889  0  3.632232  0  0  -0.338287  0  3.634737  0  0  -0.381294  -0.305941  0  3.63131  0
N  N68  1  0.84546276  0.54249710  0.90187545  1  0  -0.481005  0  3.286954  0  0  -0.408713  0  3.611152  0  0  -0.426974  0  3.609129  0  0  -0.435074  -0.397556  0  3.6128  0
N  N69  1  0.30288381  0.45740714  0.59813952  1  0  -0.480788  0  3.28887  0  0  -0.408935  0  3.613384  0  0  -0.42722  0  3.611312  0  0  -0.435359  -0.397762  0  3.615046  0
N  N70  1  0.15453358  0.45749646  0.09812395  1  0  -0.480902  0  3.286741  0  0  -0.408614  0  3.610808  0  0  -0.42686  0  3.608783  0  0  -0.435014  -0.397459  0  3.612453  0
N  N71  1  0.69715122  0.54260040  0.40186547  1  0  -0.480828  0  3.288891  0  0  -0.408896  0  3.613213  0  0  -0.427203  0  3.611245  0  0  -0.435383  -0.397721  0  3.614875  0
N  N72  1  0.97314913  0.69967026  0.88049731  1  0  -0.147577  0  3.46832  0  0  -0.049203  0  3.682219  0  0  -0.069853  0  3.704536  0  0  -0.235624  -0.036101  0  3.667506  0
N  N73  1  0.27436150  0.30017390  0.61940084  1  0  -0.14881  0  3.4683  0  0  -0.050234  0  3.68265  0  0  -0.07082  0  3.704853  0  0  -0.236042  -0.037122  0  3.667903  0
N  N74  1  0.02680566  0.30032479  0.11950020  1  0  -0.147763  0  3.468567  0  0  -0.049547  0  3.682563  0  0  -0.070203  0  3.704874  0  0  -0.235756  -0.036384  0  3.667803  0
N  N75  1  0.72566259  0.69983291  0.38060202  1  0  -0.149047  0  3.468375  0  0  -0.050506  0  3.682744  0  0  -0.071093  0  3.704942  0  0  -0.236139  -0.037385  0  3.668015  0
Cl  Cl76  1  0.75227670  0.67094130  0.13891773  1  0  -0.523306  0  1.340293  0  0  -0.448996  0  1.732347  0  0  -0.468606  0  1.693782  0  0  -0.302223  -0.434774  0  1.758051  0
Cl  Cl77  1  0.07885530  0.32882745  0.36129370  1  0  -0.524233  0  1.336577  0  0  -0.449949  0  1.728307  0  0  -0.469539  0  1.68966  0  0  -0.302454  -0.435757  0  1.754114  0
Cl  Cl78  1  0.24770599  0.32905669  0.86108111  1  0  -0.523316  0  1.340398  0  0  -0.449  0  1.732472  0  0  -0.468612  0  1.693899  0  0  -0.302212  -0.434775  0  1.75819  0
Cl  Cl79  1  0.92118657  0.67117789  0.63870746  1  0  -0.524262  0  1.336658  0  0  -0.44994  0  1.728328  0  0  -0.469558  0  1.689687  0  0  -0.302489  -0.435756  0  1.754133  0
Cl  Cl80  1  0.90589761  0.95514375  0.09982367  1  0  -0.430666  0  1.50162  0  0  -0.354254  0  1.880296  0  0  -0.373782  0  1.84371  0  0  -0.261684  -0.339622  0  1.904785  0
Cl  Cl81  1  0.95106989  0.04498337  0.40008168  1  0  -0.431916  0  1.500662  0  0  -0.35583  0  1.879949  0  0  -0.375264  0  1.843217  0  0  -0.262254  -0.341249  0  1.904526  0
Cl  Cl82  1  0.09410769  0.04485719  0.90017343  1  0  -0.430682  0  1.501673  0  0  -0.354249  0  1.880311  0  0  -0.373787  0  1.843734  0  0  -0.261688  -0.339618  0  1.904806  0
Cl  Cl83  1  0.04893739  0.95501092  0.59991934  1  0  -0.431884  0  1.500671  0  0  -0.355812  0  1.87999  0  0  -0.375253  0  1.843264  0  0  -0.26226  -0.341241  0  1.904575  0
Cl  Cl84  1  0.28360420  0.87194189  0.26640877  1  0  -0.451625  0  1.56469  0  0  -0.387304  0  1.969258  0  0  -0.402331  0  1.923271  0  0  -0.262356  -0.376604  0  2.001062  0
Cl  Cl85  1  0.41255013  0.12814848  0.23339939  1  0  -0.451658  0  1.564959  0  0  -0.387381  0  1.970024  0  0  -0.402394  0  1.923999  0  0  -0.262131  -0.376622  0  2.001679  0
Cl  Cl86  1  0.71640984  0.12805536  0.73359000  1  0  -0.451629  0  1.564652  0  0  -0.38732  0  1.969234  0  0  -0.402358  0  1.923259  0  0  -0.26233  -0.37662  0  2.001036  0
Cl  Cl87  1  0.58744166  0.87184655  0.76660068  1  0  -0.451615  0  1.564984  0  0  -0.38734  0  1.970049  0  0  -0.40233  0  1.923964  0  0  -0.262153  -0.376593  0  2.001716  0
