# generated using pymatgen
data_ZnH10C22N4O11
_symmetry_space_group_name_H-M   'P 1'
_cell_length_a   9.65230470
_cell_length_b   10.99834357
_cell_length_c   23.63982011
_cell_angle_alpha   91.16889289
_cell_angle_beta   93.38860411
_cell_angle_gamma   87.38787478
_symmetry_Int_Tables_number   1
_chemical_formula_structural   ZnH10C22N4O11
_chemical_formula_sum   'Zn2 H20 C44 N8 O22'
_cell_volume   2502.20296113
_cell_formula_units_Z   2
loop_
 _symmetry_equiv_pos_site_id
 _symmetry_equiv_pos_as_xyz
  1  'x, y, z'
loop_
 _atom_site_type_symbol
 _atom_site_label
 _atom_site_symmetry_multiplicity
 _atom_site_fract_x
 _atom_site_fract_y
 _atom_site_fract_z
 _atom_site_occupancy
 _atom_site_pbe_bader_charge
 _atom_site_pbe_bader_spin_density
 _atom_site_pbe_cm5_charge
 _atom_site_pbe_ddec_charge
 _atom_site_pbe_ddec_spin_density
 _atom_site_pbe_ddec_sum_bond_order
 _atom_site_pbe_magmom
Zn  Zn0  1  0.63201787  0.50886562  0.49815188  1  1.285214  0  0.676539  0.810492  0  2.439996  0
Zn  Zn1  1  0.34569686  0.51863831  0.49323406  1  1.277267  0  0.677459  0.813824  0  2.426981  0
H  H2  1  0.80249837  0.60466391  0.06347828  1  0.152218  0  0.130453  0.148153  0  0.96092  0
H  H3  1  0.26958343  0.22925155  0.03987699  1  0.114032  0  0.123031  0.127552  0  0.970342  0
H  H4  1  0.26858497  0.23928789  0.93301028  1  0.132631  0  0.127446  0.133658  0  0.962232  0
H  H5  1  0.71661161  0.35094956  0.22952925  1  0.098526  0  0.114081  0.123412  0  0.973859  0
H  H6  1  0.69644490  0.38811711  0.33347350  1  0.096969  0  0.109435  0.111459  0  0.990964  0
H  H7  1  0.28295280  0.54286267  0.30148271  1  0.072704  0  0.104993  0.102363  0  1.007655  0
H  H8  1  0.30519990  0.51180760  0.19740169  1  0.098841  0  0.112833  0.122116  0  0.975843  0
H  H9  1  0.65377458  0.30961817  0.77385764  1  0.151033  0  0.133254  0.164916  0  0.940717  0
H  H10  1  0.26995167  0.14440418  0.49640108  1  0.137907  0  0.116288  0.131566  0  0.991777  0
H  H11  1  0.81018466  0.09406072  0.54998837  1  0.053609  0  0.101481  0.043893  0  0.954725  0
H  H12  1  0.79933100  0.87295438  0.46897908  1  0.034818  0  0.09741  0.113865  0  1.006566  0
H  H13  1  0.80274942  0.86717935  0.54476599  1  0.095847  0  0.103419  0.131382  0  0.975141  0
H  H14  1  0.13848991  0.45178679  0.58023336  1  0.156316  0  0.140293  0.124429  0  0.960283  0
H  H15  1  0.87855109  0.44799462  0.58101051  1  0.12581  0  0.137879  0.118752  0  0.972971  0
H  H16  1  0.83495237  0.56538407  0.36757331  1  0.110457  0  0.113021  0.137747  0  0.983458  0
H  H17  1  0.83079487  0.71301737  0.39996235  1  0.088557  0  0.114894  0.136869  0  0.968638  0
H  H18  1  0.09814603  0.56752586  0.36787259  1  0.097711  0  0.112628  0.136353  0  0.978959  0
H  H19  1  0.09287875  0.71607948  0.40046895  1  0.125879  0  0.114381  0.142486  0  0.965708  0
H  H20  1  0.66752211  0.36581635  0.62729031  1  0.64335  0  0.308568  0.352855  0  0.968122  0
H  H21  1  0.93358445  0.06900873  0.46438703  1  0.605209  0  0.30202  0.343978  0  0.950648  0
C  C22  1  0.47729802  0.74649279  0.50054047  1  1.621812  0  0.220058  0.607776  0  4.177091  0
C  C23  1  0.48030752  0.49471392  0.38574692  1  1.56892  0  0.217769  0.596141  0  4.171087  0
C  C24  1  0.49599034  0.27952912  0.49833255  1  1.586595  0  0.216512  0.590243  0  4.180805  0
C  C25  1  0.49845815  0.51042653  0.60867738  1  1.600898  0  0.22044  0.613843  0  4.162159  0
C  C26  1  0.42964856  0.36723183  0.87175230  1  1.347027  0  0.251011  0.451823  0  4.092926  0
C  C27  1  0.62386158  0.51304405  0.88033930  1  1.355438  0  0.248088  0.451334  0  4.093643  0
C  C28  1  0.63087189  0.49838238  0.94248798  1  0.068667  0  0.007602  -0.095589  0  3.93776  0
C  C29  1  0.53411848  0.42628240  0.96791110  1  0.027558  0  0.014164  0.050423  0  3.970135  0
C  C30  1  0.43556451  0.36029833  0.93438784  1  -0.059182  0  0.006296  -0.043805  0  3.941908  0
C  C31  1  0.72675772  0.55886994  0.97760685  1  0.165483  0  0.102907  0.083598  0  3.913389  0
C  C32  1  0.72813049  0.55418352  0.03684503  1  0.061451  0  -0.055336  -0.124613  0  3.903254  0
C  C33  1  0.63204499  0.48608462  0.06188089  1  -0.000848  0  0.003841  -0.033618  0  3.976701  0
C  C34  1  0.53450122  0.42012397  0.02807064  1  -0.009876  0  0.008329  0.028219  0  4.000026  0
C  C35  1  0.43689530  0.34919394  0.05325813  1  -0.055868  0  -0.001355  -0.059175  0  3.984936  0
C  C36  1  0.34295196  0.28383632  0.01937412  1  0.05982  0  -0.05309  -0.058499  0  3.910379  0
C  C37  1  0.34245960  0.28941984  0.96005853  1  0.029756  0  -0.048556  -0.051896  0  3.892662  0
C  C38  1  0.63058966  0.48681482  0.12462612  1  1.34886  0  0.248686  0.437415  0  4.086632  0
C  C39  1  0.43212482  0.34618903  0.11582760  1  1.349063  0  0.247222  0.435278  0  4.091308  0
C  C40  1  0.62251321  0.39395832  0.24551049  1  0.062534  0  -0.080646  -0.145364  0  3.976669  0
C  C41  1  0.61129211  0.41513838  0.30335432  1  -0.064577  0  -0.078663  -0.08232  0  3.972656  0
C  C42  1  0.48946391  0.46980310  0.32361256  1  0.005147  0  -0.012861  -0.027379  0  3.967622  0
C  C43  1  0.37798833  0.50173418  0.28543003  1  -0.033955  0  -0.080061  -0.08047  0  3.982041  0
C  C44  1  0.39014789  0.48429171  0.22746399  1  -0.001367  0  -0.081508  -0.14873  0  3.975544  0
C  C45  1  0.51276319  0.43100627  0.20783941  1  0.232143  0  0.091219  0.191768  0  4.006518  0
C  C46  1  0.43513371  0.56223860  0.76591223  1  0.291813  0  0.082638  -0.065208  0  3.870635  0
C  C47  1  0.43158284  0.57776503  0.70729303  1  0.2538  0  0.100524  0.066132  0  3.912458  0
C  C48  1  0.50583814  0.49935594  0.67178963  1  0.055455  0  -0.019435  -0.213475  0  3.920876  0
C  C49  1  0.59044086  0.40331266  0.69681972  1  0.520363  0  0.114289  0.358048  0  4.026651  0
C  C50  1  0.58990221  0.38419349  0.75523433  1  0.09223  0  -0.07648  -0.246947  0  3.87915  0
C  C51  1  0.51385298  0.46223711  0.78922814  1  0.400291  0  0.113824  0.20036  0  4.021453  0
C  C52  1  0.60308994  0.94060269  0.50430059  1  0.04451  0  0.008767  0.096886  0  3.889464  0
C  C53  1  0.47805288  0.88195383  0.50376273  1  -0.01011  0  0.003649  -0.097986  0  3.901896  0
C  C54  1  0.35886257  0.96175933  0.50081429  1  0.119751  0  0.088666  0.061658  0  3.902641  0
C  C55  1  0.36547575  0.08769308  0.49829850  1  0.07678  0  -0.071046  -0.142948  0  3.932451  0
C  C56  1  0.49351475  0.14411443  0.49917053  1  0.020703  0  0.00121  -0.026297  0  3.942362  0
C  C57  1  0.61211965  0.06683994  0.50198794  1  -0.006806  0  0.005464  0.005178  0  3.808146  0
C  C58  1  0.77085718  0.05901997  0.50816840  1  0.489015  0  0.011672  0.20668  0  3.875323  0
C  C59  1  0.75859205  0.91577333  0.50735477  1  -0.015235  0  -0.157478  -0.294087  0  3.87712  0
C  C60  1  0.05156562  0.56864662  0.45785184  1  0.618763  0  0.151151  0.204874  0  3.86447  0
C  C61  1  0.07210001  0.48420961  0.54432430  1  0.528666  0  0.075804  0.063261  0  3.846561  0
C  C62  1  0.92793502  0.48233971  0.54467764  1  0.439189  0  0.071882  0.052227  0  3.857202  0
C  C63  1  0.90737911  0.56680136  0.45807811  1  0.505662  0  0.15018  0.19936  0  3.846642  0
C  C64  1  0.88526209  0.62328124  0.40022904  1  -0.035421  0  -0.134197  -0.222405  0  3.810951  0
C  C65  1  0.04989943  0.62534928  0.40026318  1  -0.044482  0  -0.136165  -0.228281  0  3.809034  0
N  N66  1  0.52601844  0.44362346  0.84937466  1  -1.163848  0  -0.233507  -0.236374  0  3.622937  0
N  N67  1  0.52674102  0.41956069  0.14755215  1  -1.149974  0  -0.226869  -0.207462  0  3.554578  0
N  N68  1  0.13669291  0.52604553  0.49957993  1  -1.237024  0  -0.291063  -0.180618  0  3.4854  0
N  N69  1  0.84225331  0.52214989  0.50052564  1  -1.205998  0  -0.289132  -0.182065  0  3.476114  0
N  N70  1  0.83487484  0.63290341  0.95494999  1  0.415792  0  0.062774  0.513226  0  4.257066  0
N  N71  1  0.34603880  0.68001777  0.68093910  1  0.459497  0  0.059864  0.515126  0  4.266516  0
N  N72  1  0.21678954  0.91734804  0.50325929  1  0.427375  0  0.064561  0.527782  0  4.196328  0
N  N73  1  0.36701056  0.65287309  0.80250846  1  0.393566  0  0.05778  0.529676  0  4.218477  0
O  O74  1  0.59103731  0.68974672  0.51549246  1  -1.14747  0  -0.305889  -0.528088  0  2.313384  0
O  O75  1  0.36655284  0.69831859  0.48132187  1  -1.153632  0  -0.313291  -0.537835  0  2.353632  0
O  O76  1  0.59309835  0.52268987  0.41291944  1  -1.169234  0  -0.317112  -0.556192  0  2.345963  0
O  O77  1  0.36292144  0.48644380  0.40690093  1  -1.158263  0  -0.315476  -0.543919  0  2.28894  0
O  O78  1  0.61114581  0.32485945  0.48939023  1  -1.148218  0  -0.304903  -0.512841  0  2.304259  0
O  O79  1  0.38213127  0.33857358  0.50729301  1  -1.161659  0  -0.318476  -0.54834  0  2.336092  0
O  O80  1  0.61053690  0.47451575  0.58485292  1  -1.163654  0  -0.308371  -0.55938  0  2.349021  0
O  O81  1  0.38733420  0.54767562  0.58301275  1  -1.155018  0  -0.291848  -0.514571  0  2.30976  0
O  O82  1  0.34783594  0.31233700  0.84022527  1  -1.075328  0  -0.261089  -0.412281  0  2.055636  0
O  O83  1  0.69602636  0.58272667  0.85634867  1  -1.070034  0  -0.257341  -0.402345  0  2.075556  0
O  O84  1  0.71265648  0.54449558  0.15508831  1  -1.089573  0  -0.271566  -0.428911  0  2.072134  0
O  O85  1  0.35009654  0.28556220  0.13970493  1  -1.093549  0  -0.269752  -0.426018  0  2.067843  0
O  O86  1  0.81182009  0.74411202  0.95548953  1  -0.393626  0  -0.115965  -0.2984  0  1.847025  0
O  O87  1  0.94226012  0.57712976  0.94172436  1  -0.416147  0  -0.11624  -0.300385  0  1.855289  0
O  O88  1  0.40943709  0.76116911  0.66032078  1  -0.403387  0  -0.108762  -0.287927  0  1.89449  0
O  O89  1  0.21894411  0.67231681  0.68125448  1  -0.446637  0  -0.124547  -0.310982  0  1.870459  0
O  O90  1  0.67110176  0.32867107  0.66600407  1  -1.135487  0  -0.340008  -0.424403  0  2.231971  0
O  O91  1  0.19175318  0.85295794  0.54303199  1  -0.417863  0  -0.108755  -0.293792  0  1.910556  0
O  O92  1  0.12940018  0.95348931  0.46540673  1  -0.511884  0  -0.151527  -0.377513  0  1.897147  0
O  O93  1  0.84064637  0.10853283  0.46353712  1  -1.117768  0  -0.415116  -0.50786  0  2.189828  0
O  O94  1  0.32025531  0.61694417  0.84672203  1  -0.445522  0  -0.133475  -0.330755  0  1.895077  0
O  O95  1  0.36237454  0.75994804  0.78703545  1  -0.430772  0  -0.123692  -0.312105  0  1.881992  0
