# generated using pymatgen
data_CdH8C12(SN2)2
_symmetry_space_group_name_H-M   'P 1'
_cell_length_a   8.30714976
_cell_length_b   8.30712690
_cell_length_c   10.31027828
_cell_angle_alpha   76.57544786
_cell_angle_beta   76.57492050
_cell_angle_gamma   90.29284916
_symmetry_Int_Tables_number   1
_chemical_formula_structural   CdH8C12(SN2)2
_chemical_formula_sum   'Cd2 H16 C24 S4 N8'
_cell_volume   671.83501281
_cell_formula_units_Z   2
loop_
 _symmetry_equiv_pos_site_id
 _symmetry_equiv_pos_as_xyz
  1  'x, y, z'
loop_
 _atom_site_type_symbol
 _atom_site_label
 _atom_site_symmetry_multiplicity
 _atom_site_fract_x
 _atom_site_fract_y
 _atom_site_fract_z
 _atom_site_occupancy
 _atom_site_pbe_bader_spin_density
 _atom_site_pbe_cm5_charge
 _atom_site_pbe_ddec_charge
 _atom_site_pbe_ddec_spin_density
 _atom_site_pbe_ddec_sum_bond_order
 _atom_site_pbe_magmom
Cd  Cd0  1  0.08218569  0.91781441  0.25000188  1  0  0.7224  0.725375  0  2.473752  0
Cd  Cd1  1  0.91781571  0.08218661  0.75000201  1  0  0.722405  0.725371  0  2.473772  0
H  H2  1  0.18831929  0.61414250  0.11697999  1  0  0.114919  0.094874  0  1.005747  0
H  H3  1  0.38585814  0.81168590  0.38301435  1  0  0.114921  0.094853  0  1.005803  0
H  H4  1  0.81167962  0.38585849  0.88301953  1  0  0.114917  0.09489  0  1.005749  0
H  H5  1  0.61414317  0.18831387  0.61698397  1  0  0.114908  0.094838  0  1.00582  0
H  H6  1  0.39205861  0.39300202  0.11447672  1  0  0.09318  0.099504  0  1.062577  0
H  H7  1  0.60699710  0.60794475  0.38552147  1  0  0.09316  0.099465  0  1.062587  0
H  H8  1  0.60794023  0.60699772  0.88552207  1  0  0.093151  0.099446  0  1.062609  0
H  H9  1  0.39300160  0.39205252  0.61447782  1  0  0.093161  0.099474  0  1.062556  0
H  H10  1  0.84865789  0.52488885  0.24257779  1  0  0.103477  0.123416  0  1.037607  0
H  H11  1  0.47510997  0.15133855  0.25742247  1  0  0.103467  0.123415  0  1.037613  0
H  H12  1  0.15133971  0.47511089  0.75742221  1  0  0.103476  0.123436  0  1.037567  0
H  H13  1  0.52489003  0.84865996  0.74257537  1  0  0.103474  0.123424  0  1.037603  0
H  H14  1  0.05198766  0.30574390  0.24140172  1  0  0.107658  0.073044  0  1.041761  0
H  H15  1  0.69425561  0.94800830  0.25859974  1  0  0.107644  0.073037  0  1.041775  0
H  H16  1  0.94801119  0.69425585  0.75859805  1  0  0.10765  0.073053  0  1.041762  0
H  H17  1  0.30574440  0.05199022  0.74139906  1  0  0.107653  0.073035  0  1.041769  0
C  C18  1  0.82704340  0.85404238  0.55222148  1  0  0.141623  0.25764  0  4.309946  0
C  C19  1  0.14597064  0.17295263  0.94777919  1  0  0.141667  0.257648  0  4.309537  0
C  C20  1  0.17295124  0.14597097  0.44777845  1  0  0.141645  0.257632  0  4.30967  0
C  C21  1  0.85403915  0.82704349  0.05222113  1  0  0.141596  0.257572  0  4.309956  0
C  C22  1  0.28247971  0.60540538  0.17627245  1  0  0.042254  0.090749  0  3.947049  0
C  C23  1  0.39459516  0.71752147  0.32372421  1  0  0.042247  0.090776  0  3.947086  0
C  C24  1  0.71751906  0.39459313  0.82372756  1  0  0.042246  0.090739  0  3.947162  0
C  C25  1  0.60540609  0.28247706  0.67627436  1  0  0.042236  0.090749  0  3.947071  0
C  C26  1  0.39680705  0.48380711  0.17504672  1  0  -0.079219  -0.16147  0  3.936656  0
C  C27  1  0.51619310  0.60319371  0.32495112  1  0  -0.079192  -0.161457  0  3.936698  0
C  C28  1  0.60319048  0.51619139  0.82495256  1  0  -0.079173  -0.16141  0  3.936774  0
C  C29  1  0.48380684  0.39680357  0.67504793  1  0  -0.079208  -0.161439  0  3.936586  0
C  C30  1  0.51798286  0.48201767  0.24999916  1  0  0.013054  0.107332  0  3.964417  0
C  C31  1  0.48201708  0.51797960  0.74999989  1  0  0.013078  0.10735  0  3.964438  0
C  C32  1  0.64333149  0.35666596  0.25000120  1  0  0.013759  0.111184  0  3.951036  0
C  C33  1  0.35666728  0.64333254  0.74999881  1  0  0.013755  0.111098  0  3.951027  0
C  C34  1  0.80804534  0.39819149  0.24770509  1  0  -0.080569  -0.161016  0  3.89388  0
C  C35  1  0.60180610  0.19195110  0.25229701  1  0  -0.080586  -0.161069  0  3.893783  0
C  C36  1  0.19195219  0.60180701  0.75229516  1  0  -0.080578  -0.160988  0  3.893817  0
C  C37  1  0.39819275  0.80804865  0.74770275  1  0  -0.08059  -0.161048  0  3.893804  0
C  C38  1  0.92240700  0.27672234  0.24608667  1  0  0.04475  0.101789  0  3.953514  0
C  C39  1  0.72327596  0.07759017  0.25391523  1  0  0.044785  0.101826  0  3.953386  0
C  C40  1  0.07759184  0.72327741  0.75391310  1  0  0.044758  0.101724  0  3.953494  0
C  C41  1  0.27672535  0.92240959  0.74608310  1  0  0.044793  0.101821  0  3.953373  0
S  S42  1  0.87149516  0.70575971  0.47325877  1  0  -0.137526  -0.280813  0  2.471338  0
S  S43  1  0.29424916  0.12849962  0.02674148  1  0  -0.137541  -0.280804  0  2.471413  0
S  S44  1  0.12850176  0.29424995  0.52674240  1  0  -0.137533  -0.280789  0  2.471427  0
S  S45  1  0.70575946  0.87149773  0.97325980  1  0  -0.137527  -0.280776  0  2.47142  0
N  N46  1  0.79438425  0.96126355  0.61091768  1  0  -0.398545  -0.4804  0  3.134436  0
N  N47  1  0.03873955  0.20561445  0.88908489  1  0  -0.398592  -0.480469  0  3.133995  0
N  N48  1  0.20561487  0.03874116  0.38908206  1  0  -0.398564  -0.480444  0  3.13407  0
N  N49  1  0.96126296  0.79438410  0.11091829  1  0  -0.398527  -0.480363  0  3.134341  0
N  N50  1  0.28045941  0.71954272  0.24999783  1  0  -0.32724  -0.228896  0  3.547581  0
N  N51  1  0.71954067  0.28045703  0.75000170  1  0  -0.327226  -0.228873  0  3.54764  0
N  N52  1  0.88128455  0.11871412  0.25000103  1  0  -0.325962  -0.229555  0  3.514241  0
N  N53  1  0.11871677  0.88128565  0.74999826  1  0  -0.325967  -0.229502  0  3.514169  0
