# generated using pymatgen
data_KHC2(NO)2
_symmetry_space_group_name_H-M   'P 1'
_cell_length_a   8.22187767
_cell_length_b   8.22190620
_cell_length_c   9.10306455
_cell_angle_alpha   114.61585169
_cell_angle_beta   114.61622653
_cell_angle_gamma   94.45414805
_symmetry_Int_Tables_number   1
_chemical_formula_structural   KHC2(NO)2
_chemical_formula_sum   'K4 H4 C8 N8 O8'
_cell_volume   484.54357784
_cell_formula_units_Z   4
loop_
 _symmetry_equiv_pos_site_id
 _symmetry_equiv_pos_as_xyz
  1  'x, y, z'
loop_
 _atom_site_type_symbol
 _atom_site_label
 _atom_site_symmetry_multiplicity
 _atom_site_fract_x
 _atom_site_fract_y
 _atom_site_fract_z
 _atom_site_occupancy
 _atom_site_hle17_bader_spin_density
 _atom_site_hle17_ddec_charge
 _atom_site_hle17_ddec_spin_density
 _atom_site_hle17_ddec_sum_bond_order
 _atom_site_hle17_magmom
 _atom_site_hse06_10hf_bader_spin_density
 _atom_site_hse06_10hf_ddec_charge
 _atom_site_hse06_10hf_ddec_spin_density
 _atom_site_hse06_10hf_ddec_sum_bond_order
 _atom_site_hse06_10hf_magmom
 _atom_site_hse06_bader_spin_density
 _atom_site_hse06_ddec_charge
 _atom_site_hse06_ddec_spin_density
 _atom_site_hse06_ddec_sum_bond_order
 _atom_site_hse06_magmom
 _atom_site_pbe_bader_spin_density
 _atom_site_pbe_cm5_charge
 _atom_site_pbe_ddec_charge
 _atom_site_pbe_ddec_spin_density
 _atom_site_pbe_ddec_sum_bond_order
 _atom_site_pbe_magmom
K  K0  1  0.61538908  0.97333096  0.73424396  1  0  0.915052  0  0.469587  0  0  0.856161  0  0.665567  0  0  0.870944  0  0.643818  0  0  0.838737  0.845206  0  0.681036  0
K  K1  1  0.02667383  0.38461397  0.26575804  1  0  0.915045  0  0.469597  0  0  0.856156  0  0.66557  0  0  0.87094  0  0.643815  0  0  0.838735  0.845191  0  0.681041  0
K  K2  1  0.01098811  0.86867944  0.23401569  1  0  0.915007  0  0.469679  0  0  0.856171  0  0.665479  0  0  0.871091  0  0.643471  0  0  0.838746  0.845107  0  0.681151  0
K  K3  1  0.13132111  0.98901246  0.76598605  1  0  0.915003  0  0.469691  0  0  0.856178  0  0.665482  0  0  0.8711  0  0.643473  0  0  0.838754  0.845112  0  0.681156  0
H  H4  1  0.63984339  0.01313039  0.32159128  1  0  0.157642  0  0.982701  0  0  0.159797  0  1.052023  0  0  0.165244  0  1.047928  0  0  0.133347  0.155961  0  1.054906  0
H  H5  1  0.98686732  0.36015358  0.67840673  1  0  0.157633  0  0.982753  0  0  0.1598  0  1.052063  0  0  0.165252  0  1.047963  0  0  0.133348  0.155962  0  1.054948  0
H  H6  1  0.55843611  0.43165911  0.82149532  1  0  0.157965  0  0.983447  0  0  0.160052  0  1.05263  0  0  0.165459  0  1.048604  0  0  0.133538  0.156217  0  1.055494  0
H  H7  1  0.56833938  0.44156370  0.17850631  1  0  0.157957  0  0.983443  0  0  0.16005  0  1.052622  0  0  0.165453  0  1.048601  0  0  0.133535  0.156211  0  1.055489  0
C  C8  1  0.55810996  0.06689265  0.23316483  1  0  -0.235879  0  3.645723  0  0  -0.285915  0  3.917034  0  0  -0.293181  0  3.924843  0  0  -0.006041  -0.280834  0  3.911772  0
C  C9  1  0.93310786  0.44189091  0.76683430  1  0  -0.235851  0  3.645838  0  0  -0.285888  0  3.917127  0  0  -0.293157  0  3.924933  0  0  -0.006023  -0.280802  0  3.911862  0
C  C10  1  0.41623474  0.42493034  0.73302777  1  0  -0.235961  0  3.647053  0  0  -0.285781  0  3.918043  0  0  -0.293017  0  3.925885  0  0  -0.00624  -0.280692  0  3.912792  0
C  C11  1  0.57506924  0.58376544  0.26697303  1  0  -0.235947  0  3.647013  0  0  -0.285776  0  3.918004  0  0  -0.293013  0  3.92585  0  0  -0.006239  -0.280689  0  3.912754  0
C  C12  1  0.39593662  0.10938412  0.22785898  1  0  0.330144  0  3.898009  0  0  0.324918  0  4.178914  0  0  0.340917  0  4.192297  0  0  0.185069  0.31398  0  4.169784  0
C  C13  1  0.89062055  0.60406042  0.77214095  1  0  0.330175  0  3.897949  0  0  0.324945  0  4.178853  0  0  0.340948  0  4.192231  0  0  0.185064  0.314009  0  4.169722  0
C  C14  1  0.36847763  0.58183500  0.72781596  1  0  0.328969  0  3.89981  0  0  0.323664  0  4.18058  0  0  0.339678  0  4.193905  0  0  0.185042  0.312716  0  4.171485  0
C  C15  1  0.41816348  0.63152318  0.27218972  1  0  0.32887  0  3.900048  0  0  0.323561  0  4.180839  0  0  0.339576  0  4.194161  0  0  0.185002  0.312614  0  4.171742  0
N  N16  1  0.61220536  0.08843230  0.11941019  1  0  0.527669  0  4.037977  0  0  0.566271  0  4.320675  0  0  0.584385  0  4.337329  0  0  -0.049402  0.553926  0  4.30937  0
N  N17  1  0.91156827  0.38779344  0.88058936  1  0  0.527597  0  4.038082  0  0  0.566191  0  4.320799  0  0  0.584306  0  4.337451  0  0  -0.049445  0.553846  0  4.309496  0
N  N18  1  0.28091983  0.25710591  0.61929991  1  0  0.526813  0  4.038021  0  0  0.565335  0  4.320983  0  0  0.583437  0  4.337668  0  0  -0.050532  0.552995  0  4.30965  0
N  N19  1  0.74289414  0.71907965  0.38069976  1  0  0.526875  0  4.037963  0  0  0.565405  0  4.320916  0  0  0.583508  0  4.337599  0  0  -0.050503  0.553065  0  4.309583  0
N  N20  1  0.25700501  0.14127279  0.22198982  1  0  -0.530092  0  2.652953  0  0  -0.513968  0  2.892683  0  0  -0.525739  0  2.901498  0  0  -0.443382  -0.505884  0  2.886854  0
N  N21  1  0.85873001  0.74299353  0.77800853  1  0  -0.530136  0  2.652812  0  0  -0.514019  0  2.892549  0  0  -0.525792  0  2.901361  0  0  -0.443401  -0.505933  0  2.886721  0
N  N22  1  0.33076075  0.71494429  0.72203061  1  0  -0.528917  0  2.653779  0  0  -0.512747  0  2.89342  0  0  -0.524503  0  2.902193  0  0  -0.442844  -0.504673  0  2.887624  0
N  N23  1  0.28505727  0.66923706  0.27796926  1  0  -0.528813  0  2.65399  0  0  -0.512638  0  2.893641  0  0  -0.52439  0  2.902412  0  0  -0.442812  -0.504563  0  2.887842  0
O  O24  1  0.52144653  0.15519469  0.01573370  1  0  -0.570137  0  1.798417  0  0  -0.541357  0  2.026943  0  0  -0.558718  0  2.022584  0  0  -0.302789  -0.529186  0  2.029852  0
O  O25  1  0.84480434  0.47855187  0.98426480  1  0  -0.570116  0  1.798458  0  0  -0.541324  0  2.026962  0  0  -0.558691  0  2.022621  0  0  -0.302763  -0.529155  0  2.029874  0
O  O26  1  0.11048199  0.24420592  0.51562400  1  0  -0.569138  0  1.798629  0  0  -0.540377  0  2.027083  0  0  -0.557753  0  2.02277  0  0  -0.301856  -0.528198  0  2.029978  0
O  O27  1  0.75579246  0.88951587  0.48437412  1  0  -0.569162  0  1.798619  0  0  -0.540393  0  2.027059  0  0  -0.557773  0  2.022749  0  0  -0.301878  -0.528221  0  2.02996  0
O  O28  1  0.75594816  0.04256559  0.11324778  1  0  -0.594437  0  1.779952  0  0  -0.566058  0  2.009562  0  0  -0.58403  0  2.005447  0  0  -0.355788  -0.553269  0  2.012114  0
O  O29  1  0.95743255  0.24404923  0.88675182  1  0  -0.594402  0  1.780012  0  0  -0.566018  0  2.009608  0  0  -0.583997  0  2.00551  0  0  -0.355762  -0.553234  0  2.012176  0
O  O30  1  0.32058880  0.10718007  0.61312903  1  0  -0.594691  0  1.780036  0  0  -0.566177  0  2.00935  0  0  -0.584223  0  2.005405  0  0  -0.355604  -0.553374  0  2.011865  0
O  O31  1  0.89282085  0.67940999  0.38687220  1  0  -0.594733  0  1.780019  0  0  -0.566219  0  2.009305  0  0  -0.584259  0  2.00536  0  0  -0.355614  -0.55341  0  2.01182  0
