# generated using pymatgen
data_CdH8C8N2Cl2O
_symmetry_space_group_name_H-M   'P 1'
_cell_length_a   7.10230814
_cell_length_b   10.03450291
_cell_length_c   14.94103678
_cell_angle_alpha   80.92445600
_cell_angle_beta   78.59604802
_cell_angle_gamma   83.05934686
_symmetry_Int_Tables_number   1
_chemical_formula_structural   CdH8C8N2Cl2O
_chemical_formula_sum   'Cd4 H32 C32 N8 Cl8 O4'
_cell_volume   1026.30019037
_cell_formula_units_Z   4
loop_
 _symmetry_equiv_pos_site_id
 _symmetry_equiv_pos_as_xyz
  1  'x, y, z'
loop_
 _atom_site_type_symbol
 _atom_site_label
 _atom_site_symmetry_multiplicity
 _atom_site_fract_x
 _atom_site_fract_y
 _atom_site_fract_z
 _atom_site_occupancy
 _atom_site_hle17_bader_spin_density
 _atom_site_hle17_ddec_charge
 _atom_site_hle17_ddec_spin_density
 _atom_site_hle17_ddec_sum_bond_order
 _atom_site_hle17_magmom
 _atom_site_hse06_10hf_bader_spin_density
 _atom_site_hse06_10hf_ddec_charge
 _atom_site_hse06_10hf_ddec_spin_density
 _atom_site_hse06_10hf_ddec_sum_bond_order
 _atom_site_hse06_10hf_magmom
 _atom_site_hse06_bader_spin_density
 _atom_site_hse06_ddec_charge
 _atom_site_hse06_ddec_spin_density
 _atom_site_hse06_ddec_sum_bond_order
 _atom_site_hse06_magmom
 _atom_site_pbe_bader_spin_density
 _atom_site_pbe_cm5_charge
 _atom_site_pbe_ddec_charge
 _atom_site_pbe_ddec_spin_density
 _atom_site_pbe_ddec_sum_bond_order
 _atom_site_pbe_magmom
Cd  Cd0  1  0.23748966  0.92309256  0.52964428  1  0  1.002354  0  1.929972  0  0  0.838109  0  2.395236  0  0  0.883805  0  2.35251  0  0  0.6059  0.805212  0  2.425021  0
Cd  Cd1  1  0.76250267  0.07690955  0.47035578  1  0  1.002343  0  1.929971  0  0  0.83809  0  2.39523  0  0  0.883788  0  2.352504  0  0  0.605882  0.805194  0  2.425012  0
Cd  Cd2  1  0.26640109  0.43689478  0.98759518  1  0  0.97042  0  1.950484  0  0  0.807777  0  2.42252  0  0  0.853106  0  2.380292  0  0  0.585019  0.775134  0  2.452327  0
Cd  Cd3  1  0.73359862  0.56310620  0.01240897  1  0  0.970447  0  1.950491  0  0  0.807807  0  2.422531  0  0  0.853135  0  2.380302  0  0  0.585039  0.775163  0  2.452337  0
H  H4  1  0.15511516  0.77820684  0.35052650  1  0  0.102431  0  0.965361  0  0  0.111729  0  1.030579  0  0  0.114339  0  1.029548  0  0  0.095174  0.109517  0  1.03218  0
H  H5  1  0.84488281  0.22179623  0.64947359  1  0  0.102435  0  0.965412  0  0  0.111736  0  1.030622  0  0  0.114346  0  1.02959  0  0  0.095176  0.109523  0  1.032221  0
H  H6  1  0.11758187  0.59907731  0.25603549  1  0  0.090474  0  0.988094  0  0  0.099063  0  1.05544  0  0  0.101785  0  1.054181  0  0  0.087031  0.097054  0  1.056476  0
H  H7  1  0.88241349  0.40092372  0.74396706  1  0  0.090468  0  0.988105  0  0  0.099031  0  1.055474  0  0  0.101755  0  1.05421  0  0  0.087015  0.097022  0  1.056511  0
H  H8  1  0.19681475  0.63694822  0.74134559  1  0  0.09692  0  0.927241  0  0  0.1096  0  0.986916  0  0  0.11108  0  0.985904  0  0  0.102519  0.108564  0  0.987762  0
H  H9  1  0.80316842  0.36304679  0.25866007  1  0  0.096941  0  0.927134  0  0  0.109616  0  0.98681  0  0  0.111102  0  0.985807  0  0  0.102534  0.108571  0  0.987653  0
H  H10  1  0.44371412  0.57901412  0.71382607  1  0  0.081388  0  0.947806  0  0  0.092068  0  1.013207  0  0  0.092968  0  1.013617  0  0  0.1032  0.091389  0  1.013062  0
H  H11  1  0.55626867  0.42098396  0.28617798  1  0  0.081429  0  0.947773  0  0  0.092066  0  1.013215  0  0  0.092989  0  1.013618  0  0  0.103209  0.09138  0  1.013065  0
H  H12  1  0.23506222  0.28045278  0.47389501  1  0  0.101804  0  0.999769  0  0  0.105373  0  1.075331  0  0  0.108432  0  1.073605  0  0  0.08297  0.103137  0  1.07666  0
H  H13  1  0.76491565  0.71955039  0.52610902  1  0  0.101775  0  0.999786  0  0  0.105318  0  1.075391  0  0  0.108387  0  1.073656  0  0  0.08292  0.103082  0  1.076724  0
H  H14  1  0.15729285  0.35734577  0.31693388  1  0  0.088237  0  0.957922  0  0  0.098082  0  1.02216  0  0  0.100737  0  1.021171  0  0  0.089173  0.095464  0  1.024316  0
H  H15  1  0.84268780  0.64265837  0.68307113  1  0  0.088252  0  0.957901  0  0  0.09815  0  1.022092  0  0  0.100803  0  1.021103  0  0  0.089212  0.09553  0  1.024248  0
H  H16  1  0.50799807  0.79164032  0.65845602  1  0  0.369365  0  0.852292  0  0  0.348972  0  0.922252  0  0  0.356931  0  0.913327  0  0  0.308021  0.34344  0  0.928376  0
H  H17  1  0.49198317  0.20835877  0.34154876  1  0  0.369276  0  0.852339  0  0  0.348894  0  0.922351  0  0  0.356856  0  0.913416  0  0  0.30796  0.343361  0  0.928471  0
H  H18  1  0.31515658  0.39948190  0.63195946  1  0  0.316305  0  0.904996  0  0  0.298001  0  0.964721  0  0  0.306147  0  0.95839  0  0  0.314746  0.292092  0  0.969693  0
H  H19  1  0.68483278  0.60052121  0.36804279  1  0  0.316398  0  0.904851  0  0  0.298061  0  0.964631  0  0  0.306208  0  0.958292  0  0  0.314756  0.292153  0  0.969601  0
H  H20  1  0.09039749  0.21273302  0.15249642  1  0  0.106433  0  0.96288  0  0  0.115464  0  1.026781  0  0  0.118303  0  1.025276  0  0  0.094663  0.112951  0  1.028792  0
H  H21  1  0.90961584  0.78726184  0.84750433  1  0  0.106395  0  0.962869  0  0  0.115446  0  1.026753  0  0  0.118284  0  1.025248  0  0  0.094653  0.112932  0  1.028765  0
H  H22  1  0.21914993  0.77601877  0.01292323  1  0  0.105557  0  0.976309  0  0  0.110634  0  1.048252  0  0  0.113398  0  1.046969  0  0  0.090638  0.108179  0  1.049974  0
H  H23  1  0.78085981  0.22398130  0.98707000  1  0  0.105509  0  0.976436  0  0  0.110633  0  1.048313  0  0  0.113397  0  1.047029  0  0  0.090661  0.10818  0  1.050036  0
H  H24  1  0.97253561  0.99771310  0.24143685  1  0  0.091014  0  0.971398  0  0  0.099803  0  1.037499  0  0  0.102441  0  1.0362  0  0  0.08659  0.097939  0  1.038307  0
H  H25  1  0.02747620  0.00228188  0.75855801  1  0  0.09099  0  0.971414  0  0  0.099777  0  1.037491  0  0  0.102418  0  1.036184  0  0  0.086579  0.097855  0  1.038362  0
H  H26  1  0.03162267  0.78443265  0.17215544  1  0  0.092547  0  0.975596  0  0  0.101126  0  1.041315  0  0  0.103928  0  1.040025  0  0  0.093148  0.098472  0  1.043558  0
H  H27  1  0.96839032  0.21556435  0.82783845  1  0  0.092524  0  0.975678  0  0  0.101128  0  1.041371  0  0  0.103928  0  1.040084  0  0  0.093162  0.098474  0  1.0436  0
H  H28  1  0.51084566  0.32913249  0.81200671  1  0  0.081699  0  0.924268  0  0  0.09383  0  0.989102  0  0  0.094529  0  0.988499  0  0  0.107883  0.093314  0  0.989586  0
H  H29  1  0.48916053  0.67087362  0.18798961  1  0  0.081684  0  0.924386  0  0  0.093817  0  0.989221  0  0  0.094511  0  0.988613  0  0  0.10786  0.093299  0  0.989702  0
H  H30  1  0.58687293  0.17350033  0.76759883  1  0  0.073411  0  0.943736  0  0  0.081378  0  1.013099  0  0  0.082656  0  1.012498  0  0  0.10418  0.080657  0  1.013235  0
H  H31  1  0.41313365  0.82650270  0.23239976  1  0  0.073447  0  0.943758  0  0  0.081408  0  1.013121  0  0  0.082679  0  1.012518  0  0  0.104217  0.080687  0  1.013255  0
H  H32  1  0.33077634  0.19759764  0.70199848  1  0  0.351837  0  0.933473  0  0  0.330368  0  1.00681  0  0  0.340199  0  0.995166  0  0  0.267208  0.323464  0  1.014971  0
H  H33  1  0.66923035  0.80240440  0.29799953  1  0  0.351838  0  0.933468  0  0  0.33037  0  1.006794  0  0  0.340201  0  0.995153  0  0  0.267207  0.323465  0  1.014958  0
H  H34  1  0.40057200  0.96014714  0.85779910  1  0  0.328708  0  0.828908  0  0  0.321385  0  0.870086  0  0  0.327734  0  0.866117  0  0  0.343603  0.316221  0  0.874196  0
H  H35  1  0.59943416  0.03985902  0.14219453  1  0  0.32867  0  0.828991  0  0  0.321412  0  0.870132  0  0  0.32772  0  0.866196  0  0  0.343585  0.316283  0  0.874185  0
C  C36  1  0.22636603  0.62702637  0.46224898  1  0  0.147529  0  3.83438  0  0  0.143712  0  4.080139  0  0  0.147811  0  4.103608  0  0  0.081814  0.140817  0  4.064224  0
C  C37  1  0.77363781  0.37297566  0.53775064  1  0  0.147618  0  3.834411  0  0  0.143854  0  4.080073  0  0  0.147958  0  4.103545  0  0  0.081867  0.140957  0  4.064156  0
C  C38  1  0.17800412  0.67040948  0.37539350  1  0  -0.144032  0  3.742431  0  0  -0.160052  0  3.990718  0  0  -0.163036  0  4.011034  0  0  -0.099111  -0.157848  0  3.977198  0
C  C39  1  0.82199694  0.32959158  0.62460515  1  0  -0.144054  0  3.742459  0  0  -0.160107  0  3.990724  0  0  -0.163088  0  4.01103  0  0  -0.099102  -0.157902  0  3.977206  0
C  C40  1  0.24841790  0.48732652  0.49694850  1  0  0.164032  0  3.766229  0  0  0.155321  0  4.009856  0  0  0.159482  0  4.031913  0  0  0.093958  0.152448  0  3.995184  0
C  C41  1  0.75158605  0.51267450  0.50305054  1  0  0.163885  0  3.766305  0  0  0.15514  0  4.009921  0  0  0.159298  0  4.031983  0  0  0.09391  0.152275  0  3.995239  0
C  C42  1  0.15645686  0.57081094  0.32396114  1  0  -0.083757  0  3.785997  0  0  -0.102111  0  4.044769  0  0  -0.104295  0  4.067172  0  0  -0.10759  -0.100192  0  4.028894  0
C  C43  1  0.84353838  0.42919111  0.67604132  1  0  -0.083696  0  3.78599  0  0  -0.102017  0  4.044756  0  0  -0.1042  0  4.067153  0  0  -0.107564  -0.100098  0  4.028881  0
C  C44  1  0.29415583  0.61175878  0.60002715  1  0  0.370593  0  3.710443  0  0  0.338906  0  3.982626  0  0  0.35728  0  3.99554  0  0  0.22909  0.326951  0  3.973277  0
C  C45  1  0.70583271  0.38823925  0.39997636  1  0  0.370616  0  3.710442  0  0  0.338895  0  3.982597  0  0  0.357284  0  3.995523  0  0  0.229115  0.326928  0  3.973241  0
C  C46  1  0.32797796  0.64849621  0.68842323  1  0  0.027009  0  3.668965  0  0  -0.02785  0  3.926017  0  0  -0.023578  0  3.929862  0  0  -0.069701  -0.030941  0  3.923445  0
C  C47  1  0.67200351  0.35150086  0.31158106  1  0  0.027018  0  3.66878  0  0  -0.027777  0  3.925789  0  0  -0.023562  0  3.929691  0  0  -0.069691  -0.030859  0  3.923246  0
C  C48  1  0.22318445  0.38752352  0.44609517  1  0  -0.15909  0  3.758786  0  0  -0.175673  0  4.011717  0  0  -0.178789  0  4.032201  0  0  -0.10293  -0.173498  0  3.997965  0
C  C49  1  0.77680517  0.61247754  0.55390793  1  0  -0.158887  0  3.758607  0  0  -0.175457  0  4.011566  0  0  -0.17858  0  4.032037  0  0  -0.102819  -0.173288  0  3.997822  0
C  C50  1  0.17881019  0.43206417  0.35877569  1  0  -0.079636  0  3.792127  0  0  -0.098111  0  4.052227  0  0  -0.100415  0  4.074972  0  0  -0.106623  -0.096384  0  4.037452  0
C  C51  1  0.82117369  0.56793692  0.64122863  1  0  -0.079738  0  3.79225  0  0  -0.098277  0  4.052342  0  0  -0.100587  0  4.075107  0  0  -0.106694  -0.09655  0  4.037574  0
C  C52  1  0.22028411  0.11435701  0.03241449  1  0  0.140234  0  3.832973  0  0  0.136797  0  4.079846  0  0  0.140384  0  4.104114  0  0  0.080731  0.134249  0  4.063302  0
C  C53  1  0.77972287  0.88564295  0.96758638  1  0  0.140309  0  3.832922  0  0  0.13684  0  4.079789  0  0  0.140425  0  4.104066  0  0  0.080726  0.13429  0  4.063244  0
C  C54  1  0.25603437  0.99125663  0.99408038  1  0  0.161698  0  3.785289  0  0  0.153263  0  4.030984  0  0  0.157176  0  4.053195  0  0  0.093675  0.150445  0  4.016149  0
C  C55  1  0.74397650  0.00874640  0.00591646  1  0  0.161558  0  3.785423  0  0  0.153245  0  4.031041  0  0  0.157132  0  4.053238  0  0  0.093886  0.150435  0  4.016217  0
C  C56  1  0.11932004  0.11836681  0.12263818  1  0  -0.145285  0  3.743973  0  0  -0.163547  0  3.994027  0  0  -0.166445  0  4.014276  0  0  -0.10103  -0.161219  0  3.980534  0
C  C57  1  0.88068872  0.88163011  0.87736214  1  0  -0.145171  0  3.743742  0  0  -0.163458  0  3.993807  0  0  -0.166355  0  4.014056  0  0  -0.100966  -0.161123  0  3.980294  0
C  C58  1  0.19241648  0.86984019  0.04330860  1  0  -0.149115  0  3.747642  0  0  -0.164675  0  3.996408  0  0  -0.167941  0  4.018096  0  0  -0.097228  -0.162228  0  3.981969  0
C  C59  1  0.80760307  0.13016187  0.95668214  1  0  -0.148977  0  3.747611  0  0  -0.164595  0  3.996348  0  0  -0.167864  0  4.01804  0  0  -0.097295  -0.16215  0  3.981915  0
C  C60  1  0.37294472  0.16082503  0.89029024  1  0  0.373696  0  3.69505  0  0  0.340745  0  3.974587  0  0  0.359193  0  3.98638  0  0  0.228908  0.328705  0  3.965753  0
C  C61  1  0.62706596  0.83917997  0.10970977  1  0  0.373715  0  3.69502  0  0  0.340864  0  3.97448  0  0  0.359277  0  3.986261  0  0  0.229006  0.328832  0  3.965654  0
C  C62  1  0.05414185  0.99763659  0.17151966  1  0  -0.077978  0  3.784511  0  0  -0.096994  0  4.044214  0  0  -0.09884  0  4.066367  0  0  -0.106357  -0.09543  0  4.028391  0
C  C63  1  0.94588028  0.00235627  0.82847576  1  0  -0.077956  0  3.78436  0  0  -0.096951  0  4.044054  0  0  -0.098799  0  4.0662  0  0  -0.106346  -0.09534  0  4.028251  0
C  C64  1  0.09014435  0.87575133  0.13255314  1  0  -0.073843  0  3.771749  0  0  -0.09112  0  4.029089  0  0  -0.09399  0  4.05259  0  0  -0.101795  -0.088941  0  4.013516  0
C  C65  1  0.90987452  0.12424461  0.86744095  1  0  -0.073866  0  3.77188  0  0  -0.091177  0  4.029247  0  0  -0.094048  0  4.052758  0  0  -0.101861  -0.088984  0  4.01365  0
C  C66  1  0.46067241  0.23531826  0.79988063  1  0  0.030227  0  3.682496  0  0  -0.027078  0  3.948076  0  0  -0.021458  0  3.949876  0  0  -0.065422  -0.030902  0  3.946466  0
C  C67  1  0.53933286  0.76468376  0.20011885  1  0  0.030168  0  3.682638  0  0  -0.027164  0  3.948191  0  0  -0.021516  0  3.949958  0  0  -0.065492  -0.030988  0  3.946572  0
N  N68  1  0.25611623  0.70094122  0.52853056  1  0  -0.480052  0  3.232605  0  0  -0.409995  0  3.50862  0  0  -0.43458  0  3.524865  0  0  -0.369227  -0.392642  0  3.496627  0
N  N69  1  0.74387935  0.29905781  0.47147082  1  0  -0.480135  0  3.232611  0  0  -0.410058  0  3.508581  0  0  -0.434656  0  3.524832  0  0  -0.369261  -0.3927  0  3.496587  0
N  N70  1  0.29251803  0.48264063  0.58400841  1  0  -0.369053  0  3.354708  0  0  -0.310905  0  3.584376  0  0  -0.329246  0  3.596657  0  0  -0.372634  -0.298724  0  3.576563  0
N  N71  1  0.70747156  0.51736048  0.41599268  1  0  -0.369146  0  3.354617  0  0  -0.310952  0  3.584246  0  0  -0.329286  0  3.596513  0  0  -0.372696  -0.298769  0  3.576431  0
N  N72  1  0.29548822  0.21711816  0.96595391  1  0  -0.469341  0  3.186583  0  0  -0.400335  0  3.465112  0  0  -0.424477  0  3.481386  0  0  -0.3561  -0.383146  0  3.453217  0
N  N73  1  0.70451611  0.78287981  0.03404673  1  0  -0.469349  0  3.186547  0  0  -0.400346  0  3.465033  0  0  -0.424494  0  3.481325  0  0  -0.356129  -0.383155  0  3.453131  0
N  N74  1  0.35397979  0.02506719  0.90502284  1  0  -0.365925  0  3.350931  0  0  -0.311547  0  3.581948  0  0  -0.32875  0  3.594085  0  0  -0.365182  -0.300108  0  3.574726  0
N  N75  1  0.64602989  0.97493383  0.09497431  1  0  -0.365946  0  3.3512  0  0  -0.311769  0  3.582262  0  0  -0.328867  0  3.594352  0  0  -0.365348  -0.300379  0  3.575014  0
Cl  Cl76  1  0.12839250  0.06124017  0.38507676  1  0  -0.565918  0  0.976196  0  0  -0.49585  0  1.252406  0  0  -0.515108  0  1.230765  0  0  -0.294515  -0.481867  0  1.268305  0
Cl  Cl77  1  0.87160178  0.93875784  0.61492553  1  0  -0.565928  0  0.976142  0  0  -0.495884  0  1.252358  0  0  -0.51514  0  1.230718  0  0  -0.294524  -0.481898  0  1.268249  0
Cl  Cl78  1  0.38869580  0.09688280  0.58918540  1  0  -0.569249  0  1.055825  0  0  -0.502616  0  1.338706  0  0  -0.520773  0  1.315408  0  0  -0.27692  -0.4893  0  1.35478  0
Cl  Cl79  1  0.61130692  0.90311625  0.41081128  1  0  -0.56925  0  1.055801  0  0  -0.50262  0  1.338692  0  0  -0.520778  0  1.315395  0  0  -0.276917  -0.489298  0  1.354759  0
Cl  Cl80  1  0.00565129  0.50660316  0.11792845  1  0  -0.543287  0  1.024847  0  0  -0.472832  0  1.310052  0  0  -0.492238  0  1.287995  0  0  -0.278077  -0.458342  0  1.326305  0
Cl  Cl81  1  0.99435209  0.49340290  0.88207216  1  0  -0.543313  0  1.024809  0  0  -0.47286  0  1.31002  0  0  -0.492266  0  1.287962  0  0  -0.278095  -0.458376  0  1.326272  0
Cl  Cl82  1  0.47568402  0.61631505  0.89712752  1  0  -0.555218  0  0.9767  0  0  -0.486962  0  1.253831  0  0  -0.50565  0  1.231518  0  0  -0.29942  -0.473046  0  1.269952  0
Cl  Cl83  1  0.52431701  0.38368691  0.10287707  1  0  -0.555237  0  0.976715  0  0  -0.48699  0  1.253854  0  0  -0.505678  0  1.23154  0  0  -0.299418  -0.47307  0  1.269978  0
O  O84  1  0.36890917  0.78670765  0.67788700  1  0  -0.516135  0  2.103523  0  0  -0.464141  0  2.329458  0  0  -0.479581  0  2.318399  0  0  -0.398328  -0.45304  0  2.336773  0
O  O85  1  0.63107497  0.21329138  0.32211951  1  0  -0.51607  0  2.103589  0  0  -0.46414  0  2.329457  0  0  -0.479568  0  2.318422  0  0  -0.398295  -0.453048  0  2.336755  0
O  O86  1  0.32279468  0.27196420  0.73949182  1  0  -0.518995  0  2.062919  0  0  -0.469062  0  2.278762  0  0  -0.484601  0  2.268088  0  0  -0.401642  -0.457961  0  2.285977  0
O  O87  1  0.67720795  0.72803582  0.26050745  1  0  -0.519  0  2.062875  0  0  -0.469049  0  2.278724  0  0  -0.484597  0  2.268028  0  0  -0.401633  -0.457947  0  2.285939  0
