# generated using pymatgen
data_AlH11C16N2O5
_symmetry_space_group_name_H-M   'P 1'
_cell_length_a   6.66282064
_cell_length_b   23.79509815
_cell_length_c   25.43272365
_cell_angle_alpha   90.14893148
_cell_angle_beta   89.83798171
_cell_angle_gamma   89.86777125
_symmetry_Int_Tables_number   1
_chemical_formula_structural   AlH11C16N2O5
_chemical_formula_sum   'Al4 H44 C64 N8 O20'
_cell_volume   4032.12630677
_cell_formula_units_Z   4
loop_
 _symmetry_equiv_pos_site_id
 _symmetry_equiv_pos_as_xyz
  1  'x, y, z'
loop_
 _atom_site_type_symbol
 _atom_site_label
 _atom_site_symmetry_multiplicity
 _atom_site_fract_x
 _atom_site_fract_y
 _atom_site_fract_z
 _atom_site_occupancy
 _atom_site_pbe_bader_charge
 _atom_site_pbe_bader_spin_density
 _atom_site_pbe_cm5_charge
 _atom_site_pbe_ddec_charge
 _atom_site_pbe_ddec_spin_density
 _atom_site_pbe_ddec_sum_bond_order
 _atom_site_pbe_magmom
Al  Al0  1  0.99434917  0.00361853  0.49550806  1  2.499838  0  0.396583  1.644198  0  2.587703  0
Al  Al1  1  0.49358033  0.00526192  0.49397337  1  2.499088  0  0.401066  1.64296  0  2.570713  0
Al  Al2  1  0.98993140  0.50439652  0.99456865  1  2.500459  0  0.396988  1.64683  0  2.583475  0
Al  Al3  1  0.49062491  0.50307752  0.99525705  1  2.50462  0  0.398861  1.644514  0  2.576108  0
H  H4  1  0.24065901  0.07477718  0.51399399  1  0.629233  0  0.352492  0.428984  0  0.856922  0
H  H5  1  0.73807087  0.93560758  0.51742434  1  0.619421  0  0.350991  0.427439  0  0.859968  0
H  H6  1  0.23734762  0.43256033  0.01197849  1  0.618433  0  0.353223  0.430579  0  0.853498  0
H  H7  1  0.73581150  0.57225119  0.01828767  1  0.624207  0  0.35092  0.426579  0  0.860055  0
H  H8  1  0.44129486  0.41649098  0.13815583  1  0.060288  0  0.104283  0.114548  0  1.006872  0
H  H9  1  0.45875776  0.35284842  0.21614799  1  0.096566  0  0.100587  0.104863  0  1.017189  0
H  H10  1  0.05754358  0.37875261  0.10188260  1  0.085205  0  0.106843  0.120131  0  1.007236  0
H  H11  1  0.45284009  0.10925905  0.36307735  1  0.083218  0  0.111138  0.128373  0  0.996108  0
H  H12  1  0.07635371  0.13386683  0.39960413  1  0.103601  0  0.107492  0.119163  0  1.00486  0
H  H13  1  0.08825856  0.21567986  0.33765998  1  0.083096  0  0.09856  0.101974  0  1.025819  0
H  H14  1  0.92784722  0.58902095  0.85967880  1  0.097843  0  0.108382  0.12081  0  1.000695  0
H  H15  1  0.91727403  0.65358298  0.78192375  1  0.08067  0  0.098957  0.102905  0  1.024918  0
H  H16  1  0.55042478  0.62894856  0.88285529  1  0.059299  0  0.110772  0.128284  0  0.997459  0
H  H17  1  0.93285517  0.90590395  0.62888124  1  0.066085  0  0.108058  0.123672  0  1.00373  0
H  H18  1  0.54686180  0.86632617  0.59151150  1  0.063753  0  0.102902  0.110164  0  1.01212  0
H  H19  1  0.53870545  0.78714373  0.65572979  1  0.091488  0  0.099921  0.104204  0  1.016164  0
H  H20  1  0.54942731  0.58401481  0.13574660  1  0.092296  0  0.10497  0.114496  0  1.006174  0
H  H21  1  0.55542503  0.64508902  0.21601540  1  0.080489  0  0.100174  0.104267  0  1.019009  0
H  H22  1  0.92897543  0.62661456  0.11156179  1  0.086224  0  0.105955  0.119041  0  1.007871  0
H  H23  1  0.55684117  0.89709825  0.36736046  1  0.082289  0  0.111655  0.129686  0  0.99583  0
H  H24  1  0.94094953  0.86369138  0.40672336  1  0.102358  0  0.107627  0.119919  0  1.002873  0
H  H25  1  0.94084683  0.78164708  0.34478532  1  0.092618  0  0.09935  0.103175  0  1.01812  0
H  H26  1  0.44541174  0.36243638  0.90301126  1  0.089203  0  0.105889  0.116991  0  1.005725  0
H  H27  1  0.46159932  0.27985667  0.84187373  1  0.082166  0  0.098458  0.101828  0  1.021026  0
H  H28  1  0.06136160  0.40083649  0.86793228  1  0.136105  0  0.112468  0.130816  0  0.994393  0
H  H29  1  0.44005917  0.13144132  0.61206163  1  0.103619  0  0.106777  0.12058  0  1.004186  0
H  H30  1  0.06122581  0.08622980  0.63014634  1  0.128142  0  0.105135  0.114958  0  1.006965  0
H  H31  1  0.08097182  0.14597132  0.71123175  1  0.096552  0  0.098749  0.103231  0  1.024524  0
H  H32  1  0.10574161  0.27574938  0.20777446  1  0.455792  0  0.29946  0.29269  0  0.973633  0
H  H33  1  0.22597634  0.30667555  0.15506135  1  0.431734  0  0.309991  0.3048  0  0.946427  0
H  H34  1  0.45529852  0.21581207  0.25927909  1  0.445942  0  0.296801  0.289327  0  0.976353  0
H  H35  1  0.31958063  0.16245554  0.28748940  1  0.45061  0  0.310099  0.30353  0  0.943404  0
H  H36  1  0.55317314  0.73627030  0.77981361  1  0.453058  0  0.297309  0.290598  0  0.975827  0
H  H37  1  0.68846829  0.70665789  0.83026598  1  0.445705  0  0.30943  0.303027  0  0.946564  0
H  H38  1  0.90036132  0.79991561  0.73248724  1  0.443613  0  0.298857  0.291559  0  0.972749  0
H  H39  1  0.77717055  0.85445644  0.70200748  1  0.438717  0  0.311667  0.30645  0  0.940541  0
H  H40  1  0.91681391  0.72736137  0.22052948  1  0.458232  0  0.29835  0.292781  0  0.975087  0
H  H41  1  0.78358111  0.69991372  0.16839456  1  0.433769  0  0.309083  0.303606  0  0.9467  0
H  H42  1  0.57511655  0.78824083  0.26540405  1  0.414139  0  0.297437  0.290723  0  0.974008  0
H  H43  1  0.70354300  0.84278914  0.29427313  1  0.439676  0  0.310874  0.305092  0  0.942221  0
H  H44  1  0.10384012  0.29085899  0.76753647  1  0.449957  0  0.298434  0.29178  0  0.971026  0
H  H45  1  0.22325761  0.34666682  0.79692816  1  0.434435  0  0.311713  0.307321  0  0.937779  0
H  H46  1  0.45085008  0.23141578  0.72148519  1  0.45539  0  0.296807  0.291066  0  0.97684  0
H  H47  1  0.31107620  0.20657371  0.66978320  1  0.447077  0  0.310036  0.303791  0  0.942958  0
C  C48  1  0.74028164  0.07171958  0.56733312  1  1.569223  0  0.264981  0.642251  0  4.0918  0
C  C49  1  0.75386285  0.07149309  0.42427452  1  1.552695  0  0.268204  0.638194  0  4.095399  0
C  C50  1  0.25130914  0.93260907  0.42804514  1  1.567058  0  0.267659  0.636091  0  4.095271  0
C  C51  1  0.23858124  0.93562967  0.56608508  1  1.566683  0  0.263398  0.639361  0  4.091617  0
C  C52  1  0.74813450  0.43368056  0.92655173  1  1.572201  0  0.26829  0.637262  0  4.099614  0
C  C53  1  0.73918062  0.43675117  0.06762539  1  1.561433  0  0.263359  0.63963  0  4.094029  0
C  C54  1  0.23570124  0.56866965  0.06939602  1  1.553706  0  0.265754  0.644545  0  4.085523  0
C  C55  1  0.24527154  0.56875795  0.92263504  1  1.567614  0  0.26881  0.639356  0  4.09415  0
C  C56  1  0.74808468  0.39990135  0.11493952  1  -0.021694  0  -0.018497  -0.02339  0  4.017335  0
C  C57  1  0.57784360  0.39323941  0.14716285  1  0.007685  0  -0.105208  -0.141896  0  4.03822  0
C  C58  1  0.58825070  0.35788566  0.19033952  1  -0.060797  0  -0.092679  -0.120593  0  4.014031  0
C  C59  1  0.76476187  0.32748019  0.20173937  1  0.077058  0  -0.016823  0.024017  0  4.100775  0
C  C60  1  0.93903414  0.33545596  0.16987157  1  0.447303  0  0.104533  0.269932  0  4.07549  0
C  C61  1  0.92678607  0.37209822  0.12692532  1  -0.013883  0  -0.09823  -0.216871  0  3.944057  0
C  C62  1  0.77079174  0.28769073  0.24272359  1  -0.027541  0  -0.051451  -0.111893  0  4.157863  0
C  C63  1  0.78520410  0.25095336  0.27621252  1  -0.406328  0  -0.050444  -0.108646  0  4.153461  0
C  C64  1  0.78055843  0.20672118  0.31305535  1  0.051188  0  -0.017582  0.02414  0  4.099848  0
C  C65  1  0.59792829  0.17611764  0.31956994  1  0.427363  0  0.102907  0.265646  0  4.065842  0
C  C66  1  0.59191674  0.13232829  0.35633720  1  -0.016615  0  -0.095802  -0.21854  0  3.939883  0
C  C67  1  0.76335217  0.11733871  0.38444631  1  0.038744  0  -0.016079  -0.021118  0  4.016135  0
C  C68  1  0.94488860  0.14642813  0.37710254  1  -0.0441  0  -0.102368  -0.138957  0  4.030252  0
C  C69  1  0.95105684  0.19133272  0.34250629  1  -0.017104  0  -0.094054  -0.123274  0  4.016931  0
C  C70  1  0.23970349  0.60642743  0.87587033  1  -0.038927  0  -0.015227  -0.018673  0  4.016716  0
C  C71  1  0.05958641  0.61286271  0.84770853  1  -0.01165  0  -0.102479  -0.139845  0  4.028935  0
C  C72  1  0.05407124  0.64892372  0.80497828  1  -0.04495  0  -0.093995  -0.123763  0  4.014976  0
C  C73  1  0.22392295  0.68074478  0.79054388  1  0.099867  0  -0.018295  0.021537  0  4.099788  0
C  C74  1  0.40714234  0.67352955  0.81879782  1  0.435796  0  0.104454  0.269449  0  4.067348  0
C  C75  1  0.41203512  0.63547240  0.86081605  1  0.004978  0  -0.096428  -0.221052  0  3.941138  0
C  C76  1  0.21711969  0.72112428  0.75002075  1  -0.342881  0  -0.049881  -0.106705  0  4.15265  0
C  C77  1  0.22875383  0.75834820  0.71690944  1  -0.113323  0  -0.052236  -0.113563  0  4.157879  0
C  C78  1  0.23269737  0.80223973  0.67971652  1  0.154081  0  -0.016425  0.025372  0  4.098138  0
C  C79  1  0.05802529  0.83620933  0.67250604  1  0.424065  0  0.104113  0.268742  0  4.071106  0
C  C80  1  0.06497845  0.87976783  0.63553248  1  -0.005047  0  -0.098771  -0.220593  0  3.944751  0
C  C81  1  0.23951961  0.89057259  0.60677403  1  -0.009988  0  -0.018504  -0.023618  0  4.01791  0
C  C82  1  0.41241173  0.85769727  0.61449343  1  0.001921  0  -0.104712  -0.138146  0  4.044441  0
C  C83  1  0.40722580  0.81376670  0.65016513  1  -0.104911  0  -0.092253  -0.120077  0  4.013577  0
C  C84  1  0.23958045  0.60339839  0.11831645  1  -0.024765  0  -0.017685  -0.02213  0  4.017495  0
C  C85  1  0.41728760  0.60785730  0.14777059  1  0.020797  0  -0.104859  -0.140735  0  4.036997  0
C  C86  1  0.42016931  0.64185079  0.19216204  1  -0.080293  0  -0.092527  -0.121127  0  4.008115  0
C  C87  1  0.24987414  0.67338469  0.20728728  1  0.130127  0  -0.016613  0.025515  0  4.096985  0
C  C88  1  0.06779637  0.66739210  0.17831497  1  0.393547  0  0.105125  0.271067  0  4.070714  0
C  C89  1  0.06622121  0.63174297  0.13433570  1  -0.010319  0  -0.098254  -0.218793  0  3.946823  0
C  C90  1  0.25583337  0.71261764  0.24898334  1  -0.299213  0  -0.052366  -0.11353  0  4.151887  0
C  C91  1  0.24582320  0.74956687  0.28260187  1  -0.150956  0  -0.049408  -0.106838  0  4.152973  0
C  C92  1  0.24691007  0.79400106  0.31950597  1  0.099152  0  -0.016884  0.022874  0  4.09703  0
C  C93  1  0.42442249  0.82686940  0.32553724  1  0.40779  0  0.103721  0.268023  0  4.067656  0
C  C94  1  0.42259942  0.87169398  0.36145215  1  -0.017445  0  -0.095509  -0.21841  0  3.937762  0
C  C95  1  0.24927211  0.88488335  0.38990454  1  -0.005518  0  -0.016257  -0.022814  0  4.017485  0
C  C96  1  0.07370621  0.85282581  0.38377210  1  -0.046931  0  -0.102314  -0.137251  0  4.030632  0
C  C97  1  0.07444750  0.80757320  0.34935908  1  -0.017789  0  -0.09272  -0.12102  0  4.012669  0
C  C98  1  0.75306423  0.38611277  0.88832443  1  -0.071306  0  -0.01655  -0.023487  0  4.021503  0
C  C99  1  0.58185970  0.35255815  0.88116408  1  -0.033984  0  -0.103842  -0.14005  0  4.037017  0
C  C100  1  0.59173147  0.30695547  0.84722080  1  -0.012897  0  -0.093459  -0.121758  0  4.016905  0
C  C101  1  0.76868836  0.29466227  0.81877362  1  0.106861  0  -0.017794  0.022259  0  4.101396  0
C  C102  1  0.94185870  0.32902439  0.82588036  1  0.371376  0  0.104336  0.269289  0  4.070786  0
C  C103  1  0.93080938  0.37418262  0.86128386  1  -0.011997  0  -0.095179  -0.217344  0  3.935027  0
C  C104  1  0.77434159  0.25031515  0.78185280  1  -0.288297  0  -0.050196  -0.109315  0  4.15661  0
C  C105  1  0.78632228  0.21363863  0.74801641  1  -0.125823  0  -0.051908  -0.111975  0  4.149531  0
C  C106  1  0.77522936  0.17518816  0.70577094  1  0.131889  0  -0.016435  0.026406  0  4.096779  0
C  C107  1  0.58955930  0.17059107  0.67808836  1  0.362615  0  0.103917  0.267617  0  4.064157  0
C  C108  1  0.58030780  0.13554430  0.63375667  1  -0.027903  0  -0.097258  -0.216953  0  3.943955  0
C  C109  1  0.75005488  0.10660690  0.61608981  1  -0.034814  0  -0.017422  -0.02152  0  4.015556  0
C  C110  1  0.93182050  0.11017362  0.64392439  1  -0.02993  0  -0.104415  -0.138351  0  4.034583  0
C  C111  1  0.94226797  0.14342361  0.68870117  1  -0.055028  0  -0.094  -0.125297  0  4.014846  0
N  N112  1  0.11466928  0.30825830  0.18219142  1  -1.26077  0  -0.588917  -0.611357  0  3.374101  0
N  N113  1  0.43040502  0.19123134  0.29117242  1  -1.250295  0  -0.590539  -0.611415  0  3.358271  0
N  N114  1  0.57569104  0.70291541  0.80388663  1  -1.256984  0  -0.591146  -0.612895  0  3.363454  0
N  N115  1  0.88544110  0.82457666  0.70026020  1  -1.235348  0  -0.588972  -0.611979  0  3.363422  0
N  N116  1  0.89794397  0.69571132  0.19421739  1  -1.25037  0  -0.590414  -0.61449  0  3.365873  0
N  N117  1  0.59475610  0.81329669  0.29731831  1  -1.21038  0  -0.590795  -0.615204  0  3.359228  0
N  N118  1  0.11683360  0.31642184  0.79934470  1  -1.237761  0  -0.589295  -0.614109  0  3.35762  0
N  N119  1  0.42339261  0.19969885  0.69574065  1  -1.266488  0  -0.591438  -0.613251  0  3.353691  0
O  O120  1  0.90785952  0.06022108  0.54534770  1  -1.259467  0  -0.240767  -0.605953  0  2.355551  0
O  O121  1  0.58221117  0.05845994  0.44272885  1  -1.251407  0  -0.233237  -0.58507  0  2.335057  0
O  O122  1  0.41903425  0.95593995  0.43777790  1  -1.256381  0  -0.233691  -0.580678  0  2.33279  0
O  O123  1  0.06822575  0.95678480  0.55440402  1  -1.263789  0  -0.242211  -0.603351  0  2.347519  0
O  O124  1  0.08399027  0.94606413  0.44901968  1  -1.261158  0  -0.232685  -0.586985  0  2.354873  0
O  O125  1  0.40644139  0.94878304  0.54520796  1  -1.258927  0  -0.239975  -0.603578  0  2.337997  0
O  O126  1  0.56783544  0.05629782  0.55107190  1  -1.262694  0  -0.242231  -0.602068  0  2.324335  0
O  O127  1  0.92038648  0.04965020  0.43778379  1  -1.260531  0  -0.233078  -0.582785  0  2.348374  0
O  O128  1  0.24333639  0.03911767  0.49552824  1  -1.433114  0  -0.448597  -0.989959  0  2.201558  0
O  O129  1  0.74246664  0.97014614  0.49734845  1  -1.423809  0  -0.448138  -0.989775  0  2.200189  0
O  O130  1  0.91483177  0.45680547  0.93760656  1  -1.256461  0  -0.233717  -0.583164  0  2.352763  0
O  O131  1  0.56639264  0.45388654  0.05316185  1  -1.260995  0  -0.240854  -0.600284  0  2.340793  0
O  O132  1  0.40465626  0.55716078  0.04814690  1  -1.256387  0  -0.240803  -0.605545  0  2.343674  0
O  O133  1  0.07683311  0.55738829  0.94380956  1  -1.253202  0  -0.233476  -0.58765  0  2.356091  0
O  O134  1  0.06422484  0.55372905  0.05206555  1  -1.256209  0  -0.241218  -0.60374  0  2.337239  0
O  O135  1  0.41560296  0.55136076  0.93845064  1  -1.254564  0  -0.233751  -0.582594  0  2.328233  0
O  O136  1  0.57867100  0.44715187  0.94629880  1  -1.26031  0  -0.234393  -0.588244  0  2.345816  0
O  O137  1  0.90533660  0.44790455  0.04478003  1  -1.264623  0  -0.243087  -0.610749  0  2.351967  0
O  O138  1  0.23993859  0.46943130  0.99598246  1  -1.422911  0  -0.448516  -0.992976  0  2.20568  0
O  O139  1  0.73879555  0.53848427  0.99689207  1  -1.430846  0  -0.447918  -0.987118  0  2.192407  0
