# generated using pymatgen
data_ZnH5C11INO4
_symmetry_space_group_name_H-M   'P 1'
_cell_length_a   7.39350926
_cell_length_b   8.85994220
_cell_length_c   15.41620710
_cell_angle_alpha   90.25931576
_cell_angle_beta   70.92788411
_cell_angle_gamma   81.14864821
_symmetry_Int_Tables_number   1
_chemical_formula_structural   ZnH5C11INO4
_chemical_formula_sum   'Zn2 H10 C22 I2 N2 O8'
_cell_volume   941.43040785
_cell_formula_units_Z   2
loop_
 _symmetry_equiv_pos_site_id
 _symmetry_equiv_pos_as_xyz
  1  'x, y, z'
loop_
 _atom_site_type_symbol
 _atom_site_label
 _atom_site_symmetry_multiplicity
 _atom_site_fract_x
 _atom_site_fract_y
 _atom_site_fract_z
 _atom_site_occupancy
 _atom_site_pbe_bader_charge
 _atom_site_pbe_bader_spin_density
 _atom_site_pbe_cm5_charge
 _atom_site_pbe_ddec_charge
 _atom_site_pbe_ddec_spin_density
 _atom_site_pbe_ddec_sum_bond_order
 _atom_site_pbe_magmom
Zn  Zn0  1  0.70446712  0.49138787  0.46090467  1  1.286444  0  0.675744  0.828582  0  2.38975  0
Zn  Zn1  1  0.29553970  0.50863737  0.53909340  1  1.286013  0  0.675746  0.828597  0  2.389731  0
H  H2  1  0.53865237  0.27081016  0.76832444  1  0.092544  0  0.103881  0.111713  0  0.994845  0
H  H3  1  0.11659205  0.48885305  0.40841999  1  0.506217  0  0.320553  0.278688  0  0.946682  0
H  H4  1  0.46134386  0.72918258  0.23167911  1  0.092709  0  0.103874  0.111745  0  0.994635  0
H  H5  1  0.40482141  0.89672789  0.94743888  1  0.084677  0  0.088453  0.091857  0  1.058294  0
H  H6  1  0.59516690  0.10325260  0.05256473  1  0.084626  0  0.088404  0.091668  0  1.058263  0
H  H7  1  0.41363724  0.88196313  0.10556043  1  0.066923  0  0.097973  0.09573  0  1.024505  0
H  H8  1  0.58636420  0.11803968  0.89444395  1  0.06673  0  0.09813  0.096109  0  1.024898  0
H  H9  1  0.27666802  0.02256664  0.52702108  1  0.127355  0  0.114857  0.140894  0  0.973095  0
H  H10  1  0.72335817  0.97744774  0.47297765  1  0.127425  0  0.11478  0.140752  0  0.972789  0
H  H11  1  0.88342522  0.51115707  0.59157829  1  0.506505  0  0.320591  0.278633  0  0.946796  0
C  C12  1  0.45268423  0.79250524  0.50204453  1  1.518002  0  0.210503  0.629148  0  4.178628  0
C  C13  1  0.48215765  0.62410627  0.18984072  1  -0.017328  0  -0.085024  -0.145443  0  3.938553  0
C  C14  1  0.48250883  0.51713527  0.77394712  1  -0.021827  0  -0.023008  -0.053676  0  4.022772  0
C  C15  1  0.51748810  0.48285862  0.22605832  1  -0.021799  0  -0.02303  -0.053781  0  4.022329  0
C  C16  1  0.45787091  0.65264832  0.82651992  1  -0.227855  0  -0.042701  -0.017855  0  3.846912  0
C  C17  1  0.54212170  0.34732742  0.17348063  1  -0.22781  0  -0.042671  -0.017891  0  3.846706  0
C  C18  1  0.46261332  0.65052577  0.91740115  1  0.006921  0  -0.009941  0.048951  0  4.01555  0
C  C19  1  0.53736123  0.34947674  0.08260064  1  0.00676  0  -0.010065  0.048726  0  4.015221  0
C  C20  1  0.49699365  0.50418840  0.95426115  1  -0.035815  0  0.007471  0.011325  0  3.890208  0
C  C21  1  0.50297757  0.49581212  0.04574881  1  0.012157  0  0.007488  0.011616  0  3.890912  0
C  C22  1  0.52603085  0.36646321  0.89949818  1  0.015513  0  -0.006083  0.08129  0  4.051364  0
C  C23  1  0.54732105  0.20751106  0.49795889  1  1.517314  0  0.210367  0.629081  0  4.179115  0
C  C24  1  0.47396128  0.63350328  0.10049387  1  0.0162  0  -0.006057  0.08106  0  4.052064  0
C  C25  1  0.43323052  0.78571245  0.97491607  1  -0.03334  0  -0.096967  -0.125349  0  4.004374  0
C  C26  1  0.56675260  0.21427371  0.02507826  1  -0.033005  0  -0.096785  -0.124792  0  4.003791  0
C  C27  1  0.43803423  0.77754315  0.06253460  1  -0.018446  0  -0.08625  -0.114402  0  3.98699  0
C  C28  1  0.56196127  0.22242440  0.93745974  1  -0.017355  0  -0.086453  -0.115091  0  3.987979  0
C  C29  1  0.42516348  0.96189154  0.50784328  1  0.056115  0  -0.080929  -0.172293  0  3.888329  0
C  C30  1  0.57482381  0.03814254  0.49216591  1  -0.051585  0  -0.080504  -0.171502  0  3.887846  0
C  C31  1  0.52781251  0.48403508  0.32193679  1  1.58689  0  0.213918  0.612017  0  4.184229  0
C  C32  1  0.47219803  0.51595940  0.67806405  1  1.586472  0  0.213957  0.611952  0  4.184087  0
C  C33  1  0.51783687  0.37587723  0.81015380  1  -0.017599  0  -0.085007  -0.145447  0  3.938751  0
I  I34  1  0.41617939  0.86246605  0.76486332  1  0.101698  0  0.08712  -0.013184  0  1.447945  0
I  I35  1  0.58384459  0.13751871  0.23512896  1  0.101628  0  0.087187  -0.013057  0  1.448141  0
N  N36  1  0.01537565  0.50588967  0.53697918  1  -0.393763  0  -0.229109  -0.096766  0  3.130558  0
N  N37  1  0.98462854  0.49412440  0.46302433  1  -0.443965  0  -0.229017  -0.096758  0  3.130451  0
O  O38  1  0.62564171  0.71943563  0.47203888  1  -1.165364  0  -0.32052  -0.549143  0  2.338294  0
O  O39  1  0.37437416  0.28058251  0.52796023  1  -1.165412  0  -0.320443  -0.549116  0  2.338287  0
O  O40  1  0.29777178  0.73380044  0.52851798  1  -1.152076  0  -0.319916  -0.540888  0  2.302915  0
O  O41  1  0.70221811  0.26622334  0.47149221  1  -1.15179  0  -0.319918  -0.541015  0  2.30319  0
O  O42  1  0.69357689  0.48089936  0.32990493  1  -1.138717  0  -0.310202  -0.515147  0  2.257409  0
O  O43  1  0.30643740  0.51911188  0.67008842  1  -1.138569  0  -0.310248  -0.515121  0  2.257321  0
O  O44  1  0.36794085  0.49414947  0.38810119  1  -1.190344  0  -0.310059  -0.586198  0  2.357899  0
O  O45  1  0.63206533  0.50585876  0.61189817  1  -1.190076  0  -0.310091  -0.586222  0  2.357898  0
