# generated using pymatgen
data_CuH21C29N2O5
_symmetry_space_group_name_H-M   'P 1'
_cell_length_a   9.25882003
_cell_length_b   12.58904661
_cell_length_c   25.58411687
_cell_angle_alpha   96.33601260
_cell_angle_beta   89.99951953
_cell_angle_gamma   89.99974814
_symmetry_Int_Tables_number   1
_chemical_formula_structural   CuH21C29N2O5
_chemical_formula_sum   'Cu4 H84 C116 N8 O20'
_cell_volume   2963.86225442
_cell_formula_units_Z   4
loop_
 _symmetry_equiv_pos_site_id
 _symmetry_equiv_pos_as_xyz
  1  'x, y, z'
loop_
 _atom_site_type_symbol
 _atom_site_label
 _atom_site_symmetry_multiplicity
 _atom_site_fract_x
 _atom_site_fract_y
 _atom_site_fract_z
 _atom_site_occupancy
 _atom_site_pbe_bader_charge
 _atom_site_pbe_bader_spin_density
 _atom_site_pbe_cm5_charge
 _atom_site_pbe_ddec_charge
 _atom_site_pbe_ddec_spin_density
 _atom_site_pbe_ddec_sum_bond_order
 _atom_site_pbe_magmom
Cu  Cu0  1  0.62287995  0.95076980  0.00343491  1  1.0757  0.558619  0.686831  0.770265  0.714133  2.390019  0.556
Cu  Cu1  1  0.12287045  0.04922422  0.49656545  1  1.075727  0.558636  0.686834  0.770317  0.714163  2.390169  0.556
Cu  Cu2  1  0.37712923  0.04922586  0.99656282  1  1.075388  -0.5586  0.686784  0.770359  -0.714127  2.389695  -0.556
Cu  Cu3  1  0.87711929  0.95077145  0.50343737  1  1.075629  -0.558611  0.686833  0.770279  -0.714137  2.389956  -0.556
H  H4  1  0.10186981  0.29135232  0.63051481  1  0.095832  0.000334  0.105169  0.113449  0.000279  1.005668  0.0
H  H5  1  0.60186796  0.70865327  0.86948118  1  0.09612  0.000334  0.105191  0.113361  0.000279  1.005792  0.0
H  H6  1  0.89813072  0.70865534  0.36948825  1  0.095884  -0.000334  0.105211  0.113441  -0.000279  1.005642  0.0
H  H7  1  0.39812502  0.29133759  0.13051434  1  0.096029  -0.000334  0.105216  0.113433  -0.000279  1.005656  0.0
H  H8  1  0.72956998  0.09784360  0.65351486  1  0.085561  -0.000297  0.105791  0.111247  -0.00024  0.994833  0.0
H  H9  1  0.22957074  0.90216069  0.84648575  1  0.08539  -0.000298  0.105788  0.111227  -0.00024  0.994907  0.0
H  H10  1  0.27043164  0.90216246  0.34648616  1  0.085696  0.000297  0.105817  0.111289  0.00024  0.994847  0.0
H  H11  1  0.77042547  0.09783896  0.15351297  1  0.085876  0.000297  0.105794  0.111248  0.00024  0.994906  0.0
H  H12  1  0.05373170  0.40104159  0.71521166  1  0.075885  -0.000166  0.099706  0.107393  -8.6e-05  1.034492  0.0
H  H13  1  0.55373246  0.59896578  0.78478379  1  0.076386  -0.000166  0.099725  0.107348  -8.6e-05  1.034544  0.0
H  H14  1  0.94626128  0.59896447  0.28479054  1  0.075924  0.000166  0.099732  0.107412  8.6e-05  1.034514  0.0
H  H15  1  0.44625296  0.40103306  0.21521098  1  0.075973  0.000166  0.099704  0.107332  8.6e-05  1.034549  0.0
H  H16  1  0.67987335  0.20707021  0.73855778  1  0.078673  0.000201  0.104472  0.112947  0.000107  1.007859  0.0
H  H17  1  0.17986810  0.79293507  0.76144265  1  0.078768  0.000201  0.104473  0.112933  0.000107  1.007838  0.0
H  H18  1  0.32012179  0.79293903  0.26144107  1  0.078554  -0.000202  0.104467  0.112946  -0.000107  1.007907  0.0
H  H19  1  0.82012272  0.20706778  0.23855586  1  0.078962  -0.000201  0.104493  0.112953  -0.000107  1.007919  0.0
H  H20  1  0.93740774  0.78470569  0.82659594  1  0.08713  -0.0  0.099549  0.09716  2e-06  1.002231  0.0
H  H21  1  0.43742634  0.21530017  0.67340178  1  0.087192  -0.0  0.099486  0.096991  2e-06  1.002221  0.0
H  H22  1  0.06256903  0.21530277  0.17340951  1  0.086824  0.0  0.099504  0.097036  -2e-06  1.002172  0.0
H  H23  1  0.56256988  0.78469309  0.32659386  1  0.086904  0.0  0.099491  0.097001  -2e-06  1.002198  0.0
H  H24  1  0.86082042  0.71185036  0.73585891  1  0.07031  -0.0  0.102181  0.099117  -0.0  0.989735  0.0
H  H25  1  0.36083756  0.28815581  0.76414062  1  0.070617  -0.0  0.102137  0.099111  -0.0  0.989652  0.0
H  H26  1  0.13916716  0.28816529  0.26414536  1  0.070451  -0.0  0.102189  0.099094  -0.0  0.989651  0.0
H  H27  1  0.63916298  0.71183585  0.23585650  1  0.070658  -0.0  0.102183  0.099141  -0.0  0.989624  0.0
H  H28  1  0.96786368  0.66074993  0.89501919  1  0.041555  -3e-06  0.094172  0.087737  -3e-06  1.05064  0.0
H  H29  1  0.46787773  0.33926221  0.60497995  1  0.041896  -3e-06  0.094175  0.087823  -3e-06  1.050735  0.0
H  H30  1  0.03210445  0.33925774  0.10498583  1  0.042026  3e-06  0.094139  0.087759  3e-06  1.050693  0.0
H  H31  1  0.53211309  0.66073664  0.39501756  1  0.041984  3e-06  0.094116  0.087722  3e-06  1.050776  0.0
H  H32  1  0.81067662  0.51849571  0.71497929  1  0.088311  1e-06  0.103991  0.112666  1e-06  1.00073  0.0
H  H33  1  0.31068780  0.48150906  0.78502111  1  0.088188  1e-06  0.104003  0.112746  1e-06  1.000644  0.0
H  H34  1  0.18930880  0.48151993  0.28502225  1  0.087959  -1e-06  0.104009  0.112676  -1e-06  1.000741  0.0
H  H35  1  0.68930518  0.51848101  0.21497749  1  0.087966  -1e-06  0.104005  0.112681  -1e-06  1.000702  0.0
H  H36  1  0.92502752  0.46667320  0.87361843  1  0.048552  4e-06  0.103013  0.11154  2e-06  1.010399  0.0
H  H37  1  0.42502587  0.53333670  0.62638072  1  0.048439  4e-06  0.102926  0.111461  2e-06  1.010365  0.0
H  H38  1  0.07495142  0.53333445  0.12638190  1  0.048562  -4e-06  0.102907  0.111461  -2e-06  1.01039  0.0
H  H39  1  0.57496603  0.46666136  0.37361909  1  0.048426  -4e-06  0.102924  0.111468  -2e-06  1.010316  0.0
H  H40  1  0.94572284  0.19095627  0.81176963  1  0.081206  -0.000225  0.108227  0.119519  -0.000118  0.985554  0.0
H  H41  1  0.44572243  0.80904876  0.68822880  1  0.081166  -0.000225  0.108218  0.119492  -0.000118  0.985535  0.0
H  H42  1  0.05427121  0.80905937  0.18822956  1  0.081193  0.000224  0.10824  0.119522  0.000118  0.98543  0.0
H  H43  1  0.55427055  0.19093730  0.31176919  1  0.081096  0.000224  0.108226  0.119555  0.000117  0.985369  0.0
H  H44  1  0.60575730  0.42308039  0.84272537  1  0.080627  0.000182  0.106233  0.117117  9.4e-05  0.998477  0.0
H  H45  1  0.10575143  0.57692519  0.65727843  1  0.080617  0.000182  0.106232  0.117046  9.4e-05  0.998391  0.0
H  H46  1  0.39423891  0.57693606  0.15727934  1  0.080796  -0.000183  0.106298  0.117188  -9.4e-05  0.998401  0.0
H  H47  1  0.89424262  0.42306327  0.34272048  1  0.080802  -0.000183  0.106293  0.117189  -9.4e-05  0.998399  0.0
H  H48  1  0.50403977  0.31652372  0.91065153  1  0.093574  -0.000333  0.106771  0.112276  -0.00028  1.004855  0.0
H  H49  1  0.00403160  0.68348147  0.58935256  1  0.093649  -0.000334  0.106748  0.112177  -0.00028  1.004811  0.0
H  H50  1  0.49596293  0.68349353  0.08935401  1  0.093832  0.000333  0.106772  0.112198  0.00028  1.004813  0.0
H  H51  1  0.99595706  0.31650460  0.41064583  1  0.093912  0.000333  0.106771  0.112192  0.00028  1.004835  0.0
H  H52  1  0.84733507  0.08774425  0.88183647  1  0.094393  0.000229  0.106315  0.110317  0.000179  0.998982  0.0
H  H53  1  0.34732811  0.91226197  0.61816350  1  0.101857  0.000228  0.106291  0.11029  0.000179  0.998907  0.0
H  H54  1  0.15266547  0.91227059  0.11816424  1  0.102011  -0.000228  0.106356  0.110344  -0.000179  0.998877  0.0
H  H55  1  0.65266703  0.08772809  0.38183315  1  0.101971  -0.000228  0.106355  0.110332  -0.000179  0.998893  0.0
H  H56  1  0.90235057  0.96749225  0.94800231  1  0.113585  -6.6e-05  0.112751  0.085356  -3.1e-05  1.022445  0.0
H  H57  1  0.40234715  0.03250497  0.55200013  1  0.113692  -6.6e-05  0.112728  0.085301  -3.1e-05  1.022545  0.0
H  H58  1  0.09767157  0.03250581  0.05199711  1  0.113458  6.6e-05  0.112714  0.085283  3.1e-05  1.022434  0.0
H  H59  1  0.59766527  0.96749230  0.44800120  1  0.113461  6.6e-05  0.112702  0.085278  3.1e-05  1.022432  0.0
H  H60  1  0.13384387  0.86852364  0.92904194  1  0.109613  -7e-05  0.106239  0.121855  -8.9e-05  1.039677  0.0
H  H61  1  0.63383618  0.13147944  0.57096085  1  0.109258  -7e-05  0.106231  0.121836  -8.9e-05  1.039679  0.0
H  H62  1  0.86617827  0.13147602  0.07095561  1  0.109557  7e-05  0.106291  0.121956  8.9e-05  1.039625  0.0
H  H63  1  0.36617840  0.86851623  0.42904157  1  0.109495  7e-05  0.106252  0.121925  8.9e-05  1.03971  0.0
H  H64  1  0.77204474  0.75965782  0.05273696  1  0.096548  -5.6e-05  0.115913  0.089757  -2.4e-05  0.990322  0.0
H  H65  1  0.27204928  0.24032760  0.44725935  1  0.096427  -5.7e-05  0.115869  0.089724  -2.4e-05  0.990387  0.0
H  H66  1  0.22796876  0.24034343  0.94725872  1  0.096317  5.7e-05  0.115917  0.089816  2.5e-05  0.990396  0.0
H  H67  1  0.72796098  0.75966806  0.55274190  1  0.096373  5.7e-05  0.115887  0.089788  2.5e-05  0.990365  0.0
H  H68  1  0.99803409  0.64912579  0.03752408  1  0.082946  -2.5e-05  0.108042  0.119901  -9e-06  1.008316  0.0
H  H69  1  0.49804302  0.35085953  0.46246841  1  0.083057  -2.5e-05  0.108006  0.119878  -9e-06  1.008273  0.0
H  H70  1  0.00197293  0.35086907  0.96247243  1  0.08292  2.5e-05  0.108058  0.119925  9e-06  1.008356  0.0
H  H71  1  0.50196832  0.64913693  0.53753210  1  0.082969  2.5e-05  0.108041  0.119856  9e-06  1.008347  0.0
H  H72  1  0.23624522  0.67215896  0.92669283  1  0.068714  -3e-05  0.105111  0.07753  -1.7e-05  0.97634  0.0
H  H73  1  0.73624278  0.32783252  0.57330825  1  0.068781  -3e-05  0.105131  0.077598  -1.7e-05  0.97627  0.0
H  H74  1  0.76376828  0.32783191  0.07330738  1  0.06874  2.9e-05  0.105113  0.077528  1.7e-05  0.976488  0.0
H  H75  1  0.26376424  0.67217273  0.42669390  1  0.068791  2.9e-05  0.105106  0.077527  1.7e-05  0.976426  0.0
H  H76  1  0.31197970  0.74785755  0.98249247  1  0.07075  -3.3e-05  0.109511  0.087468  -2.6e-05  1.010822  0.0
H  H77  1  0.81197901  0.25213282  0.51750754  1  0.070656  -3.3e-05  0.109524  0.087473  -2.6e-05  1.010845  0.0
H  H78  1  0.68803380  0.25213251  0.01750731  1  0.070252  3.3e-05  0.109501  0.08741  2.6e-05  1.010941  0.0
H  H79  1  0.18803341  0.74786844  0.48249557  1  0.070119  3.3e-05  0.109543  0.087436  2.6e-05  1.010936  0.0
H  H80  1  0.48712250  0.66086754  0.95191314  1  0.080838  3.4e-05  0.099515  0.111181  4.3e-05  1.057387  0.0
H  H81  1  0.98712166  0.33913495  0.54809207  1  0.080502  3.4e-05  0.099543  0.111215  4.3e-05  1.057505  0.0
H  H82  1  0.51288560  0.33912413  0.04808829  1  0.080631  -3.4e-05  0.099527  0.111155  -4.3e-05  1.057624  0.0
H  H83  1  0.01288428  0.66086791  0.45190878  1  0.080462  -3.4e-05  0.099567  0.111234  -4.3e-05  1.05749  0.0
H  H84  1  0.28140557  0.43204059  0.04176027  1  0.068862  -3e-06  0.104102  0.118542  -1e-06  0.998536  0.0
H  H85  1  0.78140574  0.56794400  0.45823753  1  0.069296  -3e-06  0.104077  0.118522  -1e-06  0.998749  0.0
H  H86  1  0.71860036  0.56795188  0.95824198  1  0.068847  2e-06  0.104098  0.118573  1e-06  0.998597  0.0
H  H87  1  0.21860020  0.43205966  0.54176414  1  0.069202  2e-06  0.104089  0.118532  1e-06  0.998684  0.0
C  C88  1  0.94696557  0.12251513  0.58528168  1  1.52647  -0.000237  0.204106  0.560137  -0.000157  4.194993  -0.001
C  C89  1  0.44696274  0.87748189  0.91471242  1  1.526194  -0.000241  0.204166  0.560146  -0.000157  4.194789  -0.001
C  C90  1  0.05305549  0.87748773  0.41472152  1  1.525598  0.000245  0.204171  0.560257  0.000158  4.194925  0.001
C  C91  1  0.55304320  0.12251536  0.08528383  1  1.525856  0.000244  0.204053  0.559972  0.000158  4.194812  0.001
C  C92  1  0.91751611  0.18840550  0.63607319  1  -0.026442  0.000642  -0.031175  -0.061089  0.000428  4.003474  0.0
C  C93  1  0.41750945  0.81159403  0.86392113  1  -0.026096  0.000642  -0.031304  -0.06128  0.000427  4.003783  0.0
C  C94  1  0.08248443  0.81159656  0.36392918  1  -0.026477  -0.000642  -0.031217  -0.061294  -0.000428  4.003678  0.0
C  C95  1  0.58248029  0.18840482  0.13607599  1  -0.025807  -0.00064  -0.031193  -0.061041  -0.000426  4.003576  0.0
C  C96  1  0.00786409  0.27455834  0.65386128  1  -0.061235  -0.001017  -0.08571  -0.079183  -0.0006  3.989398  -0.001
C  C97  1  0.50786376  0.72544522  0.84613567  1  -0.061905  -0.001017  -0.085636  -0.078911  -0.0006  3.989446  -0.001
C  C98  1  0.99213428  0.72544291  0.34613753  1  -0.061231  0.001017  -0.085682  -0.078985  0.0006  3.989334  0.001
C  C99  1  0.49212382  0.27455284  0.15386532  1  -0.062394  0.001017  -0.085681  -0.079079  0.0006  3.989237  0.001
C  C100  1  0.79943058  0.16485054  0.66720251  1  -0.014262  0.00095  -0.08794  -0.083906  0.000591  4.00943  0.001
C  C101  1  0.29942450  0.83515267  0.83279510  1  -0.014928  0.00095  -0.087833  -0.083753  0.00059  4.009611  0.001
C  C102  1  0.20056672  0.83515553  0.33280203  1  -0.014776  -0.000949  -0.087945  -0.083844  -0.00059  4.009634  -0.001
C  C103  1  0.70056632  0.16484297  0.16719833  1  -0.015401  -0.000948  -0.087914  -0.083838  -0.00059  4.009504  -0.001
C  C104  1  0.98091068  0.33599170  0.70134857  1  -0.026458  -0.000496  -0.100422  -0.185899  -0.000373  3.993977  0.0
C  C105  1  0.48091181  0.66401479  0.79864866  1  -0.026871  -0.000496  -0.100404  -0.185891  -0.000373  3.994055  0.0
C  C106  1  0.01909634  0.66401275  0.29864963  1  -0.02635  0.000496  -0.100483  -0.186039  0.000373  3.994233  0.0
C  C107  1  0.51908657  0.33598248  0.20135306  1  -0.026131  0.000496  -0.100364  -0.185828  0.000373  3.994049  0.0
C  C108  1  0.77206027  0.22550201  0.71472044  1  -0.050954  0.000583  -0.099249  -0.1834  0.000421  4.010031  0.0
C  C109  1  0.27205565  0.77450371  0.78527895  1  -0.050492  0.000582  -0.099277  -0.183458  0.00042  4.01008  0.0
C  C110  1  0.22793919  0.77451204  0.28528297  1  -0.050331  -0.000583  -0.099291  -0.183534  -0.000421  4.010195  0.0
C  C111  1  0.72793517  0.22548475  0.21471683  1  -0.050336  -0.000583  -0.099307  -0.183534  -0.000421  4.010115  0.0
C  C112  1  0.86286619  0.31169625  0.73260227  1  0.361295  -0.000131  0.099509  0.193539  -8.8e-05  4.025372  0.0
C  C113  1  0.36286358  0.68830991  0.76739687  1  0.361249  -0.000131  0.099442  0.193601  -8.8e-05  4.025351  0.0
C  C114  1  0.13713651  0.68831779  0.26739645  1  0.360959  0.000131  0.099491  0.193629  8.9e-05  4.025499  0.0
C  C115  1  0.63713696  0.31168175  0.23260221  1  0.360919  0.000131  0.099368  0.193505  8.9e-05  4.025458  0.0
C  C116  1  0.91789806  0.69945638  0.81691319  1  -0.068112  0.000125  -0.101747  -0.104713  7.8e-05  4.034492  0.0
C  C117  1  0.41791053  0.30055195  0.68308511  1  -0.068009  0.000125  -0.101563  -0.104226  7.8e-05  4.034332  0.0
C  C118  1  0.08208627  0.30055527  0.18308891  1  -0.066712  -0.000125  -0.101608  -0.104386  -7.8e-05  4.034477  0.0
C  C119  1  0.58208461  0.69944051  0.31691284  1  -0.066901  -0.000125  -0.101518  -0.104195  -7.7e-05  4.034408  0.0
C  C120  1  0.87517519  0.65847826  0.76627207  1  -0.111738  -8e-06  -0.093083  -0.072115  -5e-06  4.045178  0.0
C  C121  1  0.37519055  0.34152944  0.73372711  1  -0.111896  -8e-06  -0.093138  -0.07227  -5e-06  4.045017  0.0
C  C122  1  0.12480699  0.34153339  0.23373003  1  -0.111796  8e-06  -0.093173  -0.072175  5e-06  4.045166  0.0
C  C123  1  0.62480566  0.65846462  0.26627092  1  -0.112108  8e-06  -0.093126  -0.07229  5e-06  4.045037  0.0
C  C124  1  0.93490539  0.62984472  0.85537263  1  0.060055  -4e-05  -0.095652  -0.065207  -2.9e-05  4.034521  0.0
C  C125  1  0.43491509  0.37016195  0.64462632  1  0.059763  -4e-05  -0.095755  -0.065582  -2.9e-05  4.034949  0.0
C  C126  1  0.06506706  0.37016454  0.14463208  1  0.059004  4.1e-05  -0.095771  -0.065479  2.9e-05  4.034932  0.0
C  C127  1  0.56507572  0.62983291  0.35537098  1  0.059123  4.1e-05  -0.095792  -0.06552  2.9e-05  4.035098  0.0
C  C128  1  0.84761598  0.54962674  0.75416268  1  -0.01859  8.7e-05  -0.10018  -0.185036  5.5e-05  3.990614  0.0
C  C129  1  0.34762610  0.45038107  0.74583660  1  -0.018604  8.7e-05  -0.100181  -0.185214  5.4e-05  3.990691  0.0
C  C130  1  0.15237375  0.45038490  0.24583904  1  -0.018287  -8.8e-05  -0.10024  -0.185179  -5.4e-05  3.990827  0.0
C  C131  1  0.65237228  0.54961299  0.25416144  1  -0.018102  -8.7e-05  -0.100243  -0.185089  -5.4e-05  3.99063  0.0
C  C132  1  0.91043190  0.52072140  0.84355468  1  -0.085805  7.6e-05  -0.100863  -0.186029  5e-05  3.989637  0.0
C  C133  1  0.41043527  0.47928697  0.65644404  1  -0.085813  7.6e-05  -0.100698  -0.185842  5e-05  3.989339  0.0
C  C134  1  0.08955352  0.47928706  0.15644765  1  -0.086197  -7.6e-05  -0.100578  -0.185827  -5e-05  3.989458  0.0
C  C135  1  0.58956311  0.52070949  0.34355451  1  -0.086031  -7.6e-05  -0.100673  -0.185868  -5e-05  3.989374  0.0
C  C136  1  0.86534479  0.47954334  0.79284770  1  0.322614  -6e-06  0.092232  0.182945  -1e-06  4.036445  0.0
C  C137  1  0.36534566  0.52046440  0.70715151  1  0.322622  -6e-06  0.092224  0.183141  -1e-06  4.036504  0.0
C  C138  1  0.13463955  0.52046991  0.20715488  1  0.322647  6e-06  0.092259  0.183159  1e-06  4.03658  0.0
C  C139  1  0.63464192  0.47952806  0.29284604  1  0.322655  6e-06  0.092281  0.183115  1e-06  4.036518  0.0
C  C140  1  0.78076937  0.31250631  0.82260687  1  0.291545  0.000467  0.096616  0.182784  0.00031  4.040757  0.0
C  C141  1  0.28076129  0.68750017  0.67739410  1  0.291513  0.000466  0.096633  0.182816  0.00031  4.040699  0.0
C  C142  1  0.21923225  0.68750053  0.17739224  1  0.291909  -0.000467  0.096688  0.182989  -0.000311  4.040384  0.0
C  C143  1  0.71923169  0.31249150  0.32260694  1  0.29283  -0.000466  0.096758  0.183158  -0.00031  4.040241  0.0
C  C144  1  0.84941002  0.21820028  0.83383231  1  0.001676  -0.00082  -0.095656  -0.181821  -0.000573  4.001061  -0.001
C  C145  1  0.34941136  0.78180193  0.66616705  1  0.001746  -0.00082  -0.095671  -0.181881  -0.000573  4.001095  -0.001
C  C146  1  0.15058512  0.78180897  0.16617045  1  0.00196  0.00082  -0.095767  -0.182005  0.000573  4.000893  0.001
C  C147  1  0.65058378  0.21818573  0.33383064  1  0.002049  0.00082  -0.095805  -0.182122  0.000573  4.000943  0.001
C  C148  1  0.65756749  0.34903472  0.85105920  1  2.7e-05  0.000543  -0.090339  -0.17071  0.000415  3.983407  0.0
C  C149  1  0.15756461  0.65096826  0.64894039  1  -0.000472  0.000543  -0.090274  -0.170596  0.000415  3.983258  0.0
C  C150  1  0.34243737  0.65098172  0.14894120  1  -0.001038  -0.000543  -0.09037  -0.170821  -0.000415  3.98345  0.0
C  C151  1  0.84243269  0.34901861  0.35105726  1  -0.001925  -0.000543  -0.090281  -0.170741  -0.000415  3.983124  0.0
C  C152  1  0.60109458  0.28981929  0.88899502  1  -0.051863  0.001259  -0.08084  -0.072928  0.000752  3.973577  0.001
C  C153  1  0.10108683  0.71019031  0.61100822  1  -0.051404  0.001257  -0.08087  -0.072849  0.000751  3.973385  0.001
C  C154  1  0.39890487  0.71020275  0.11100686  1  -0.051117  -0.001258  -0.080917  -0.072887  -0.000752  3.97379  -0.001
C  C155  1  0.89890399  0.28979656  0.38899138  1  -0.051029  -0.001256  -0.080943  -0.07296  -0.000751  3.973572  -0.001
C  C156  1  0.79420184  0.16048497  0.87250578  1  -0.075609  -0.000855  -0.08173  -0.073568  -0.000524  3.987376  -0.001
C  C157  1  0.29420049  0.83951587  0.62749407  1  -0.083128  -0.000854  -0.081664  -0.073476  -0.000524  3.987441  -0.001
C  C158  1  0.20578573  0.83952348  0.12749655  1  -0.083639  0.000854  -0.081674  -0.073426  0.000524  3.987376  0.001
C  C159  1  0.70579356  0.16047340  0.37250410  1  -0.083712  0.000854  -0.081675  -0.073396  0.000524  3.987484  0.001
C  C160  1  0.66838625  0.19484351  0.89985263  1  0.001097  -0.000706  -0.021728  -0.03941  -0.000518  3.969401  -0.001
C  C161  1  0.16838575  0.80516102  0.60014818  1  0.001147  -0.000706  -0.021772  -0.0394  -0.000518  3.969647  -0.001
C  C162  1  0.33159808  0.80517293  0.10014817  1  0.000803  0.000707  -0.021805  -0.039496  0.000518  3.969805  0.001
C  C163  1  0.83160183  0.19482585  0.39985142  1  0.00082  0.000705  -0.021721  -0.039373  0.000517  3.969817  0.001
C  C164  1  0.60514035  0.12934890  0.93923891  1  1.522845  0.000484  0.209047  0.563951  0.000366  4.190225  0.001
C  C165  1  0.10514145  0.87064949  0.56076254  1  1.52269  0.000484  0.209061  0.563843  0.000367  4.190363  0.001
C  C166  1  0.39486450  0.87065796  0.06076333  1  1.522536  -0.000483  0.209073  0.563909  -0.000365  4.190274  -0.001
C  C167  1  0.89485585  0.12934297  0.43923540  1  1.522839  -0.000484  0.20901  0.563759  -0.000365  4.190314  -0.001
C  C168  1  0.92810438  0.89628877  0.96684806  1  0.500642  -0.000447  0.041817  0.096403  -0.000306  3.970797  0.0
C  C169  1  0.42810206  0.10370755  0.53315387  1  0.500328  -0.000446  0.041821  0.096397  -0.000305  3.970792  0.0
C  C170  1  0.07191236  0.10371248  0.03315075  1  0.501423  0.000446  0.041893  0.096481  0.000306  3.970543  0.0
C  C171  1  0.57190928  0.89628812  0.46684777  1  0.500612  0.000447  0.041871  0.096487  0.000306  3.970495  0.0
C  C172  1  0.05511222  0.84014205  0.95590352  1  -0.009037  -2.4e-05  -0.086623  -0.179231  1.5e-05  3.944618  0.0
C  C173  1  0.55510607  0.15985734  0.54409775  1  -0.010154  -2.4e-05  -0.08659  -0.179084  1.5e-05  3.94454  0.0
C  C174  1  0.94490559  0.15986080  0.04409381  1  -0.010663  2.5e-05  -0.08674  -0.17929  -1.5e-05  3.944569  0.0
C  C175  1  0.44490203  0.84013913  0.45590432  1  -0.009953  2.5e-05  -0.086714  -0.179309  -1.5e-05  3.944591  0.0
C  C176  1  0.85570252  0.78058293  0.02559005  1  0.446665  -0.000582  0.046138  0.098357  -0.000386  3.961863  0.0
C  C177  1  0.35570764  0.21940855  0.47440555  1  0.446861  -0.000582  0.046191  0.098405  -0.000386  3.961923  0.0
C  C178  1  0.14430990  0.21942152  0.97440697  1  0.446614  0.000583  0.046168  0.098382  0.000386  3.962134  0.0
C  C179  1  0.64430370  0.78058551  0.52559561  1  0.446647  0.000583  0.046201  0.098354  0.000386  3.962042  0.0
C  C180  1  0.98075654  0.71919903  0.01690051  1  0.017032  9.6e-05  -0.088642  -0.187835  6e-05  3.962317  0.0
C  C181  1  0.48075893  0.28079036  0.48309499  1  0.016964  9.6e-05  -0.088591  -0.187804  6e-05  3.962269  0.0
C  C182  1  0.01925264  0.28079983  0.98309661  1  0.01699  -9.6e-05  -0.088702  -0.187947  -6e-05  3.962606  0.0
C  C183  1  0.51925133  0.71920450  0.51690582  1  0.016918  -9.6e-05  -0.088664  -0.187728  -6e-05  3.962459  0.0
C  C184  1  0.08335122  0.74949351  0.98137293  1  -0.063792  -0.000553  0.006397  0.125445  -0.000353  3.96745  0.0
C  C185  1  0.58335051  0.25049936  0.51862595  1  -0.062297  -0.000553  0.006279  0.125197  -0.000353  3.967382  0.0
C  C186  1  0.91666228  0.25050534  0.01862458  1  -0.062326  0.000553  0.006325  0.125294  0.000353  3.967502  0.0
C  C187  1  0.41665867  0.74949710  0.48137690  1  -0.062085  0.000554  0.006277  0.125196  0.000353  3.967548  0.0
C  C188  1  0.22350005  0.69241752  0.96964209  1  0.436796  9e-06  -0.059423  -0.022315  5e-06  3.925825  0.0
C  C189  1  0.72349981  0.30757641  0.53035877  1  0.436699  9e-06  -0.059394  -0.022326  5e-06  3.925854  0.0
C  C190  1  0.77650804  0.30757974  0.03035768  1  0.437321  -9e-06  -0.059367  -0.022184  -5e-06  3.926059  0.0
C  C191  1  0.27650828  0.69242406  0.46964313  1  0.437121  -9e-06  -0.059355  -0.022199  -5e-06  3.926082  0.0
C  C192  1  0.36689749  0.55172041  0.99632038  1  0.363755  2.6e-05  0.065602  0.221241  1e-05  4.088876  0.0
C  C193  1  0.86689919  0.44827295  0.50368080  1  0.364942  2.6e-05  0.065698  0.221269  1e-05  4.088898  0.0
C  C194  1  0.63311385  0.44827126  0.00368144  1  0.364882  -2.6e-05  0.06576  0.221462  -1e-05  4.088856  0.0
C  C195  1  0.13310999  0.55172831  0.49631919  1  0.364856  -2.6e-05  0.065691  0.221301  -1e-05  4.088845  0.0
C  C196  1  0.49037234  0.59013710  0.97272109  1  0.01095  8e-05  -0.112936  -0.202697  5.1e-05  4.023163  0.0
C  C197  1  0.99037588  0.40986058  0.52728268  1  0.011086  8e-05  -0.112993  -0.202679  5e-05  4.023326  0.0
C  C198  1  0.50963899  0.40985377  0.02728029  1  0.010863  -8e-05  -0.113066  -0.202925  -5e-05  4.023446  0.0
C  C199  1  0.00963221  0.59014068  0.47271809  1  0.011075  -8e-05  -0.113088  -0.20283  -5e-05  4.02329  0.0
C  C200  1  0.37750758  0.46147894  0.02336692  1  0.001217  -4e-06  -0.106287  -0.176179  -7e-06  4.015782  0.0
C  C201  1  0.87750857  0.53851006  0.47663083  1  -0.000294  -4e-06  -0.106325  -0.176358  -7e-06  4.016222  0.0
C  C202  1  0.62250052  0.53851193  0.97663524  1  -0.000157  4e-06  -0.106408  -0.176468  8e-06  4.016083  0.0
C  C203  1  0.12249953  0.46149199  0.52336959  1  -0.000274  4e-06  -0.106359  -0.176386  8e-06  4.016142  0.0
N  N204  1  0.83590197  0.36926429  0.78194053  1  -1.234671  0.000178  -0.252426  -0.155004  0.000108  3.67867  0.0
N  N205  1  0.33590085  0.63074197  0.71805870  1  -1.234596  0.000178  -0.252469  -0.155155  0.000108  3.678778  0.0
N  N206  1  0.16408345  0.63074815  0.21805654  1  -1.234842  -0.000179  -0.252454  -0.155153  -0.000109  3.678732  0.0
N  N207  1  0.66408565  0.36924730  0.28194299  1  -1.234943  -0.000178  -0.252495  -0.155269  -0.000108  3.678651  0.0
N  N208  1  0.82934713  0.86785803  0.00130547  1  -1.240068  -0.001517  -0.340672  -0.247507  -0.000662  3.513737  0.0
N  N209  1  0.32935113  0.13213596  0.49869309  1  -1.240021  -0.001518  -0.340623  -0.247447  -0.000663  3.51356  0.0
N  N210  1  0.17066313  0.13214482  0.99869069  1  -1.240211  0.001516  -0.340654  -0.247549  0.000662  3.513854  0.0
N  N211  1  0.67065373  0.86785970  0.50130894  1  -1.240185  0.001515  -0.340589  -0.247462  0.000661  3.513859  0.0
O  O212  1  0.06270948  0.14293495  0.56122977  1  -1.10471  0.08763  -0.314486  -0.515662  0.056807  2.366144  0.079
O  O213  1  0.56270513  0.85705081  0.93876566  1  -1.104394  0.087628  -0.314381  -0.515604  0.056807  2.365998  0.079
O  O214  1  0.93730834  0.85705991  0.43877026  1  -1.104794  -0.087625  -0.314391  -0.51567  -0.056809  2.366212  -0.079
O  O215  1  0.43729109  0.14294246  0.06123389  1  -1.104398  -0.087634  -0.314422  -0.515607  -0.056811  2.365907  -0.079
O  O216  1  0.85335901  0.05134278  0.56940967  1  -1.119786  -0.078238  -0.317255  -0.534342  -0.05082  2.388921  -0.071
O  O217  1  0.35335430  0.94865942  0.93058733  1  -1.119417  -0.078262  -0.317364  -0.534396  -0.050836  2.388591  -0.071
O  O218  1  0.14665233  0.94866569  0.43059578  1  -1.118864  0.078236  -0.317332  -0.534375  0.050827  2.38911  0.071
O  O219  1  0.64665812  0.05134342  0.06940531  1  -1.119355  0.078254  -0.31724  -0.53428  0.050834  2.388822  0.071
O  O220  1  0.47389664  0.14820694  0.95228052  1  -1.102327  -0.093247  -0.309524  -0.510229  -0.060458  2.376784  -0.084
O  O221  1  0.97388518  0.85179161  0.54772608  1  -1.102232  -0.093264  -0.309533  -0.510127  -0.06047  2.376677  -0.084
O  O222  1  0.52611146  0.85180551  0.04772163  1  -1.102332  0.093237  -0.309518  -0.51015  0.060449  2.376941  0.084
O  O223  1  0.02610779  0.14819687  0.45227829  1  -1.102154  0.093246  -0.309523  -0.510136  0.060457  2.376755  0.084
O  O224  1  0.68719185  0.05952103  0.95660557  1  -1.11638  0.077987  -0.312847  -0.535725  0.050831  2.410972  0.07
O  O225  1  0.18718321  0.94048422  0.54339327  1  -1.116398  0.077987  -0.312839  -0.5357  0.05083  2.411083  0.07
O  O226  1  0.31281192  0.94047462  0.04338942  1  -1.115961  -0.077989  -0.312793  -0.535664  -0.050833  2.410978  -0.07
O  O227  1  0.81280545  0.05951064  0.45660364  1  -1.116467  -0.078003  -0.312813  -0.535637  -0.050841  2.410917  -0.07
O  O228  1  0.23241045  0.59867719  0.99575998  1  -1.071738  -8e-06  -0.187612  -0.207327  -7e-06  2.551914  0.0
O  O229  1  0.73241350  0.40131670  0.50423928  1  -1.071652  -8e-06  -0.187655  -0.207301  -7e-06  2.551908  0.0
O  O230  1  0.76760088  0.40131847  0.00424009  1  -1.071777  8e-06  -0.18759  -0.207298  8e-06  2.552017  0.0
O  O231  1  0.26759568  0.59868296  0.49576022  1  -1.071829  8e-06  -0.187614  -0.207271  8e-06  2.552022  0.0
