# generated using pymatgen
data_NaCdH14C9N3O10
_symmetry_space_group_name_H-M   'P 1'
_cell_length_a   8.19182452
_cell_length_b   9.62919147
_cell_length_c   9.90203391
_cell_angle_alpha   95.12498186
_cell_angle_beta   92.40284270
_cell_angle_gamma   110.71961412
_symmetry_Int_Tables_number   1
_chemical_formula_structural   NaCdH14C9N3O10
_chemical_formula_sum   'Na2 Cd2 H28 C18 N6 O20'
_cell_volume   725.37027204
_cell_formula_units_Z   2
loop_
 _symmetry_equiv_pos_site_id
 _symmetry_equiv_pos_as_xyz
  1  'x, y, z'
loop_
 _atom_site_type_symbol
 _atom_site_label
 _atom_site_symmetry_multiplicity
 _atom_site_fract_x
 _atom_site_fract_y
 _atom_site_fract_z
 _atom_site_occupancy
 _atom_site_hle17_bader_spin_density
 _atom_site_hle17_ddec_charge
 _atom_site_hle17_ddec_spin_density
 _atom_site_hle17_ddec_sum_bond_order
 _atom_site_hle17_magmom
 _atom_site_hse06_10hf_bader_spin_density
 _atom_site_hse06_10hf_ddec_charge
 _atom_site_hse06_10hf_ddec_spin_density
 _atom_site_hse06_10hf_ddec_sum_bond_order
 _atom_site_hse06_10hf_magmom
 _atom_site_hse06_bader_spin_density
 _atom_site_hse06_ddec_charge
 _atom_site_hse06_ddec_spin_density
 _atom_site_hse06_ddec_sum_bond_order
 _atom_site_hse06_magmom
 _atom_site_pbe_bader_spin_density
 _atom_site_pbe_cm5_charge
 _atom_site_pbe_ddec_charge
 _atom_site_pbe_ddec_spin_density
 _atom_site_pbe_ddec_sum_bond_order
 _atom_site_pbe_magmom
Na  Na0  1  0.02271920  0.30892661  0.68720345  1  0  0.917175  0  0.331785  0  0  0.882773  0  0.465976  0  0  0.8922  0  0.445035  0  0  0.641489  0.875614  0  0.481299  0
Na  Na1  1  0.97728167  0.69107866  0.31279533  1  0  0.91715  0  0.331831  0  0  0.882748  0  0.466037  0  0  0.892178  0  0.445114  0  0  0.641496  0.875584  0  0.481364  0
Cd  Cd2  1  0.49927430  0.67685578  0.23073015  1  0  1.18465  0  1.570675  0  0  0.996302  0  2.009043  0  0  1.056873  0  1.95303  0  0  0.789115  0.952266  0  2.047735  0
Cd  Cd3  1  0.50072707  0.32314496  0.76927122  1  0  1.184631  0  1.570699  0  0  0.99626  0  2.009064  0  0  1.056838  0  1.953043  0  0  0.789119  0.952234  0  2.047761  0
H  H4  1  0.08613833  0.20572709  0.00042153  1  0  0.071611  0  0.957859  0  0  0.084232  0  1.026857  0  0  0.08536  0  1.025801  0  0  0.112847  0.0833  0  1.027737  0
H  H5  1  0.91385745  0.79427485  0.99957983  1  0  0.071605  0  0.957793  0  0  0.084229  0  1.026796  0  0  0.08536  0  1.025739  0  0  0.112853  0.083296  0  1.027667  0
H  H6  1  0.07318402  0.15257167  0.16873840  1  0  0.070591  0  0.964879  0  0  0.0825  0  1.035813  0  0  0.083294  0  1.035279  0  0  0.111181  0.081796  0  1.036316  0
H  H7  1  0.92681876  0.84742683  0.83125976  1  0  0.070616  0  0.964808  0  0  0.082524  0  1.035749  0  0  0.083319  0  1.035216  0  0  0.111188  0.081818  0  1.036257  0
H  H8  1  0.91460865  0.32827107  0.23030976  1  0  0.131636  0  0.927562  0  0  0.148235  0  0.982455  0  0  0.150675  0  0.981499  0  0  0.114597  0.146494  0  0.983229  0
H  H9  1  0.08538957  0.67173083  0.76969266  1  0  0.131629  0  0.927593  0  0  0.14824  0  0.982515  0  0  0.150678  0  0.98156  0  0  0.114587  0.146497  0  0.983295  0
H  H10  1  0.92188695  0.37547177  0.06304962  1  0  0.127328  0  0.918701  0  0  0.143112  0  0.975663  0  0  0.145334  0  0.97505  0  0  0.115124  0.141713  0  0.976041  0
H  H11  1  0.07812026  0.62453113  0.93695313  1  0  0.127315  0  0.918622  0  0  0.143148  0  0.97556  0  0  0.14537  0  0.974946  0  0  0.115121  0.141748  0  0.975941  0
H  H12  1  0.57370312  0.00567287  0.69220877  1  0  0.091438  0  0.94261  0  0  0.102629  0  1.011407  0  0  0.104426  0  1.009834  0  0  0.115171  0.101103  0  1.012571  0
H  H13  1  0.42629556  0.99432453  0.30779222  1  0  0.091389  0  0.942651  0  0  0.102583  0  1.011491  0  0  0.104411  0  1.009881  0  0  0.115144  0.101052  0  1.012654  0
H  H14  1  0.41904403  0.83193613  0.72905002  1  0  0.082256  0  0.94151  0  0  0.095099  0  1.008055  0  0  0.096697  0  1.006549  0  0  0.113489  0.093748  0  1.009276  0
H  H15  1  0.58095536  0.16806016  0.27094885  1  0  0.082224  0  0.94158  0  0  0.09512  0  1.008106  0  0  0.096717  0  1.006604  0  0  0.113513  0.093766  0  1.009325  0
H  H16  1  0.79445056  0.88416863  0.65240070  1  0  0.121948  0  0.91737  0  0  0.139186  0  0.970722  0  0  0.141818  0  0.969087  0  0  0.114898  0.13726  0  0.972166  0
H  H17  1  0.20555080  0.11583212  0.34759966  1  0  0.121932  0  0.917398  0  0  0.139179  0  0.970752  0  0  0.141812  0  0.969115  0  0  0.114887  0.137252  0  0.972199  0
H  H18  1  0.64725182  0.71361835  0.69900967  1  0  0.117372  0  0.936721  0  0  0.131595  0  0.995341  0  0  0.133836  0  0.994787  0  0  0.103872  0.129864  0  0.996097  0
H  H19  1  0.35274928  0.28637903  0.30099036  1  0  0.117381  0  0.936692  0  0  0.131586  0  0.995347  0  0  0.133823  0  0.994795  0  0  0.103885  0.129869  0  0.996084  0
H  H20  1  0.71089302  0.58302880  0.04616659  1  0  0.421686  0  0.884574  0  0  0.390478  0  0.949347  0  0  0.400709  0  0.934643  0  0  0.289845  0.383285  0  0.959662  0
H  H21  1  0.28910931  0.41697419  0.95383302  1  0  0.421693  0  0.884562  0  0  0.390477  0  0.949348  0  0  0.400707  0  0.934646  0  0  0.28985  0.383284  0  0.959664  0
H  H22  1  0.71215221  0.16493912  0.50720475  1  0  0.427675  0  0.873371  0  0  0.398569  0  0.934847  0  0  0.408495  0  0.920377  0  0  0.292527  0.391588  0  0.944984  0
H  H23  1  0.28784912  0.83506165  0.49279360  1  0  0.427608  0  0.873464  0  0  0.398517  0  0.934923  0  0  0.408442  0  0.920452  0  0  0.292508  0.391534  0  0.945062  0
H  H24  1  0.67724620  0.47285493  0.15531942  1  0  0.442944  0  0.843371  0  0  0.414961  0  0.904085  0  0  0.424592  0  0.890031  0  0  0.305194  0.408157  0  0.913978  0
H  H25  1  0.32275613  0.52714806  0.84468119  1  0  0.442971  0  0.843306  0  0  0.414971  0  0.904074  0  0  0.424603  0  0.890019  0  0  0.305186  0.408169  0  0.913967  0
H  H26  1  0.84081356  0.12431010  0.41157770  1  0  0.430966  0  0.861519  0  0  0.404853  0  0.91692  0  0  0.413681  0  0.904003  0  0  0.294647  0.398594  0  0.926105  0
H  H27  1  0.15918873  0.87569291  0.58841887  1  0  0.430961  0  0.861537  0  0  0.404855  0  0.91694  0  0  0.413684  0  0.90402  0  0  0.294636  0.398597  0  0.926121  0
H  H28  1  0.17648808  0.60472969  0.54578234  1  0  0.420222  0  0.874581  0  0  0.392424  0  0.934789  0  0  0.402026  0  0.920429  0  0  0.295065  0.385568  0  0.945029  0
H  H29  1  0.82351414  0.39526774  0.45420964  1  0  0.420251  0  0.874554  0  0  0.392442  0  0.934783  0  0  0.402046  0  0.920419  0  0  0.295052  0.385586  0  0.945024  0
H  H30  1  0.26978281  0.48476185  0.54554225  1  0  0.420419  0  0.872598  0  0  0.39242  0  0.931749  0  0  0.402693  0  0.916562  0  0  0.291148  0.384977  0  0.942744  0
H  H31  1  0.73021944  0.51523555  0.45445276  1  0  0.420134  0  0.873023  0  0  0.392269  0  0.931994  0  0  0.402542  0  0.916806  0  0  0.29103  0.38482  0  0.943  0
C  C32  1  0.76155221  0.97331568  0.14247003  1  0  0.711613  0  3.885346  0  0  0.640137  0  4.194293  0  0  0.676721  0  4.189705  0  0  0.331755  0.615515  0  4.196701  0
C  C33  1  0.23844698  0.02668284  0.85753209  1  0  0.711531  0  3.885301  0  0  0.640053  0  4.194249  0  0  0.676636  0  4.189666  0  0  0.331764  0.615422  0  4.196677  0
C  C34  1  0.54131197  0.83064363  0.96696027  1  0  0.707483  0  3.890627  0  0  0.63152  0  4.20748  0  0  0.668375  0  4.20265  0  0  0.323996  0.606438  0  4.210331  0
C  C35  1  0.45868130  0.16934714  0.03303589  1  0  0.707429  0  3.890464  0  0  0.631442  0  4.207359  0  0  0.668296  0  4.202532  0  0  0.323912  0.606367  0  4.210203  0
C  C36  1  0.77812870  0.05239604  0.91271305  1  0  0.671964  0  3.833183  0  0  0.59974  0  4.136793  0  0  0.634715  0  4.13279  0  0  0.34908  0.576109  0  4.139059  0
C  C37  1  0.22187696  0.94760919  0.08728079  1  0  0.671991  0  3.833147  0  0  0.599676  0  4.136889  0  0  0.634655  0  4.132884  0  0  0.349049  0.576046  0  4.139144  0
C  C38  1  0.00922660  0.19137493  0.08908305  1  0  0.052382  0  3.656288  0  0  -0.018124  0  3.924499  0  0  -0.010888  0  3.933281  0  0  -0.064984  -0.022865  0  3.918662  0
C  C39  1  0.99077476  0.80862582  0.91091732  1  0  0.052413  0  3.656089  0  0  -0.018083  0  3.924349  0  0  -0.010853  0  3.933135  0  0  -0.064992  -0.02282  0  3.918505  0
C  C40  1  0.99189425  0.33881039  0.14141364  1  0  -0.292247  0  3.637769  0  0  -0.328204  0  3.883003  0  0  -0.335218  0  3.890039  0  0  -0.159657  -0.323531  0  3.878204  0
C  C41  1  0.00810765  0.66119143  0.85859190  1  0  -0.292245  0  3.637664  0  0  -0.328258  0  3.88297  0  0  -0.335269  0  3.890004  0  0  -0.159624  -0.323584  0  3.878174  0
C  C42  1  0.16932289  0.45980135  0.17771353  1  0  0.705701  0  3.838886  0  0  0.658749  0  4.130417  0  0  0.692172  0  4.124941  0  0  0.209564  0.636001  0  4.133507  0
C  C43  1  0.83067755  0.54020275  0.82229118  1  0  0.705783  0  3.838462  0  0  0.658787  0  4.130131  0  0  0.692211  0  4.124655  0  0  0.209562  0.636047  0  4.133213  0
C  C44  1  0.55837144  0.89972031  0.73180439  1  0  0.047638  0  3.61863  0  0  -0.021285  0  3.88395  0  0  -0.014984  0  3.892897  0  0  -0.062873  -0.025047  0  3.877275  0
C  C45  1  0.44162504  0.10027488  0.26819532  1  0  0.047735  0  3.618787  0  0  -0.021271  0  3.884175  0  0  -0.015003  0  3.893146  0  0  -0.06286  -0.025024  0  3.877484  0
C  C46  1  0.65476998  0.81431881  0.65156917  1  0  -0.2873  0  3.651369  0  0  -0.32324  0  3.898732  0  0  -0.330107  0  3.905726  0  0  -0.160685  -0.318244  0  3.893512  0
C  C47  1  0.34522868  0.18567861  0.34842979  1  0  -0.287224  0  3.651281  0  0  -0.323173  0  3.898772  0  0  -0.330041  0  3.905772  0  0  -0.160682  -0.318192  0  3.89354  0
C  C48  1  0.58832395  0.76857432  0.50401225  1  0  0.710804  0  3.849345  0  0  0.660798  0  4.144286  0  0  0.694806  0  4.138593  0  0  0.210871  0.637625  0  4.147073  0
C  C49  1  0.41167593  0.23142307  0.49598775  1  0  0.710856  0  3.84933  0  0  0.66082  0  4.144296  0  0  0.69483  0  4.138599  0  0  0.210909  0.63765  0  4.14708  0
N  N50  1  0.61188146  0.85696485  0.09782446  1  0  -0.697277  0  3.170905  0  0  -0.621371  0  3.477732  0  0  -0.657085  0  3.481693  0  0  -0.391765  -0.596761  0  3.474154  0
N  N51  1  0.38811840  0.14303256  0.90217352  1  0  -0.697137  0  3.170955  0  0  -0.6212  0  3.477768  0  0  -0.656913  0  3.481731  0  0  -0.391704  -0.596595  0  3.474201  0
N  N52  1  0.84153447  0.07120944  0.04792420  1  0  -0.348383  0  3.360705  0  0  -0.261399  0  3.600837  0  0  -0.287315  0  3.616628  0  0  -0.255453  -0.244043  0  3.589782  0
N  N53  1  0.15846519  0.92879020  0.95207702  1  0  -0.348397  0  3.360849  0  0  -0.261381  0  3.601012  0  0  -0.287294  0  3.616805  0  0  -0.255457  -0.244023  0  3.58995  0
N  N54  1  0.62517894  0.93106359  0.87572772  1  0  -0.350972  0  3.365549  0  0  -0.264146  0  3.609451  0  0  -0.290439  0  3.625777  0  0  -0.253604  -0.246534  0  3.598057  0
N  N55  1  0.37481900  0.06892933  0.12427281  1  0  -0.351053  0  3.365866  0  0  -0.264161  0  3.609816  0  0  -0.290455  0  3.626149  0  0  -0.253577  -0.246557  0  3.598415  0
O  O56  1  0.82876940  0.99276944  0.26108010  1  0  -0.598768  0  1.912119  0  0  -0.552519  0  2.136107  0  0  -0.572396  0  2.125401  0  0  -0.293993  -0.539064  0  2.143436  0
O  O57  1  0.17122536  0.00723030  0.73891697  1  0  -0.598792  0  1.912058  0  0  -0.552536  0  2.136035  0  0  -0.572415  0  2.125334  0  0  -0.294038  -0.539078  0  2.143373  0
O  O58  1  0.40508260  0.72244228  0.92872727  1  0  -0.598046  0  1.958584  0  0  -0.549474  0  2.19906  0  0  -0.57049  0  2.188723  0  0  -0.295899  -0.534903  0  2.205852  0
O  O59  1  0.59491826  0.27755735  0.07127298  1  0  -0.598023  0  1.958366  0  0  -0.549472  0  2.198871  0  0  -0.570488  0  2.188535  0  0  -0.295875  -0.534902  0  2.20566  0
O  O60  1  0.85487762  0.13688711  0.83028808  1  0  -0.595463  0  1.94246  0  0  -0.560255  0  2.187322  0  0  -0.577937  0  2.176722  0  0  -0.335928  -0.548125  0  2.194728  0
O  O61  1  0.14511356  0.86310700  0.16971644  1  0  -0.595554  0  1.942099  0  0  -0.560312  0  2.187013  0  0  -0.578009  0  2.176426  0  0  -0.335979  -0.548182  0  2.194413  0
O  O62  1  0.30469086  0.44150487  0.12872830  1  0  -0.674984  0  2.004418  0  0  -0.593462  0  2.234491  0  0  -0.623812  0  2.224415  0  0  -0.325653  -0.572225  0  2.24089  0
O  O63  1  0.69530815  0.55850149  0.87127761  1  0  -0.675022  0  2.004139  0  0  -0.593508  0  2.234255  0  0  -0.623861  0  2.224179  0  0  -0.325669  -0.572271  0  2.240646  0
O  O64  1  0.18408157  0.57703887  0.25385425  1  0  -0.675608  0  1.964271  0  0  -0.618315  0  2.210991  0  0  -0.645744  0  2.199828  0  0  -0.366597  -0.599186  0  2.218097  0
O  O65  1  0.81591277  0.42296535  0.74614729  1  0  -0.675581  0  1.96414  0  0  -0.618255  0  2.210891  0  0  -0.645684  0  2.199723  0  0  -0.366553  -0.599129  0  2.217996  0
O  O66  1  0.49067232  0.82672820  0.44665473  1  0  -0.649693  0  1.995626  0  0  -0.577039  0  2.227009  0  0  -0.605736  0  2.217145  0  0  -0.309443  -0.556954  0  2.23295  0
O  O67  1  0.50932806  0.17327031  0.55334641  1  0  -0.649778  0  1.995668  0  0  -0.577036  0  2.226983  0  0  -0.605733  0  2.217122  0  0  -0.309441  -0.556951  0  2.232922  0
O  O68  1  0.63791345  0.67161839  0.43770527  1  0  -0.684314  0  1.9794  0  0  -0.613253  0  2.222886  0  0  -0.643695  0  2.210546  0  0  -0.330458  -0.590604  0  2.230359  0
O  O69  1  0.36208983  0.32838121  0.56229403  1  0  -0.684368  0  1.979428  0  0  -0.613272  0  2.22291  0  0  -0.643714  0  2.210566  0  0  -0.330462  -0.590625  0  2.23038  0
O  O70  1  0.71940009  0.58104773  0.14679130  1  0  -0.870439  0  1.84841  0  0  -0.815705  0  2.045987  0  0  -0.837459  0  2.013526  0  0  -0.620062  -0.800509  0  2.068446  0
O  O71  1  0.28060369  0.41895298  0.85320912  1  0  -0.870456  0  1.848335  0  0  -0.815714  0  2.045933  0  0  -0.837469  0  2.013469  0  0  -0.620033  -0.800513  0  2.06839  0
O  O72  1  0.83739617  0.19378113  0.48970374  1  0  -0.889214  0  1.739197  0  0  -0.84124  0  1.891002  0  0  -0.858476  0  1.860368  0  0  -0.649384  -0.828962  0  1.912711  0
O  O73  1  0.16260488  0.80622192  0.51029078  1  0  -0.889145  0  1.739273  0  0  -0.841172  0  1.890982  0  0  -0.85841  0  1.860354  0  0  -0.649352  -0.828896  0  1.912689  0
O  O74  1  0.20022274  0.53134226  0.59820709  1  0  -0.87474  0  1.786726  0  0  -0.831272  0  1.946097  0  0  -0.8477  0  1.914863  0  0  -0.649055  -0.819448  0  1.968214  0
O  O75  1  0.79978440  0.46866068  0.40178959  1  0  -0.874506  0  1.787121  0  0  -0.831132  0  1.946204  0  0  -0.847563  0  1.914975  0  0  -0.648929  -0.819308  0  1.968329  0
