# generated using pymatgen
data_Zn3H9C47(ClO2)6
_symmetry_space_group_name_H-M   'P 1'
_cell_length_a   16.86762016
_cell_length_b   16.86762029
_cell_length_c   17.09174323
_cell_angle_alpha   67.77795837
_cell_angle_beta   67.77739742
_cell_angle_gamma   67.37706462
_symmetry_Int_Tables_number   1
_chemical_formula_structural   Zn3H9C47(ClO2)6
_chemical_formula_sum   'Zn6 H18 C94 Cl12 O24'
_cell_volume   3998.23295509
_cell_formula_units_Z   2
loop_
 _symmetry_equiv_pos_site_id
 _symmetry_equiv_pos_as_xyz
  1  'x, y, z'
loop_
 _atom_site_type_symbol
 _atom_site_label
 _atom_site_symmetry_multiplicity
 _atom_site_fract_x
 _atom_site_fract_y
 _atom_site_fract_z
 _atom_site_occupancy
 _atom_site_pbe_bader_charge
 _atom_site_pbe_bader_spin_density
 _atom_site_pbe_cm5_charge
 _atom_site_pbe_ddec_charge
 _atom_site_pbe_ddec_spin_density
 _atom_site_pbe_ddec_sum_bond_order
 _atom_site_pbe_magmom
Zn  Zn0  1  0.57103021  0.00002792  0.51059525  1  1.30472  0  0.729575  0.978696  0  2.069957  0
Zn  Zn1  1  0.99592156  0.99591468  0.92899630  1  1.290247  0  0.74039  0.978594  0  2.100383  0
Zn  Zn2  1  0.00408745  0.00408503  0.07100130  1  1.291184  0  0.740301  0.978483  0  2.100435  0
Zn  Zn3  1  0.42895677  0.99998631  0.48940582  1  1.304958  0  0.729593  0.978594  0  2.070061  0
Zn  Zn4  1  0.99998568  0.42895894  0.48940854  1  1.304952  0  0.729569  0.978612  0  2.070001  0
Zn  Zn5  1  0.00002270  0.57103137  0.51059583  1  1.304771  0  0.72952  0.978546  0  2.070138  0
H  H6  1  0.27201878  0.27201737  0.46977896  1  0.122778  0  0.113403  0.131762  0  0.994669  0
H  H7  1  0.80927693  0.92887941  0.97525847  1  0.082227  0  0.103339  0.114219  0  1.043759  0
H  H8  1  0.92887931  0.80927197  0.97525696  1  0.086472  0  0.103344  0.114221  0  1.043757  0
H  H9  1  0.07112635  0.19073315  0.02473927  1  0.082552  0  0.103352  0.114184  0  1.043735  0
H  H10  1  0.27310791  0.08943729  0.10208377  1  0.033013  0  0.102827  0.099633  0  1.014723  0
H  H11  1  0.72691111  0.91056730  0.89790813  1  0.032886  0  0.102779  0.099533  0  1.014897  0
H  H12  1  0.91056279  0.72690658  0.89791019  1  0.032855  0  0.102783  0.099554  0  1.014882  0
H  H13  1  0.08943951  0.27310715  0.10208227  1  0.032974  0  0.102814  0.099614  0  1.014716  0
H  H14  1  0.72797290  0.72797825  0.53022745  1  0.12271  0  0.113347  0.131638  0  0.994684  0
H  H15  1  0.57685813  0.89439825  0.75053735  1  0.130038  0  0.109486  0.123813  0  1.002908  0
H  H16  1  0.42315087  0.10560081  0.24945934  1  0.130135  0  0.10949  0.123824  0  1.002929  0
H  H17  1  0.10559178  0.42314808  0.24946587  1  0.130039  0  0.109484  0.123788  0  1.002999  0
H  H18  1  0.89439989  0.57685202  0.75053824  1  0.129957  0  0.10947  0.12378  0  1.002968  0
H  H19  1  0.65947256  0.89154248  0.84032807  1  0.054596  0  0.104563  0.101806  0  1.011032  0
H  H20  1  0.34053839  0.10846302  0.15966072  1  0.054836  0  0.10451  0.10176  0  1.011178  0
H  H21  1  0.10845205  0.34053952  0.15966611  1  0.054655  0  0.10456  0.101751  0  1.01118  0
H  H22  1  0.89153953  0.65947141  0.84032744  1  0.054631  0  0.10454  0.101761  0  1.010989  0
H  H23  1  0.19073412  0.07112105  0.02474215  1  0.08674  0  0.103379  0.114221  0  1.043758  0
C  C24  1  0.44724367  0.98069512  0.66859539  1  1.541761  0  0.216227  0.612244  0  4.125515  0
C  C25  1  0.58721906  0.58722408  0.54092125  1  0.044714  0  0.003337  0.01093  0  3.925951  0
C  C26  1  0.99117581  0.40134239  0.90079984  1  0.051143  0  0.002811  -0.010447  0  3.9123  0
C  C27  1  0.26289537  0.04929389  0.00423554  1  -0.014614  0  -0.090907  -0.121269  0  3.984694  0
C  C28  1  0.73711766  0.95070279  0.99576344  1  -0.015606  0  -0.090836  -0.121286  0  3.984569  0
C  C29  1  0.95070366  0.73711425  0.99576113  1  -0.014904  0  -0.090828  -0.121288  0  3.984573  0
C  C30  1  0.04929798  0.26289455  0.00423406  1  -0.014538  0  -0.09088  -0.12128  0  3.984663  0
C  C31  1  0.31021861  0.05923149  0.04779501  1  -0.061188  0  -0.083703  -0.113563  0  4.017178  0
C  C32  1  0.41277056  0.41276755  0.45908104  1  0.046611  0  0.003471  0.011106  0  3.926477  0
C  C33  1  0.68979639  0.94077164  0.95219723  1  -0.060464  0  -0.083622  -0.113453  0  4.017054  0
C  C34  1  0.94077126  0.68979462  0.95219576  1  -0.060715  0  -0.083631  -0.11344  0  4.017132  0
C  C35  1  0.05923035  0.31021864  0.04779538  1  -0.061265  0  -0.083684  -0.113524  0  4.017122  0
C  C36  1  0.54132526  0.92422165  0.80492294  1  -0.003918  0  -0.084607  -0.111953  0  3.978303  0
C  C37  1  0.45868706  0.07577966  0.19507102  1  -0.005067  0  -0.084692  -0.111891  0  3.978118  0
C  C38  1  0.07577446  0.45868520  0.19507543  1  -0.004047  0  -0.084706  -0.111981  0  3.978199  0
C  C39  1  0.92421919  0.54132073  0.80492450  1  -0.004206  0  -0.084596  -0.111865  0  3.978204  0
C  C40  1  0.58785791  0.92333049  0.85582845  1  -0.029752  0  -0.083308  -0.115872  0  4.006153  0
C  C41  1  0.41215306  0.07667438  0.14416232  1  -0.029247  0  -0.083216  -0.115915  0  4.006328  0
C  C42  1  0.07666621  0.41215437  0.14416528  1  -0.029862  0  -0.083235  -0.1158  0  4.006198  0
C  C43  1  0.92332606  0.58785575  0.85583008  1  -0.029889  0  -0.083254  -0.115865  0  4.005909  0
C  C44  1  0.70480886  0.44838581  0.56669677  1  0.081036  0  0.029881  0.087969  0  3.928744  0
C  C45  1  0.99206347  0.16737976  0.92601290  1  1.549114  0  0.213806  0.604006  0  4.148978  0
C  C46  1  0.00794019  0.83262016  0.07398609  1  1.549392  0  0.213833  0.604092  0  4.149114  0
C  C47  1  0.83262458  0.00793688  0.07398667  1  1.54924  0  0.213826  0.604162  0  4.149031  0
C  C48  1  0.16738377  0.99206045  0.92601209  1  1.549104  0  0.213807  0.604004  0  4.148996  0
C  C49  1  0.29517809  0.55160594  0.43330708  1  0.078356  0  0.029699  0.087691  0  3.928987  0
C  C50  1  0.40677022  0.67185430  0.53292870  1  0.121962  0  -0.012203  -0.033749  0  3.998688  0
C  C51  1  0.59321870  0.32813813  0.46707062  1  0.123512  0  -0.012051  -0.033499  0  3.998618  0
C  C52  1  0.32814254  0.59321986  0.46706791  1  0.123037  0  -0.012114  -0.033512  0  3.998569  0
C  C53  1  0.67184641  0.40677196  0.53293456  1  0.120534  0  -0.012154  -0.033569  0  3.998643  0
C  C54  1  0.32040083  0.71667076  0.51623876  1  0.024445  0  0.009886  0.055927  0  3.998217  0
C  C55  1  0.55160780  0.29517002  0.43331476  1  0.07829  0  0.02966  0.087709  0  3.929028  0
C  C56  1  0.67958742  0.28331994  0.48376148  1  0.098167  0  0.009637  0.055743  0  3.998311  0
C  C57  1  0.28332185  0.67958472  0.48376003  1  0.098233  0  0.009601  0.055744  0  3.99835  0
C  C58  1  0.71666644  0.32040216  0.51624458  1  0.024451  0  0.009804  0.055793  0  3.998189  0
C  C59  1  0.41320730  0.54578275  0.48660024  1  0.081064  0  0.00286  0.019381  0  3.955286  0
C  C60  1  0.58678826  0.45421035  0.51339394  1  0.034946  0  0.002738  0.019218  0  3.955571  0
C  C61  1  0.45421505  0.58679303  0.51338504  1  0.034075  0  0.002748  0.01941  0  3.955355  0
C  C62  1  0.44838188  0.70481526  0.56669521  1  0.080021  0  0.029908  0.088003  0  3.928956  0
C  C63  1  0.54578049  0.41320389  0.48660534  1  0.080609  0  0.002846  0.019501  0  3.955258  0
C  C64  1  0.45864545  0.45864390  0.47440230  1  -0.106811  0  -0.005061  -0.012399  0  3.983858  0
C  C65  1  0.54134350  0.54134600  0.52560032  1  -0.10703  0  -0.004988  -0.012179  0  3.983622  0
C  C66  1  0.45639701  0.32417948  0.44936422  1  0.060438  0  0.00594  0.026397  0  3.948217  0
C  C67  1  0.54359195  0.67581493  0.55063901  1  0.061167  0  0.005775  0.02625  0  3.94832  0
C  C68  1  0.67581231  0.54359828  0.55063758  1  0.061288  0  0.005859  0.026293  0  3.947927  0
C  C69  1  0.32418462  0.45639832  0.44935824  1  0.060271  0  0.005976  0.026441  0  3.948287  0
C  C70  1  0.40378145  0.27262565  0.45406688  1  0.053995  0  -0.017301  -0.075424  0  3.909668  0
C  C71  1  0.59620611  0.72737804  0.54592747  1  0.053863  0  -0.017068  -0.075288  0  3.909304  0
C  C72  1  0.72737147  0.59621775  0.54592611  1  0.053504  0  -0.017158  -0.075384  0  3.909444  0
C  C73  1  0.27262872  0.40378297  0.45405927  1  0.05407  0  -0.017232  -0.075428  0  3.90957  0
C  C74  1  0.31334792  0.31334818  0.45880923  1  -0.128838  0  -0.068294  -0.080275  0  3.933421  0
C  C75  1  0.68664225  0.68665407  0.54117941  1  -0.128549  0  -0.068312  -0.080145  0  3.933096  0
C  C76  1  0.55276068  0.01931297  0.33140312  1  1.540676  0  0.216186  0.612294  0  4.125796  0
C  C77  1  0.45065880  0.99472932  0.95109675  1  0.00353  0  0.000573  -0.001393  0  3.943749  0
C  C78  1  0.54935554  0.00526888  0.04889880  1  0.008491  0  0.000487  -0.001435  0  3.94388  0
C  C79  1  0.00526504  0.54935491  0.04890060  1  0.003942  0  0.000454  -0.001327  0  3.943746  0
C  C80  1  0.99472462  0.45065537  0.95110154  1  0.003425  0  0.000547  -0.001462  0  3.943706  0
C  C81  1  0.54565895  0.96299218  0.92690384  1  -0.045254  0  0.001309  0.036004  0  3.999773  0
C  C82  1  0.01930909  0.55275810  0.33140563  1  1.540763  0  0.216102  0.612212  0  4.125842  0
C  C83  1  0.45435536  0.03701112  0.07308684  1  -0.044983  0  0.001357  0.036043  0  4.000071  0
C  C84  1  0.03700244  0.45435507  0.07309272  1  -0.045114  0  0.001282  0.035965  0  3.999849  0
C  C85  1  0.96298721  0.54565649  0.92690834  1  -0.044954  0  0.001265  0.03601  0  3.999759  0
C  C86  1  0.59497959  0.96942566  0.97509671  1  0.056115  0  -0.000654  0.034113  0  4.003905  0
C  C87  1  0.40503338  0.03057931  0.02489443  1  0.060873  0  -0.00068  0.034123  0  4.00402  0
C  C88  1  0.03057151  0.40503237  0.02489947  1  0.060844  0  -0.000637  0.034162  0  4.003862  0
C  C89  1  0.98069460  0.44723607  0.66859731  1  1.541264  0  0.216187  0.61225  0  4.125822  0
C  C90  1  0.96942479  0.59497728  0.97509685  1  0.060893  0  -0.000635  0.034037  0  4.003888  0
C  C91  1  0.30620426  0.01379099  0.92989610  1  0.002539  0  0.011228  0.099335  0  3.961515  0
C  C92  1  0.69380877  0.98620633  0.07010204  1  0.003045  0  0.011211  0.099575  0  3.961323  0
C  C93  1  0.98620412  0.69380604  0.07010264  1  0.002545  0  0.011209  0.099641  0  3.961219  0
C  C94  1  0.01379420  0.30619922  0.92989635  1  0.002827  0  0.011321  0.099552  0  3.961281  0
C  C95  1  0.25869118  0.00447043  0.88170646  1  -0.001356  0  -0.021858  -0.158614  0  3.869181  0
C  C96  1  0.74132256  0.99552482  0.11829631  1  -0.002759  0  -0.021974  -0.158955  0  3.869654  0
C  C97  1  0.99552726  0.74131895  0.11829504  1  -0.002657  0  -0.021947  -0.158849  0  3.869443  0
C  C98  1  0.00447376  0.25868752  0.88170596  1  -0.001717  0  -0.021831  -0.158636  0  3.869271  0
C  C99  1  0.30378226  0.00233547  0.79308937  1  0.034287  0  0.036057  0.142177  0  3.969899  0
C  C100  1  0.69622811  0.99766710  0.20690954  1  0.034821  0  0.036089  0.142346  0  3.969839  0
C  C101  1  0.99766484  0.69622587  0.20691109  1  0.034828  0  0.036075  0.142228  0  3.969829  0
C  C102  1  0.00233552  0.30377566  0.79309147  1  0.034619  0  0.035994  0.142123  0  3.969959  0
C  C103  1  0.39773046  0.98065914  0.76229859  1  0.067942  0  -0.020833  -0.155492  0  3.875269  0
C  C104  1  0.60227592  0.01934520  0.23770235  1  0.067723  0  -0.020833  -0.155689  0  3.87544  0
C  C105  1  0.01933931  0.60227459  0.23770419  1  0.067633  0  -0.020853  -0.1556  0  3.875477  0
C  C106  1  0.98065970  0.39772538  0.76229831  1  0.067674  0  -0.020859  -0.155557  0  3.875318  0
C  C107  1  0.44714824  0.96425810  0.82164956  1  -0.036575  0  0.01105  0.094542  0  3.962619  0
C  C108  1  0.55286210  0.03573930  0.17834725  1  -0.036611  0  0.011023  0.094455  0  3.962831  0
C  C109  1  0.03573338  0.55286013  0.17835257  1  -0.036287  0  0.011079  0.094593  0  3.962841  0
C  C110  1  0.96425763  0.44714466  0.82165232  1  -0.036109  0  0.01102  0.094466  0  3.962683  0
C  C111  1  0.56463785  0.82720200  0.52708604  1  1.554666  0  0.21357  0.597025  0  4.150774  0
C  C112  1  0.43533968  0.17280513  0.47290967  1  1.55492  0  0.213648  0.597009  0  4.151004  0
C  C113  1  0.17280582  0.43534284  0.47290643  1  1.554676  0  0.213566  0.596996  0  4.150958  0
C  C114  1  0.82719377  0.56465364  0.52708724  1  1.554421  0  0.213642  0.597169  0  4.150756  0
C  C115  1  0.40134593  0.99117656  0.90079848  1  0.050944  0  0.002879  -0.010396  0  3.912476  0
C  C116  1  0.59866510  0.00882004  0.09920130  1  0.05152  0  0.002934  -0.010394  0  3.912549  0
C  C117  1  0.00881586  0.59866414  0.09920414  1  0.051098  0  0.002929  -0.010646  0  3.912694  0
Cl  Cl118  1  0.82299408  0.26446528  0.52720983  1  -0.168103  0  -0.007184  -0.060473  0  1.642963  0
Cl  Cl119  1  0.23475495  0.61205283  0.35761916  1  -0.13927  0  0.017807  -0.026819  0  1.660963  0
Cl  Cl120  1  0.61205921  0.23474746  0.35762493  1  -0.139461  0  0.017807  -0.026836  0  1.660927  0
Cl  Cl121  1  0.38792376  0.76524030  0.64238372  1  -0.139306  0  0.017737  -0.026894  0  1.660786  0
Cl  Cl122  1  0.76523533  0.38793155  0.64238389  1  -0.139416  0  0.017733  -0.026881  0  1.660877  0
Cl  Cl123  1  0.24033176  0.03721440  0.72103786  1  -0.137541  0  0.003246  -0.032091  0  1.652672  0
Cl  Cl124  1  0.75967664  0.96279837  0.27896199  1  -0.140912  0  0.003297  -0.032045  0  1.652653  0
Cl  Cl125  1  0.96279679  0.75967408  0.27896208  1  -0.137624  0  0.003301  -0.032019  0  1.652716  0
Cl  Cl126  1  0.17699024  0.73550415  0.47280359  1  -0.168319  0  -0.007143  -0.06044  0  1.642944  0
Cl  Cl127  1  0.03721694  0.24032693  0.72103847  1  -0.140842  0  0.003303  -0.032033  0  1.652745  0
Cl  Cl128  1  0.73550747  0.17698580  0.47281207  1  -0.168184  0  -0.00715  -0.060429  0  1.642991  0
Cl  Cl129  1  0.26445748  0.82299933  0.52720334  1  -0.168151  0  -0.00719  -0.060499  0  1.642914  0
O  O130  1  0.52580692  0.99032937  0.64041178  1  -1.131157  0  -0.305795  -0.51942  0  2.286374  0
O  O131  1  0.50549343  0.13229387  0.49928789  1  -1.155627  0  -0.312788  -0.554373  0  2.391849  0
O  O132  1  0.13229028  0.50549243  0.49928545  1  -1.155623  0  -0.312798  -0.55434  0  2.391915  0
O  O133  1  0.86771270  0.49449611  0.50071465  1  -1.155306  0  -0.312864  -0.55448  0  2.391593  0
O  O134  1  0.49448812  0.86771472  0.50070748  1  -1.155289  0  -0.312763  -0.55433  0  2.391948  0
O  O135  1  0.61330866  0.86573318  0.53408234  1  -1.149387  0  -0.320459  -0.553464  0  2.257875  0
O  O136  1  0.38666493  0.13427321  0.46592102  1  -1.149567  0  -0.32047  -0.55336  0  2.258152  0
O  O137  1  0.13427622  0.38666343  0.46591922  1  -1.149278  0  -0.320397  -0.553346  0  2.258077  0
O  O138  1  0.47419476  0.00968653  0.35958594  1  -1.13097  0  -0.305889  -0.519519  0  2.286581  0
O  O139  1  0.86572541  0.61332676  0.53407902  1  -1.149338  0  -0.320441  -0.553482  0  2.258118  0
O  O140  1  0.40986379  0.97180294  0.62087958  1  -1.156334  0  -0.321416  -0.592004  0  2.433064  0
O  O141  1  0.59014060  0.02820134  0.37912390  1  -1.155716  0  -0.321333  -0.591919  0  2.432939  0
O  O142  1  0.02820186  0.59013501  0.37912483  1  -1.155845  0  -0.321318  -0.591926  0  2.433093  0
O  O143  1  0.97180587  0.40985101  0.62088203  1  -1.156087  0  -0.321359  -0.59192  0  2.433091  0
O  O144  1  0.00968528  0.47419147  0.35958623  1  -1.130892  0  -0.305782  -0.5194  0  2.286536  0
O  O145  1  0.98897320  0.13520197  0.00797113  1  -1.152052  0  -0.315783  -0.553536  0  2.335045  0
O  O146  1  0.01103186  0.86480085  0.99203265  1  -1.151871  0  -0.315746  -0.553518  0  2.335325  0
O  O147  1  0.86480672  0.01102543  0.99203316  1  -1.151983  0  -0.315684  -0.553472  0  2.335358  0
O  O148  1  0.13520301  0.98897349  0.00796915  1  -1.151919  0  -0.315795  -0.553551  0  2.335033  0
O  O149  1  0.99032773  0.52579813  0.64041196  1  -1.131169  0  -0.305747  -0.519366  0  2.286466  0
O  O150  1  0.87217007  0.02014943  0.11727912  1  -1.135729  0  -0.319115  -0.551725  0  2.374227  0
O  O151  1  0.12783899  0.97985739  0.88272217  1  -1.135934  0  -0.319043  -0.551605  0  2.374704  0
O  O152  1  0.97985662  0.12783561  0.88272349  1  -1.13589  0  -0.319077  -0.551652  0  2.37456  0
O  O153  1  0.02014442  0.87216960  0.11727974  1  -1.135914  0  -0.319095  -0.551692  0  2.37428  0
