# generated using pymatgen
data_CsH5(C2O3)2
_symmetry_space_group_name_H-M   'P 1'
_cell_length_a   7.69996414
_cell_length_b   8.05117437
_cell_length_c   12.08413635
_cell_angle_alpha   90.00001852
_cell_angle_beta   103.04631888
_cell_angle_gamma   90.00008855
_symmetry_Int_Tables_number   1
_chemical_formula_structural   CsH5(C2O3)2
_chemical_formula_sum   'Cs4 H20 C16 O24'
_cell_volume   729.80406761
_cell_formula_units_Z   4
loop_
 _symmetry_equiv_pos_site_id
 _symmetry_equiv_pos_as_xyz
  1  'x, y, z'
loop_
 _atom_site_type_symbol
 _atom_site_label
 _atom_site_symmetry_multiplicity
 _atom_site_fract_x
 _atom_site_fract_y
 _atom_site_fract_z
 _atom_site_occupancy
 _atom_site_hle17_bader_spin_density
 _atom_site_hle17_ddec_charge
 _atom_site_hle17_ddec_spin_density
 _atom_site_hle17_ddec_sum_bond_order
 _atom_site_hle17_magmom
 _atom_site_hse06_10hf_bader_spin_density
 _atom_site_hse06_10hf_ddec_charge
 _atom_site_hse06_10hf_ddec_spin_density
 _atom_site_hse06_10hf_ddec_sum_bond_order
 _atom_site_hse06_10hf_magmom
 _atom_site_hse06_bader_spin_density
 _atom_site_hse06_ddec_charge
 _atom_site_hse06_ddec_spin_density
 _atom_site_hse06_ddec_sum_bond_order
 _atom_site_hse06_magmom
 _atom_site_pbe_bader_spin_density
 _atom_site_pbe_cm5_charge
 _atom_site_pbe_ddec_charge
 _atom_site_pbe_ddec_spin_density
 _atom_site_pbe_ddec_sum_bond_order
 _atom_site_pbe_magmom
Cs  Cs0  1  0.76937393  0.07828866  0.52920324  1  0  0.944414  0  0.651999  0  0  0.881816  0  0.913678  0  0  0.89932  0  0.886574  0  0  0.932085  0.868963  0  0.932795  0
Cs  Cs1  1  0.23062263  0.57828872  0.97079527  1  0  0.944409  0  0.652021  0  0  0.881813  0  0.913701  0  0  0.899316  0  0.886596  0  0  0.932088  0.868963  0  0.932817  0
Cs  Cs2  1  0.23062482  0.92170930  0.47079608  1  0  0.944422  0  0.651987  0  0  0.881814  0  0.913686  0  0  0.899324  0  0.886572  0  0  0.932092  0.868962  0  0.932803  0
Cs  Cs3  1  0.76937612  0.42171048  0.02920322  1  0  0.944412  0  0.652016  0  0  0.881807  0  0.91371  0  0  0.899321  0  0.886589  0  0  0.932089  0.868956  0  0.932827  0
H  H4  1  0.12889005  0.63813439  0.24422826  1  0  0.376433  0  0.900895  0  0  0.353669  0  0.973565  0  0  0.36351  0  0.96223  0  0  0.303059  0.346706  0  0.981642  0
H  H5  1  0.87110906  0.13813335  0.25577154  1  0  0.376424  0  0.900933  0  0  0.353665  0  0.973596  0  0  0.363507  0  0.962259  0  0  0.303068  0.346702  0  0.981674  0
H  H6  1  0.87110870  0.36186605  0.75577106  1  0  0.376428  0  0.900926  0  0  0.353667  0  0.973588  0  0  0.36351  0  0.96225  0  0  0.303054  0.346705  0  0.981667  0
H  H7  1  0.12889236  0.86186461  0.74422899  1  0  0.376436  0  0.900927  0  0  0.353676  0  0.973593  0  0  0.363518  0  0.962254  0  0  0.303076  0.346714  0  0.981671  0
H  H8  1  0.12877603  0.20715997  0.15479448  1  0  0.379268  0  0.912111  0  0  0.351748  0  0.992079  0  0  0.362933  0  0.978606  0  0  0.298995  0.343861  0  1.00151  0
H  H9  1  0.87122187  0.70715843  0.34520516  1  0  0.379368  0  0.911952  0  0  0.351839  0  0.991958  0  0  0.363024  0  0.978482  0  0  0.299028  0.34395  0  1.001397  0
H  H10  1  0.87122406  0.79284047  0.84520503  1  0  0.379348  0  0.91199  0  0  0.351806  0  0.992014  0  0  0.362991  0  0.978539  0  0  0.299006  0.343916  0  1.00146  0
H  H11  1  0.12877688  0.29284201  0.65479415  1  0  0.379352  0  0.911994  0  0  0.351818  0  0.992005  0  0  0.363003  0  0.978531  0  0  0.299012  0.343927  0  1.001448  0
H  H12  1  0.71466171  0.42767860  0.35539166  1  0  0.39981  0  0.892109  0  0  0.366278  0  0.973265  0  0  0.37997  0  0.958982  0  0  0.302431  0.356696  0  0.983133  0
H  H13  1  0.28533925  0.92767982  0.14460764  1  0  0.399826  0  0.892084  0  0  0.366306  0  0.973217  0  0  0.379996  0  0.958935  0  0  0.302455  0.356723  0  0.983087  0
H  H14  1  0.28534104  0.57231936  0.64460741  1  0  0.399805  0  0.892065  0  0  0.366276  0  0.973215  0  0  0.379966  0  0.958932  0  0  0.302429  0.356694  0  0.983085  0
H  H15  1  0.71465950  0.07231814  0.85539250  1  0  0.399803  0  0.892058  0  0  0.366265  0  0.97322  0  0  0.379955  0  0.958938  0  0  0.302416  0.356684  0  0.983089  0
H  H16  1  0.29516238  0.44433178  0.43900303  1  0  0.085301  0  0.898477  0  0  0.095455  0  0.954198  0  0  0.097463  0  0.952638  0  0  0.12779  0.093954  0  0.955499  0
H  H17  1  0.70483861  0.94433109  0.06099793  1  0  0.085263  0  0.898491  0  0  0.095433  0  0.954206  0  0  0.09744  0  0.952646  0  0  0.127808  0.093936  0  0.955506  0
H  H18  1  0.70483904  0.55566618  0.56099667  1  0  0.085283  0  0.898525  0  0  0.095428  0  0.954232  0  0  0.097437  0  0.952672  0  0  0.127786  0.093931  0  0.955529  0
H  H19  1  0.29516147  0.05566687  0.93900323  1  0  0.085287  0  0.898468  0  0  0.09543  0  0.954181  0  0  0.097439  0  0.952621  0  0  0.12779  0.093934  0  0.95548  0
H  H20  1  0.30531981  0.21144648  0.31404297  1  0  0.063619  0  0.953079  0  0  0.066274  0  1.02742  0  0  0.069117  0  1.024698  0  0  0.116631  0.064209  0  1.029495  0
H  H21  1  0.69467676  0.71144708  0.18595649  1  0  0.063603  0  0.953076  0  0  0.066265  0  1.027441  0  0  0.069108  0  1.02472  0  0  0.116633  0.0642  0  1.029515  0
H  H22  1  0.69468161  0.78855521  0.68595508  1  0  0.063592  0  0.95299  0  0  0.066259  0  1.027368  0  0  0.069103  0  1.024646  0  0  0.116622  0.064195  0  1.029443  0
H  H23  1  0.30532065  0.28855461  0.81404595  1  0  0.063612  0  0.953034  0  0  0.066256  0  1.027391  0  0  0.069098  0  1.02467  0  0  0.116629  0.064191  0  1.029465  0
C  C24  1  0.02295217  0.38864776  0.36214735  1  0  0.659485  0  3.83314  0  0  0.602524  0  4.146306  0  0  0.635924  0  4.137415  0  0  0.215496  0.579874  0  4.15165  0
C  C25  1  0.97704738  0.88865000  0.13785258  1  0  0.65941  0  3.833164  0  0  0.602461  0  4.146323  0  0  0.635862  0  4.137432  0  0  0.215495  0.579817  0  4.151661  0
C  C26  1  0.97704925  0.61134399  0.63785236  1  0  0.659438  0  3.833103  0  0  0.602485  0  4.146211  0  0  0.635886  0  4.137322  0  0  0.215531  0.579837  0  4.151553  0
C  C27  1  0.02295003  0.11134175  0.86214738  1  0  0.659426  0  3.833109  0  0  0.60244  0  4.146265  0  0  0.63584  0  4.137377  0  0  0.215483  0.579794  0  4.151607  0
C  C28  1  0.20826805  0.45209950  0.35307003  1  0  0.062968  0  3.648551  0  0  0.040641  0  3.901413  0  0  0.042224  0  3.907716  0  0  -0.002625  0.039431  0  3.897116  0
C  C29  1  0.79173161  0.95209899  0.14693075  1  0  0.063082  0  3.648403  0  0  0.040732  0  3.901335  0  0  0.042316  0  3.90764  0  0  -0.002645  0.039514  0  3.89704  0
C  C30  1  0.79173203  0.54789970  0.64692948  1  0  0.063046  0  3.648477  0  0  0.040812  0  3.901237  0  0  0.042395  0  3.90754  0  0  -0.002571  0.039599  0  3.896942  0
C  C31  1  0.20826847  0.04790145  0.85306959  1  0  0.06309  0  3.648448  0  0  0.040823  0  3.901203  0  0  0.042405  0  3.907506  0  0  -0.002552  0.039606  0  3.89691  0
C  C32  1  0.28548061  0.33513648  0.27469445  1  0  0.063616  0  3.658043  0  0  0.037284  0  3.905995  0  0  0.038657  0  3.9126  0  0  -0.004178  0.03621  0  3.901726  0
C  C33  1  0.71452151  0.83513589  0.22530584  1  0  0.063687  0  3.657987  0  0  0.037288  0  3.906075  0  0  0.03866  0  3.91268  0  0  -0.00415  0.036219  0  3.901802  0
C  C34  1  0.71452214  0.66486521  0.72530462  1  0  0.063722  0  3.657769  0  0  0.037265  0  3.905916  0  0  0.038634  0  3.912525  0  0  -0.00418  0.036197  0  3.901651  0
C  C35  1  0.28547990  0.16486455  0.77469552  1  0  0.063615  0  3.658015  0  0  0.037302  0  3.905904  0  0  0.038679  0  3.912501  0  0  -0.004185  0.03623  0  3.901633  0
C  C36  1  0.46929410  0.39831994  0.26626658  1  0  0.686586  0  3.726548  0  0  0.642521  0  4.022114  0  0  0.675334  0  4.011486  0  0  0.237971  0.620071  0  4.029046  0
C  C37  1  0.53070547  0.89832033  0.23373335  1  0  0.686643  0  3.726517  0  0  0.642566  0  4.022138  0  0  0.675379  0  4.011511  0  0  0.237975  0.620113  0  4.029072  0
C  C38  1  0.53070731  0.60168050  0.73373312  1  0  0.6866  0  3.726547  0  0  0.64253  0  4.022184  0  0  0.675343  0  4.011555  0  0  0.237973  0.620065  0  4.029137  0
C  C39  1  0.46929328  0.10168011  0.76626597  1  0  0.686499  0  3.726665  0  0  0.64243  0  4.02222  0  0  0.675241  0  4.011594  0  0  0.237921  0.61998  0  4.029155  0
O  O40  1  0.89549506  0.49415475  0.35138357  1  0  -0.624647  0  2.037652  0  0  -0.558635  0  2.263183  0  0  -0.585342  0  2.252701  0  0  -0.305027  -0.540088  0  2.269872  0
O  O41  1  0.10450468  0.99415570  0.14861723  1  0  -0.62461  0  2.037646  0  0  -0.558624  0  2.263186  0  0  -0.585331  0  2.252704  0  0  -0.305034  -0.540078  0  2.269873  0
O  O42  1  0.10450502  0.50584446  0.64861511  1  0  -0.624609  0  2.03777  0  0  -0.558584  0  2.263267  0  0  -0.585289  0  2.252785  0  0  -0.305024  -0.540037  0  2.269958  0
O  O43  1  0.89549674  0.00584723  0.85138330  1  0  -0.624502  0  2.037918  0  0  -0.558471  0  2.263458  0  0  -0.585175  0  2.252978  0  0  -0.304908  -0.539923  0  2.270147  0
O  O44  1  0.00761309  0.23522665  0.37951727  1  0  -0.69974  0  2.019275  0  0  -0.650941  0  2.267901  0  0  -0.675693  0  2.258619  0  0  -0.445107  -0.633653  0  2.27382  0
O  O45  1  0.99238619  0.73522642  0.12048258  1  0  -0.699737  0  2.019303  0  0  -0.650914  0  2.267882  0  0  -0.675667  0  2.258599  0  0  -0.445115  -0.633629  0  2.273799  0
O  O46  1  0.99238966  0.76477627  0.62048262  1  0  -0.699763  0  2.019035  0  0  -0.650975  0  2.267651  0  0  -0.67573  0  2.25837  0  0  -0.445159  -0.633688  0  2.273571  0
O  O47  1  0.00761123  0.26478023  0.87951820  1  0  -0.69986  0  2.018886  0  0  -0.651065  0  2.267523  0  0  -0.675821  0  2.258242  0  0  -0.445237  -0.633778  0  2.273441  0
O  O48  1  0.21093921  0.62011971  0.31921835  1  0  -0.575748  0  2.105759  0  0  -0.535209  0  2.330198  0  0  -0.549765  0  2.319433  0  0  -0.481194  -0.524874  0  2.337552  0
O  O49  1  0.78905987  0.12011975  0.18078145  1  0  -0.575807  0  2.105731  0  0  -0.535257  0  2.330164  0  0  -0.549813  0  2.319397  0  0  -0.481238  -0.524921  0  2.337521  0
O  O50  1  0.78906087  0.37988074  0.68078199  1  0  -0.575824  0  2.105705  0  0  -0.535296  0  2.330082  0  0  -0.54985  0  2.319315  0  0  -0.481249  -0.52496  0  2.337439  0
O  O51  1  0.21093888  0.87988069  0.81921870  1  0  -0.57582  0  2.105679  0  0  -0.535296  0  2.330076  0  0  -0.549852  0  2.319309  0  0  -0.481275  -0.524958  0  2.337433  0
O  O52  1  0.16849260  0.32506454  0.16569824  1  0  -0.605686  0  2.112001  0  0  -0.565089  0  2.347531  0  0  -0.580044  0  2.335237  0  0  -0.48857  -0.554391  0  2.355855  0
O  O53  1  0.83150684  0.82506418  0.33430165  1  0  -0.605795  0  2.111882  0  0  -0.565178  0  2.347421  0  0  -0.58013  0  2.335127  0  0  -0.488606  -0.55448  0  2.355744  0
O  O54  1  0.83150748  0.67493590  0.83430044  1  0  -0.605787  0  2.111867  0  0  -0.565161  0  2.347443  0  0  -0.580114  0  2.335155  0  0  -0.488573  -0.554461  0  2.355768  0
O  O55  1  0.16849324  0.17493626  0.66570034  1  0  -0.605755  0  2.111903  0  0  -0.56517  0  2.347418  0  0  -0.580125  0  2.335123  0  0  -0.488574  -0.554475  0  2.35575  0
O  O56  1  0.50147292  0.45615002  0.17863080  1  0  -0.6351  0  2.007855  0  0  -0.594588  0  2.244709  0  0  -0.616645  0  2.235685  0  0  -0.443151  -0.579422  0  2.250669  0
O  O57  1  0.49852542  0.95615164  0.32136896  1  0  -0.635135  0  2.007791  0  0  -0.594609  0  2.244652  0  0  -0.616664  0  2.235628  0  0  -0.443154  -0.57944  0  2.250613  0
O  O58  1  0.49852850  0.54385415  0.82136642  1  0  -0.635065  0  2.008009  0  0  -0.594556  0  2.244901  0  0  -0.616611  0  2.235876  0  0  -0.443111  -0.579384  0  2.25087  0
O  O59  1  0.50147066  0.04385377  0.67863328  1  0  -0.635022  0  2.008029  0  0  -0.594522  0  2.244905  0  0  -0.616578  0  2.235883  0  0  -0.443096  -0.579355  0  2.250867  0
O  O60  1  0.58909135  0.38506857  0.36388113  1  0  -0.580592  0  2.083014  0  0  -0.533749  0  2.310274  0  0  -0.556968  0  2.294633  0  0  -0.364605  -0.517549  0  2.320584  0
O  O61  1  0.41090820  0.88506873  0.13611962  1  0  -0.580635  0  2.083084  0  0  -0.533783  0  2.310336  0  0  -0.557002  0  2.294695  0  0  -0.364627  -0.517589  0  2.320661  0
O  O62  1  0.41091007  0.61493187  0.63611775  1  0  -0.58062  0  2.082932  0  0  -0.533766  0  2.310192  0  0  -0.556985  0  2.294549  0  0  -0.364612  -0.517565  0  2.320523  0
O  O63  1  0.58908921  0.11493171  0.86388199  1  0  -0.580573  0  2.082942  0  0  -0.53373  0  2.310203  0  0  -0.55695  0  2.294563  0  0  -0.364589  -0.517534  0  2.320523  0
