# generated using pymatgen
data_Mn3H25C24(N2O7)3
_symmetry_space_group_name_H-M   'P 1'
_cell_length_a   8.56742550
_cell_length_b   12.61229436
_cell_length_c   20.85828338
_cell_angle_alpha   90.93665891
_cell_angle_beta   86.27327994
_cell_angle_gamma   89.83178175
_symmetry_Int_Tables_number   1
_chemical_formula_structural   Mn3H25C24(N2O7)3
_chemical_formula_sum   'Mn6 H50 C48 N12 O42'
_cell_volume   2248.75504525
_cell_formula_units_Z   2
loop_
 _symmetry_equiv_pos_site_id
 _symmetry_equiv_pos_as_xyz
  1  'x, y, z'
loop_
 _atom_site_type_symbol
 _atom_site_label
 _atom_site_symmetry_multiplicity
 _atom_site_fract_x
 _atom_site_fract_y
 _atom_site_fract_z
 _atom_site_occupancy
 _atom_site_pbe_bader_charge
 _atom_site_pbe_bader_spin_density
 _atom_site_pbe_cm5_charge
 _atom_site_pbe_ddec_charge
 _atom_site_pbe_ddec_spin_density
 _atom_site_pbe_ddec_sum_bond_order
 _atom_site_pbe_magmom
Mn  Mn0  1  0.59438240  0.26942968  0.23651707  1  1.737042  3.800858  0.780166  1.216308  3.983456  2.699305  3.78
Mn  Mn1  1  0.97081730  0.35797558  0.23363199  1  1.736322  3.525099  0.790476  1.229376  3.702988  2.919685  3.513
Mn  Mn2  1  0.25506404  0.14781965  0.26569821  1  1.80946  2.830186  0.85969  1.35523  2.982076  3.187227  2.829
Mn  Mn3  1  0.40562511  0.73057597  0.76347959  1  1.736936  3.80088  0.780165  1.216407  3.983466  2.699208  3.78
Mn  Mn4  1  0.02917881  0.64201912  0.76636890  1  1.736338  3.525141  0.79056  1.229594  3.703003  2.919329  3.513
Mn  Mn5  1  0.74493774  0.85217493  0.73429693  1  1.809157  2.830266  0.859706  1.355336  2.982121  3.186875  2.829
H  H6  1  0.10098732  0.20531179  0.35547290  1  0.608174  0.008265  0.298337  0.380354  0.005829  0.931346  0.009
H  H7  1  0.14616718  0.99582157  0.30704384  1  0.600522  0.010631  0.316482  0.380736  0.008226  0.893182  0.008
H  H8  1  0.12624617  0.41921657  0.14331545  1  0.584038  0.009391  0.310086  0.384295  0.006512  0.903522  0.009
H  H9  1  0.42596161  0.01624351  0.39321775  1  0.103744  0.00064  0.116985  0.154495  0.000373  0.956838  0.0
H  H10  1  0.40636584  0.95186875  0.31767621  1  0.133334  0.001418  0.106908  0.130694  0.001158  1.033206  0.001
H  H11  1  0.67942508  0.87292814  0.32383689  1  0.119172  0.000124  0.118085  0.109153  3.4e-05  0.984108  0.0
H  H12  1  0.68416473  0.92778025  0.40342545  1  0.116292  0.000136  0.117528  0.101917  5.3e-05  0.978134  0.0
H  H13  1  0.28334348  0.62382532  0.28926998  1  0.114757  0.000196  0.121876  0.107145  4.4e-05  0.971331  0.0
H  H14  1  0.17470713  0.57081682  0.35713256  1  0.070715  0.000152  0.119972  0.103316  -5.8e-05  0.95727  0.0
H  H15  1  0.49189975  0.48191698  0.30180638  1  0.091667  0.000356  0.112247  0.137166  -0.000156  1.003132  0.0
H  H16  1  0.37823106  0.43145951  0.36745168  1  0.111029  0.001573  0.116939  0.144653  0.000862  0.983324  0.001
H  H17  1  0.50383466  0.73478449  0.57279466  1  0.124401  0.000238  0.123734  0.113484  -7.3e-05  0.976036  0.0
H  H18  1  0.45306479  0.59998612  0.55682404  1  0.096092  0.000159  0.112814  0.092775  6.9e-05  0.989004  0.0
H  H19  1  0.22331214  0.78842550  0.57262271  1  0.090237  0.000595  0.119172  0.148938  0.000277  0.949442  0.0
H  H20  1  0.16847309  0.65651559  0.55234123  1  0.093588  0.000525  0.112807  0.141877  0.000195  0.965171  0.0
H  H21  1  0.00844489  0.99867500  0.19953567  1  0.135196  0.002233  0.108456  0.146057  0.001451  1.035027  0.001
H  H22  1  0.71992417  0.08333805  0.13536879  1  0.139143  0.001707  0.119811  0.107598  0.000922  1.009909  0.001
H  H23  1  0.67897698  0.00133978  0.20305568  1  0.086966  0.000788  0.114545  0.094489  0.000224  0.9749  0.0
H  H24  1  0.86258833  0.79164648  0.92890818  1  0.147765  0.035546  0.130857  0.133194  0.02224  0.950744  0.025
H  H25  1  0.80938669  0.92720713  0.93748696  1  0.163256  0.032487  0.129519  0.125882  0.02062  0.964534  0.025
H  H26  1  0.52421624  0.79370464  0.96621077  1  0.136373  0.000763  0.124692  0.13649  -0.005062  0.964002  -0.006
H  H27  1  0.90458190  0.64946571  0.18433615  1  0.113609  0.000196  0.118228  0.100865  -4.9e-05  0.97977  0.0
H  H28  1  0.88515164  0.58374290  0.10847517  1  0.109808  0.000626  0.120923  0.104486  0.000359  0.971366  0.0
H  H29  1  0.61418186  0.64890089  0.20572258  1  0.109711  0.001192  0.111421  0.144533  0.00069  0.990973  0.001
H  H30  1  0.59246443  0.57917202  0.13157238  1  0.071964  0.001921  0.110375  0.136011  0.001024  0.957653  0.001
H  H31  1  0.89904154  0.79466443  0.64453278  1  0.607745  0.00827  0.298259  0.380296  0.005828  0.931467  0.009
H  H32  1  0.85385367  0.00416489  0.69294842  1  0.600452  0.010636  0.316481  0.380687  0.008228  0.89322  0.008
H  H33  1  0.87376107  0.58076933  0.85668782  1  0.584346  0.009384  0.310071  0.384173  0.00651  0.903506  0.009
H  H34  1  0.57404224  0.98376932  0.60678037  1  0.103582  0.000639  0.116983  0.154525  0.000373  0.956796  0.0
H  H35  1  0.59362920  0.04813309  0.68232472  1  0.133331  0.001418  0.106919  0.130747  0.001158  1.033221  0.001
H  H36  1  0.32057301  0.12707211  0.67616644  1  0.119186  0.000123  0.118107  0.109215  3.4e-05  0.984157  0.0
H  H37  1  0.31582992  0.07222400  0.59657790  1  0.116454  0.000136  0.117523  0.101833  5.3e-05  0.978277  0.0
H  H38  1  0.71665196  0.37616942  0.71073476  1  0.114611  0.000196  0.121968  0.107194  4.4e-05  0.971318  0.0
H  H39  1  0.82529979  0.42917703  0.64287316  1  0.07068  0.000152  0.119987  0.10339  -5.8e-05  0.95729  0.0
H  H40  1  0.50810675  0.51808239  0.69819552  1  0.091729  0.000356  0.112257  0.137176  -0.000156  1.003091  0.0
H  H41  1  0.62177867  0.56853826  0.63255166  1  0.111365  0.001573  0.116971  0.144665  0.000862  0.983254  0.001
H  H42  1  0.49615860  0.26521581  0.42720962  1  0.1244  0.000238  0.123756  0.113516  -7.3e-05  0.975973  0.0
H  H43  1  0.54693379  0.40001886  0.44317691  1  0.096077  0.000159  0.112809  0.092777  6.9e-05  0.988943  0.0
H  H44  1  0.77667817  0.21156607  0.42737767  1  0.090105  0.000595  0.11922  0.149005  0.000277  0.949535  0.0
H  H45  1  0.83152857  0.34347669  0.44766110  1  0.093635  0.000525  0.112854  0.141924  0.000194  0.965192  0.0
H  H46  1  0.99155923  0.00132036  0.80045948  1  0.135083  0.002233  0.108453  0.14613  0.00145  1.035154  0.001
H  H47  1  0.28008004  0.91667000  0.86462691  1  0.139284  0.001708  0.119814  0.107558  0.000922  1.0098  0.001
H  H48  1  0.32102000  0.99866993  0.79694146  1  0.086929  0.000787  0.114518  0.094484  0.000223  0.974873  0.0
H  H49  1  0.13740523  0.20834507  0.07109365  1  0.147789  0.035537  0.130836  0.133179  0.022235  0.950801  0.025
H  H50  1  0.19061165  0.07278589  0.06250768  1  0.163295  0.03248  0.129522  0.125905  0.020615  0.964466  0.025
H  H51  1  0.47577730  0.20630351  0.03378586  1  0.136345  0.000766  0.124693  0.136453  -0.005064  0.964012  -0.006
H  H52  1  0.09543581  0.35054225  0.81566247  1  0.114124  0.000196  0.118292  0.10098  -4.9e-05  0.97968  0.0
H  H53  1  0.11487046  0.41626266  0.89152489  1  0.109692  0.000626  0.12098  0.104618  0.000358  0.971386  0.0
H  H54  1  0.38584164  0.35111020  0.79427656  1  0.109842  0.001193  0.111436  0.144575  0.00069  0.990985  0.001
H  H55  1  0.40755518  0.42084699  0.86842295  1  0.071958  0.001921  0.110367  0.135999  0.001024  0.957705  0.001
C  C56  1  0.57402752  0.07620766  0.31733756  1  1.479734  0.006159  0.242897  0.662897  0.005319  4.018453  0.007
C  C57  1  0.49136567  0.98445148  0.34976963  1  -0.062065  0.000999  -0.161832  -0.348195  -0.000138  3.906915  0.0
C  C58  1  0.60821312  0.89911156  0.36679110  1  0.275442  -9.3e-05  -0.054854  -0.017539  -0.000172  3.876997  0.0
C  C59  1  0.50893917  0.79584679  0.45978438  1  1.84157  3e-06  0.343619  0.550675  -2.6e-05  4.166064  0.0
C  C60  1  0.46221878  0.73586576  0.34927643  1  1.792686  9.4e-05  0.344581  0.549105  6.3e-05  4.163445  0.0
C  C61  1  0.36967035  0.62798417  0.44140246  1  1.803393  3.3e-05  0.341383  0.546314  2.7e-05  4.182546  0.0
C  C62  1  0.29219072  0.58116164  0.33413939  1  0.314138  0.000383  -0.053464  -0.00872  7.1e-05  3.891751  0.0
C  C63  1  0.37143778  0.47364673  0.32199725  1  -0.035578  0.001026  -0.158407  -0.339892  -3.2e-05  3.896154  0.0
C  C64  1  0.28213461  0.40198033  0.27914884  1  1.540678  0.017616  0.264822  0.695421  0.016795  4.004853  0.016
C  C65  1  0.42028479  0.68295879  0.55025887  1  0.296505  0.000201  -0.054484  -0.011167  -0.000132  3.877489  0.0
C  C66  1  0.25306858  0.70396057  0.57765362  1  -0.02857  -0.007719  -0.153663  -0.331945  -0.010489  3.891269  -0.007
C  C67  1  0.23077339  0.68277046  0.64857684  1  1.561468  0.015629  0.259206  0.687625  0.014339  4.032386  0.016
C  C68  1  0.93371831  0.15649202  0.21294422  1  1.019999  -6.8e-05  0.163993  0.52283  -0.001636  4.135792  0.006
C  C69  1  0.91674935  0.05576512  0.19142888  1  0.059246  0.018776  -0.126707  -0.326797  0.013044  3.861331  0.011
C  C70  1  0.76764573  0.02121786  0.16456390  1  0.259871  0.002367  -0.054811  -0.004706  0.001946  3.942349  0.001
C  C71  1  0.77833033  0.93720878  0.05716306  1  1.799729  0.000461  0.342904  0.555931  0.000687  4.170313  0.0
C  C72  1  0.80417226  0.83019824  0.15401320  1  1.79575  6.8e-05  0.34611  0.553175  -3.5e-05  4.160345  0.0
C  C73  1  0.79456883  0.74139587  0.04821285  1  1.798398  -0.00019  0.342903  0.548814  -0.000559  4.176633  0.0
C  C74  1  0.77541319  0.84679166  0.95235069  1  0.270192  0.008007  -0.046884  -0.052191  -0.001465  3.955586  -0.01
C  C75  1  0.61710069  0.82002548  0.93213055  1  0.027412  0.665818  -0.03103  -0.126538  0.543017  3.450939  0.38
C  C76  1  0.58811994  0.82227935  0.86482860  1  1.452745  0.062929  0.22975  0.59236  0.039824  4.16041  0.009
C  C77  1  0.82874633  0.63769896  0.14463699  1  0.281948  0.000353  -0.052456  -0.015737  3.7e-05  3.892465  0.0
C  C78  1  0.67113078  0.59287876  0.17028818  1  -0.032135  -0.000984  -0.155249  -0.324462  -0.002113  3.875507  -0.002
C  C79  1  0.69791683  0.48978216  0.20386578  1  1.556121  0.019355  0.245524  0.670319  0.019884  4.071398  0.018
C  C80  1  0.42597408  0.92379249  0.68265905  1  1.479708  0.006161  0.242965  0.662924  0.00532  4.018101  0.007
C  C81  1  0.50863788  0.01555106  0.65022940  1  -0.061974  0.000998  -0.161795  -0.348222  -0.000139  3.906615  0.0
C  C82  1  0.39178278  0.10089267  0.63321177  1  0.275222  -9.3e-05  -0.054901  -0.017624  -0.000172  3.877109  0.0
C  C83  1  0.49104620  0.20415515  0.54021845  1  1.841976  3e-06  0.343573  0.550601  -2.6e-05  4.166173  0.0
C  C84  1  0.53778174  0.26413446  0.65072642  1  1.792719  9.4e-05  0.344624  0.549134  6.3e-05  4.163336  0.0
C  C85  1  0.63033135  0.37201763  0.55860040  1  1.803173  3.3e-05  0.341392  0.546404  2.7e-05  4.182174  0.0
C  C86  1  0.70781073  0.41883383  0.66586441  1  0.314306  0.000383  -0.053624  -0.009009  7.1e-05  3.891904  0.0
C  C87  1  0.62857071  0.52635185  0.67800658  1  -0.035862  0.001026  -0.15845  -0.339845  -3.2e-05  3.895804  0.0
C  C88  1  0.71787398  0.59801904  0.72085452  1  1.540968  0.017625  0.264864  0.695456  0.016803  4.004823  0.016
C  C89  1  0.57971255  0.31704065  0.44974205  1  0.296561  0.000201  -0.054535  -0.011218  -0.000132  3.877463  0.0
C  C90  1  0.74692846  0.29603571  0.42234873  1  -0.028536  -0.00772  -0.15368  -0.331982  -0.01049  3.891439  -0.007
C  C91  1  0.76922029  0.31722981  0.35142504  1  1.561427  0.015634  0.259089  0.687346  0.014344  4.032407  0.016
C  C92  1  0.06628253  0.84350104  0.78705619  1  1.019884  -7.6e-05  0.163923  0.522842  -0.001644  4.136028  0.006
C  C93  1  0.08325129  0.94423185  0.80856627  1  0.059342  0.018751  -0.126654  -0.326914  0.013021  3.861412  0.011
C  C94  1  0.23234902  0.97878711  0.83543224  1  0.259852  0.002366  -0.054762  -0.004516  0.001945  3.942232  0.001
C  C95  1  0.22159958  0.06279043  0.94283623  1  1.799753  0.00046  0.342996  0.555733  0.000687  4.170502  0.0
C  C96  1  0.19583886  0.16980897  0.84598299  1  1.795606  6.8e-05  0.345937  0.552928  -3.5e-05  4.161015  0.0
C  C97  1  0.20543928  0.25860504  0.95178666  1  1.798263  -0.000189  0.342922  0.548881  -0.000559  4.176672  0.0
C  C98  1  0.22457669  0.15320463  0.04764586  1  0.270077  0.008011  -0.046878  -0.052214  -0.001465  3.955523  -0.01
C  C99  1  0.38289500  0.17997473  0.06786653  1  0.027556  0.665812  -0.030933  -0.126376  0.543017  3.450811  0.38
C  C100  1  0.41187117  0.17772803  0.13516851  1  1.452704  0.062927  0.229641  0.592246  0.039827  4.160404  0.009
C  C101  1  0.17127839  0.36230974  0.85536165  1  0.28149  0.000353  -0.052665  -0.016218  3.7e-05  3.892768  0.0
C  C102  1  0.32888210  0.40713004  0.82971139  1  -0.03211  -0.000983  -0.155217  -0.324321  -0.002113  3.875755  -0.002
C  C103  1  0.30209060  0.51022350  0.79613135  1  1.556209  0.019352  0.24561  0.670334  0.019883  4.071618  0.018
N  N104  1  0.37973003  0.65027189  0.37630787  1  -1.193021  0.000111  -0.253176  -0.243457  6.7e-05  3.610335  0.0
N  N105  1  0.43541115  0.70271002  0.48107773  1  -1.20738  -0.000425  -0.251371  -0.239979  -0.000518  3.610367  0.0
N  N106  1  0.52592926  0.80538619  0.39308511  1  -1.201077  -0.000379  -0.247496  -0.234226  -0.000472  3.593801  0.0
N  N107  1  0.78598101  0.92607572  0.12317743  1  -1.158022  0.000593  -0.249179  -0.237392  0.00027  3.604223  0.0
N  N108  1  0.81120618  0.74035903  0.11416404  1  -1.186409  -0.000554  -0.250999  -0.238512  -0.000866  3.616116  0.0
N  N109  1  0.78600446  0.84206966  0.02190296  1  -1.213028  0.000844  -0.250178  -0.239608  -0.001745  3.61672  0.0
N  N110  1  0.62027279  0.34972594  0.62369498  1  -1.192843  0.000111  -0.253141  -0.243414  6.7e-05  3.610273  0.0
N  N111  1  0.56458468  0.29728945  0.51892510  1  -1.207753  -0.000426  -0.251302  -0.239928  -0.000518  3.610092  0.0
N  N112  1  0.47406324  0.19461886  0.60691727  1  -1.201081  -0.000379  -0.247549  -0.234161  -0.000472  3.593659  0.0
N  N113  1  0.21401151  0.07393084  0.87681823  1  -1.158405  0.000591  -0.249149  -0.237536  0.000269  3.604603  0.0
N  N114  1  0.18881390  0.25964573  0.88583408  1  -1.186354  -0.000554  -0.250959  -0.238366  -0.000866  3.615977  0.0
N  N115  1  0.21398167  0.15793302  0.97809554  1  -1.213118  0.000844  -0.250309  -0.239692  -0.001746  3.616867  0.0
O  O116  1  0.14876140  0.43615207  0.26511253  1  -1.138931  0.053117  -0.281444  -0.506288  0.036387  2.322034  0.018
O  O117  1  0.48985308  0.13574433  0.27887328  1  -1.114478  0.040091  -0.303636  -0.595419  0.028389  2.403956  0.001
O  O118  1  0.71238514  0.09654024  0.32410195  1  -1.14671  0.004179  -0.271571  -0.484877  0.001215  2.115482  0.002
O  O119  1  0.09264533  0.66887856  0.67220736  1  -1.138456  0.014802  -0.277591  -0.52206  0.002988  2.321912  -0.008
O  O120  1  0.35517638  0.68052236  0.67973190  1  -1.147543  0.028292  -0.29448  -0.547063  0.011221  2.430998  -0.002
O  O121  1  0.33950017  0.31186408  0.26054628  1  -1.185674  0.062683  -0.279277  -0.593985  0.051519  2.420224  0.034
O  O122  1  0.47552627  0.74952731  0.29106559  1  -1.124881  -3.7e-05  -0.275962  -0.467959  -0.000182  2.116345  0.0
O  O123  1  0.55685979  0.86265052  0.49694168  1  -1.130386  -1.9e-05  -0.277287  -0.466592  -0.000135  2.099613  0.0
O  O124  1  0.30450564  0.54777205  0.46264626  1  -1.134197  0.000147  -0.289242  -0.486971  0.0001  2.086096  0.0
O  O125  1  0.82969009  0.23607600  0.20813974  1  -1.116248  0.072263  -0.310868  -0.557063  0.055431  2.373153  0.026
O  O126  1  0.05949625  0.19730733  0.24109770  1  -1.074861  0.062013  -0.318251  -0.57475  0.046194  2.513095  0.025
O  O127  1  0.81223807  0.82517843  0.21242792  1  -1.127552  -0.000179  -0.278289  -0.469093  -0.000405  2.099701  0.0
O  O128  1  0.76398981  0.02350058  0.03170826  1  -1.132318  0.005757  -0.292576  -0.482193  0.003788  2.068745  0.002
O  O129  1  0.78876665  0.66020602  0.01528295  1  -1.121198  0.006036  -0.285215  -0.472407  0.004014  2.065829  0.003
O  O130  1  0.46098212  0.77817267  0.84730002  1  -1.09606  0.106527  -0.289425  -0.500783  0.073187  2.338545  0.066
O  O131  1  0.69048821  0.86754146  0.82735109  1  -1.116934  0.115056  -0.278196  -0.491846  0.085156  2.341655  0.083
O  O132  1  0.59970699  0.41486929  0.19661481  1  -1.150411  0.037199  -0.29026  -0.533434  0.02406  2.286471  0.011
O  O133  1  0.81622717  0.48365607  0.23728393  1  -1.169417  0.075782  -0.299257  -0.556738  0.058252  2.288609  0.045
O  O134  1  0.20287212  0.16956584  0.35061033  1  -1.056486  0.082318  -0.551829  -0.744142  0.054324  1.819028  0.047
O  O135  1  0.20719641  0.00833413  0.26659880  1  -0.999606  0.087679  -0.513514  -0.674  0.05789  1.871321  0.056
O  O136  1  0.03576710  0.37287621  0.14980808  1  -1.041863  0.066876  -0.546411  -0.728384  0.037338  1.838016  0.033
O  O137  1  0.85124021  0.56383711  0.73489651  1  -1.138731  0.053121  -0.281303  -0.506163  0.036385  2.322107  0.018
O  O138  1  0.51015150  0.86424782  0.72111897  1  -1.114434  0.04011  -0.303763  -0.595556  0.028406  2.403954  0.001
O  O139  1  0.28761869  0.90346467  0.67589566  1  -1.146666  0.004184  -0.271564  -0.484824  0.001219  2.115367  0.002
O  O140  1  0.90734932  0.33111934  0.32779547  1  -1.138326  0.014801  -0.277529  -0.521914  0.002978  2.321757  -0.008
O  O141  1  0.64481785  0.31947470  0.32026659  1  -1.147504  0.028279  -0.294467  -0.546889  0.01121  2.430992  -0.002
O  O142  1  0.66051385  0.68813599  0.73945276  1  -1.186272  0.062685  -0.279402  -0.594123  0.051525  2.420216  0.034
O  O143  1  0.52447547  0.25047131  0.70893678  1  -1.125046  -3.7e-05  -0.275998  -0.468015  -0.000183  2.116386  0.0
O  O144  1  0.44311037  0.13736029  0.50306212  1  -1.130307  -2e-05  -0.277271  -0.466557  -0.000136  2.099766  0.0
O  O145  1  0.69550292  0.45222573  0.53735709  1  -1.13416  0.000147  -0.289201  -0.486964  0.0001  2.086037  0.0
O  O146  1  0.17031174  0.76392262  0.79186215  1  -1.11612  0.072225  -0.310825  -0.557176  0.055413  2.373323  0.026
O  O147  1  0.94050147  0.80268977  0.75890754  1  -1.07493  0.062007  -0.318241  -0.574754  0.046183  2.513135  0.025
O  O148  1  0.18778672  0.17483582  0.78757076  1  -1.127248  -0.000179  -0.278238  -0.469005  -0.000405  2.099966  0.0
O  O149  1  0.23583752  0.97649316  0.96828977  1  -1.132016  0.005753  -0.292626  -0.481966  0.003782  2.069182  0.002
O  O150  1  0.21124376  0.33979250  0.98471656  1  -1.121211  0.006035  -0.285208  -0.472387  0.004014  2.065748  0.003
O  O151  1  0.53900656  0.22183315  0.15269755  1  -1.096023  0.106545  -0.289397  -0.500704  0.073201  2.338517  0.066
O  O152  1  0.30950022  0.13245883  0.17264741  1  -1.116806  0.115067  -0.278163  -0.491859  0.085176  2.341691  0.083
O  O153  1  0.40028905  0.58513804  0.80338086  1  -1.150451  0.037187  -0.290193  -0.533348  0.024061  2.286725  0.011
O  O154  1  0.18378072  0.51634082  0.76270979  1  -1.169533  0.075792  -0.299379  -0.556893  0.058257  2.288445  0.045
O  O155  1  0.79716746  0.83042687  0.64938874  1  -1.055666  0.082272  -0.551792  -0.744129  0.054332  1.819044  0.047
O  O156  1  0.79281537  0.99166033  0.73339251  1  -0.99946  0.087678  -0.513531  -0.673978  0.057888  1.871323  0.056
O  O157  1  0.96423951  0.62711291  0.85019905  1  -1.042226  0.06683  -0.54645  -0.728281  0.037283  1.837766  0.033
