# generated using pymatgen
data_GdPH15C7NO7
_symmetry_space_group_name_H-M   'P 1'
_cell_length_a   5.44579398
_cell_length_b   12.29923112
_cell_length_c   20.26063118
_cell_angle_alpha   89.99997413
_cell_angle_beta   88.87374432
_cell_angle_gamma   89.99992123
_symmetry_Int_Tables_number   1
_chemical_formula_structural   GdPH15C7NO7
_chemical_formula_sum   'Gd4 P4 H60 C28 N4 O28'
_cell_volume   1356.77624492
_cell_formula_units_Z   4
loop_
 _symmetry_equiv_pos_site_id
 _symmetry_equiv_pos_as_xyz
  1  'x, y, z'
loop_
 _atom_site_type_symbol
 _atom_site_label
 _atom_site_symmetry_multiplicity
 _atom_site_fract_x
 _atom_site_fract_y
 _atom_site_fract_z
 _atom_site_occupancy
 _atom_site_pbe_bader_charge
 _atom_site_pbe_bader_spin_density
 _atom_site_pbe_cm5_charge
 _atom_site_pbe_ddec_charge
 _atom_site_pbe_ddec_spin_density
 _atom_site_pbe_ddec_sum_bond_order
 _atom_site_pbe_magmom
Gd  Gd0  1  0.36766724  0.85435772  0.02635626  1  2.177756  0  1.506733  2.110138  0  2.187424  0
Gd  Gd1  1  0.63232846  0.35436206  0.47364423  1  2.177699  0  1.506713  2.110187  0  2.187367  0
Gd  Gd2  1  0.63233766  0.14563721  0.97364263  1  2.177708  0  1.506704  2.11017  0  2.187482  0
Gd  Gd3  1  0.36766848  0.64564344  0.52635703  1  2.177708  0  1.506726  2.11009  0  2.187468  0
P  P4  1  0.12299685  0.97449764  0.91070398  1  3.323446  0  0.325445  1.337739  0  5.395764  0
P  P5  1  0.87701414  0.47450380  0.58929487  1  3.323898  0  0.325361  1.337476  0  5.395764  0
P  P6  1  0.87700634  0.02549648  0.08929439  1  3.32389  0  0.325378  1.33747  0  5.395678  0
P  P7  1  0.12298488  0.52550089  0.41070543  1  3.323648  0  0.325451  1.337724  0  5.395831  0
H  H8  1  0.79194568  0.81679883  0.93571948  1  0.653119  0  0.302028  0.417858  0  0.913335  0
H  H9  1  0.20805941  0.31680403  0.56428220  1  0.653142  0  0.302007  0.417835  0  0.91339  0
H  H10  1  0.20806446  0.18319204  0.06428047  1  0.653145  0  0.301959  0.417741  0  0.913497  0
H  H11  1  0.79193765  0.68319984  0.43571856  1  0.653163  0  0.30198  0.417753  0  0.913493  0
H  H12  1  0.56105251  0.81534982  0.88909955  1  0.592534  0  0.31639  0.392931  0  0.919004  0
H  H13  1  0.43894855  0.31534717  0.61090356  1  0.592572  0  0.316377  0.392985  0  0.918925  0
H  H14  1  0.43895737  0.18465487  0.11090138  1  0.59251  0  0.316338  0.392967  0  0.918957  0
H  H15  1  0.56104655  0.68464858  0.38909767  1  0.592478  0  0.316362  0.392979  0  0.918932  0
H  H16  1  0.20382738  0.62493104  0.05485855  1  0.597969  0  0.331247  0.413808  0  0.875642  0
H  H17  1  0.79616651  0.12493730  0.44513986  1  0.598035  0  0.331237  0.413797  0  0.875649  0
H  H18  1  0.79616298  0.37506145  0.94513965  1  0.598035  0  0.331238  0.413802  0  0.875648  0
H  H19  1  0.20382574  0.87506739  0.55486530  1  0.597917  0  0.33124  0.413772  0  0.875673  0
H  H20  1  0.95766560  0.69363835  0.04169908  1  0.649729  0  0.298196  0.406833  0  0.928402  0
H  H21  1  0.04232317  0.19364183  0.45830126  1  0.64978  0  0.298202  0.406872  0  0.928365  0
H  H22  1  0.04232976  0.30636146  0.95830117  1  0.649747  0  0.298167  0.406833  0  0.928415  0
H  H23  1  0.95767181  0.80636367  0.54170047  1  0.64978  0  0.298177  0.406846  0  0.928394  0
H  H24  1  0.28461640  0.03870113  0.80898175  1  0.104889  0  0.12185  0.138074  0  1.003663  0
H  H25  1  0.71538218  0.53870436  0.69101728  1  0.105016  0  0.121851  0.138064  0  1.003597  0
H  H26  1  0.71538313  0.96129461  0.19101657  1  0.104988  0  0.121881  0.138133  0  1.003608  0
H  H27  1  0.28460913  0.46129464  0.30898440  1  0.105025  0  0.121847  0.138049  0  1.003651  0
H  H28  1  0.39602372  0.90732380  0.82319954  1  0.020091  0  0.099985  0.08614  0  1.035527  0
H  H29  1  0.60398189  0.40732778  0.67679525  1  0.020197  0  0.099978  0.086156  0  1.035577  0
H  H30  1  0.60398182  0.09267195  0.17679688  1  0.020192  0  0.099977  0.086159  0  1.035586  0
H  H31  1  0.39602250  0.59266959  0.32320561  1  0.020178  0  0.099968  0.086145  0  1.035582  0
H  H32  1  0.24218118  0.92553713  0.69152824  1  0.020355  0  0.08514  0.046114  0  0.999781  0
H  H33  1  0.75781558  0.42553461  0.80847139  1  0.020289  0  0.085172  0.046137  0  0.999817  0
H  H34  1  0.75781209  0.07446268  0.30847297  1  0.02032  0  0.085129  0.046077  0  0.999774  0
H  H35  1  0.24220019  0.57446520  0.19152814  1  0.020203  0  0.085149  0.04612  0  0.999821  0
H  H36  1  0.07656474  0.04471525  0.71556371  1  0.025983  0  0.104364  0.08264  0  1.000075  0
H  H37  1  0.92342567  0.54471294  0.78443818  1  0.026024  0  0.104372  0.082688  0  1.000024  0
H  H38  1  0.92342789  0.95528456  0.28443997  1  0.025958  0  0.104359  0.082686  0  1.000031  0
H  H39  1  0.07657949  0.45528850  0.21555972  1  0.026054  0  0.104348  0.082632  0  1.000138  0
H  H40  1  0.88154363  0.95114740  0.62104532  1  0.030408  0  0.09407  0.089548  0  0.994795  0
H  H41  1  0.11844506  0.45114381  0.87895569  1  0.030379  0  0.094061  0.0895  0  0.994796  0
H  H42  1  0.11844546  0.04885404  0.37895781  1  0.030404  0  0.094105  0.089593  0  0.99476  0
H  H43  1  0.88157305  0.54886088  0.12104189  1  0.030058  0  0.094052  0.089513  0  0.994795  0
H  H44  1  0.68275459  0.95697519  0.69120097  1  0.03732  0  0.093217  0.091504  0  0.989163  0
H  H45  1  0.31724293  0.45697283  0.80880115  1  0.037411  0  0.093244  0.091536  0  0.989123  0
H  H46  1  0.31724158  0.04302706  0.30880325  1  0.037507  0  0.093249  0.091603  0  0.989063  0
H  H47  1  0.68277360  0.54302860  0.19119542  1  0.037292  0  0.09319  0.091453  0  0.989208  0
H  H48  1  0.00793727  0.76150640  0.65506385  1  0.080674  0  0.113716  0.098033  0  0.993767  0
H  H49  1  0.99206346  0.26150336  0.84493627  1  0.080646  0  0.113761  0.098095  0  0.993708  0
H  H50  1  0.99204854  0.23849341  0.34493775  1  0.080548  0  0.113747  0.098086  0  0.993703  0
H  H51  1  0.00793474  0.73850295  0.15506005  1  0.080515  0  0.113774  0.098106  0  0.993718  0
H  H52  1  0.77457856  0.67153217  0.74769617  1  -0.00971  0  0.091767  0.086363  0  1.032862  0
H  H53  1  0.22541843  0.17153139  0.75230190  1  -0.009719  0  0.091788  0.086343  0  1.03287  0
H  H54  1  0.22540763  0.32846764  0.25230396  1  -0.009683  0  0.091801  0.08639  0  1.032826  0
H  H55  1  0.77459209  0.82847004  0.24769658  1  -0.009667  0  0.091794  0.086378  0  1.032937  0
H  H56  1  0.62102829  0.79474299  0.76464860  1  0.024266  0  0.085955  0.073075  0  1.032009  0
H  H57  1  0.37896479  0.29474248  0.73535093  1  0.024154  0  0.085938  0.073036  0  1.031941  0
H  H58  1  0.37895727  0.20525763  0.23535398  1  0.024229  0  0.085961  0.073097  0  1.031957  0
H  H59  1  0.62104731  0.70525977  0.26464855  1  0.024123  0  0.086003  0.073162  0  1.031908  0
H  H60  1  0.98998349  0.77311177  0.83657877  1  0.039901  0  0.104559  0.088167  0  1.003606  0
H  H61  1  0.01001184  0.27311327  0.66342029  1  0.03991  0  0.104523  0.088124  0  1.003586  0
H  H62  1  0.01001344  0.22688234  0.16342249  1  0.039972  0  0.104481  0.088098  0  1.003696  0
H  H63  1  0.99000272  0.72688980  0.33657675  1  0.039992  0  0.104545  0.088167  0  1.003609  0
H  H64  1  0.18042294  0.75756229  0.76487897  1  0.008527  0  0.090021  0.06208  0  0.987998  0
H  H65  1  0.81957064  0.25756487  0.73512056  1  0.008455  0  0.090093  0.062163  0  0.98803  0
H  H66  1  0.81956363  0.24243345  0.23511968  1  0.008476  0  0.090073  0.062131  0  0.9881  0
H  H67  1  0.18044209  0.74243656  0.26487645  1  0.008556  0  0.090058  0.062126  0  0.988099  0
C  C68  1  0.22552623  0.95729752  0.82502644  1  -0.194403  0  -0.064604  -0.354677  0  3.940214  0
C  C69  1  0.77447375  0.45730014  0.67497324  1  -0.194484  0  -0.06458  -0.354587  0  3.940043  0
C  C70  1  0.77447254  0.04269822  0.17497484  1  -0.194608  0  -0.064618  -0.354686  0  3.940131  0
C  C71  1  0.22552893  0.54269967  0.32502710  1  -0.194512  0  -0.064583  -0.354615  0  3.940111  0
C  C72  1  0.06683129  0.95564780  0.71434360  1  0.294606  0  -0.067894  -0.045981  0  3.941265  0
C  C73  1  0.93316309  0.45564559  0.78565650  1  0.294599  0  -0.067944  -0.046097  0  3.941338  0
C  C74  1  0.93316539  0.04435038  0.28565864  1  0.294403  0  -0.067906  -0.045994  0  3.941138  0
C  C75  1  0.06684914  0.54435666  0.21434249  1  0.294533  0  -0.067944  -0.046124  0  3.941386  0
C  C76  1  0.85402813  0.92048607  0.67161276  1  -0.047952  0  -0.159429  -0.181774  0  3.93503  0
C  C77  1  0.14596124  0.42048585  0.82838726  1  -0.047863  0  -0.159459  -0.181724  0  3.934915  0
C  C78  1  0.14595756  0.07951212  0.32838934  1  -0.047948  0  -0.15946  -0.181899  0  3.934982  0
C  C79  1  0.85404953  0.57951802  0.17161022  1  -0.047373  0  -0.159338  -0.181546  0  3.934885  0
C  C80  1  0.83126351  0.79597989  0.67296789  1  0.014983  0  -0.090363  -0.121319  0  3.88795  0
C  C81  1  0.16873675  0.29597321  0.82703224  1  0.014927  0  -0.090352  -0.121314  0  3.887829  0
C  C82  1  0.16872243  0.20402398  0.32703322  1  0.015103  0  -0.090373  -0.121259  0  3.887869  0
C  C83  1  0.83127902  0.70402579  0.17296729  1  0.014804  0  -0.090416  -0.121336  0  3.887852  0
C  C84  1  0.79304246  0.76007024  0.74444197  1  0.002443  0  -0.164134  -0.176241  0  3.943366  0
C  C85  1  0.20695084  0.26006943  0.75555855  1  0.002573  0  -0.164118  -0.176138  0  3.943224  0
C  C86  1  0.20694846  0.23992957  0.25556119  1  0.002415  0  -0.164187  -0.176311  0  3.943216  0
C  C87  1  0.79305129  0.73993363  0.24443684  1  0.00252  0  -0.164238  -0.176361  0  3.943334  0
C  C88  1  0.01097513  0.79780531  0.78473751  1  0.286052  0  -0.074125  -0.066931  0  3.92235  0
C  C89  1  0.98901803  0.29780493  0.71526153  1  0.286111  0  -0.074175  -0.066984  0  3.9223  0
C  C90  1  0.98901473  0.20219368  0.21526266  1  0.286083  0  -0.074132  -0.066932  0  3.922406  0
C  C91  1  0.01099117  0.70219895  0.28473494  1  0.28612  0  -0.074176  -0.067047  0  3.922443  0
C  C92  1  0.64333115  0.75547645  0.62487728  1  1.513497  0  0.201232  0.584993  0  4.168635  0
C  C93  1  0.35665096  0.25548054  0.87512408  1  1.513373  0  0.201145  0.585071  0  4.168272  0
C  C94  1  0.35664486  0.24452174  0.37512667  1  1.512975  0  0.201227  0.584987  0  4.168293  0
C  C95  1  0.64335584  0.74450789  0.12486742  1  1.512627  0  0.201154  0.585029  0  4.168143  0
N  N96  1  0.03543685  0.91646722  0.78210736  1  -0.998253  0  -0.338153  -0.097085  0  3.490838  0
N  N97  1  0.96456199  0.41646598  0.71789180  1  -0.998329  0  -0.338123  -0.097095  0  3.490744  0
N  N98  1  0.96456021  0.08353015  0.21789341  1  -0.998153  0  -0.338148  -0.097104  0  3.49059  0
N  N99  1  0.03544670  0.58353545  0.28210664  1  -0.998399  0  -0.33806  -0.096985  0  3.490682  0
O  O100  1  0.34867211  0.01435970  0.94975880  1  -1.467392  0  -0.517618  -0.956859  0  2.398962  0
O  O101  1  0.65133805  0.51436307  0.55023939  1  -1.467182  0  -0.517563  -0.956809  0  2.399091  0
O  O102  1  0.65133436  0.98563685  0.05024110  1  -1.467194  0  -0.517577  -0.956851  0  2.399141  0
O  O103  1  0.34865326  0.48564081  0.44976229  1  -1.467459  0  -0.517661  -0.956923  0  2.399158  0
O  O104  1  0.06287675  0.86182142  0.94163236  1  -1.459013  0  -0.430175  -0.835297  0  2.214577  0
O  O105  1  0.93713410  0.36182447  0.55836595  1  -1.459385  0  -0.430223  -0.835296  0  2.214413  0
O  O106  1  0.93713169  0.13817270  0.05836707  1  -1.459359  0  -0.430217  -0.835252  0  2.214456  0
O  O107  1  0.06286688  0.63818022  0.44163388  1  -1.459061  0  -0.430196  -0.835284  0  2.214474  0
O  O108  1  0.91130219  0.05481797  0.91172146  1  -1.454783  0  -0.472308  -0.842076  0  2.268248  0
O  O109  1  0.08870874  0.55482124  0.58827873  1  -1.454973  0  -0.472215  -0.841884  0  2.268289  0
O  O110  1  0.08870233  0.94517615  0.08827891  1  -1.45492  0  -0.472254  -0.841891  0  2.268196  0
O  O111  1  0.91128845  0.44518345  0.41172154  1  -1.454915  0  -0.472239  -0.84202  0  2.268324  0
O  O112  1  0.68217840  0.77603391  0.56262842  1  -1.198  0  -0.37277  -0.644906  0  2.230006  0
O  O113  1  0.31782801  0.27602727  0.93737030  1  -1.197915  0  -0.372693  -0.644807  0  2.230209  0
O  O114  1  0.31781632  0.22397078  0.43737429  1  -1.197627  0  -0.372739  -0.644806  0  2.230107  0
O  O115  1  0.68216526  0.72396766  0.06263091  1  -1.197681  0  -0.372621  -0.644655  0  2.23084  0
O  O116  1  0.45659636  0.70104199  0.64274799  1  -1.188254  0  -0.351256  -0.599586  0  2.191635  0
O  O117  1  0.54343150  0.20103908  0.85725001  1  -1.188232  0  -0.351272  -0.599857  0  2.190945  0
O  O118  1  0.54340253  0.29896839  0.35725280  1  -1.188107  0  -0.35124  -0.599723  0  2.19106  0
O  O119  1  0.45654971  0.79895748  0.14274807  1  -1.187524  0  -0.351346  -0.599983  0  2.190306  0
O  O120  1  0.61331657  0.79281102  0.93262647  1  -1.243987  0  -0.631014  -0.835898  0  2.003279  0
O  O121  1  0.38668689  0.29281405  0.56737567  1  -1.244006  0  -0.630988  -0.835954  0  2.003248  0
O  O122  1  0.38669382  0.20718392  0.06737249  1  -1.243983  0  -0.630876  -0.835825  0  2.003427  0
O  O123  1  0.61331017  0.70718739  0.43262509  1  -1.243964  0  -0.630953  -0.83585  0  2.003334  0
O  O124  1  0.14049039  0.68635681  0.03040573  1  -1.236863  0  -0.632053  -0.847407  0  2.019838  0
O  O125  1  0.85950410  0.18635905  0.46959419  1  -1.236991  0  -0.632102  -0.847478  0  2.019744  0
O  O126  1  0.85950825  0.31364219  0.96959605  1  -1.236966  0  -0.632053  -0.847434  0  2.019803  0
O  O127  1  0.14049100  0.81364645  0.53040704  1  -1.236846  0  -0.632073  -0.847417  0  2.019873  0
