# generated using pymatgen
data_CuH5C8N3O4
_symmetry_space_group_name_H-M   'P 1'
_cell_length_a   6.20943478
_cell_length_b   7.63010480
_cell_length_c   9.83095507
_cell_angle_alpha   92.21782581
_cell_angle_beta   89.99956044
_cell_angle_gamma   89.99523836
_symmetry_Int_Tables_number   1
_chemical_formula_structural   CuH5C8N3O4
_chemical_formula_sum   'Cu2 H10 C16 N6 O8'
_cell_volume   465.42835858
_cell_formula_units_Z   2
loop_
 _symmetry_equiv_pos_site_id
 _symmetry_equiv_pos_as_xyz
  1  'x, y, z'
loop_
 _atom_site_type_symbol
 _atom_site_label
 _atom_site_symmetry_multiplicity
 _atom_site_fract_x
 _atom_site_fract_y
 _atom_site_fract_z
 _atom_site_occupancy
 _atom_site_hle17_ddec_charge
 _atom_site_hle17_ddec_spin_density
 _atom_site_hle17_ddec_sum_bond_order
 _atom_site_hle17_magmom
 _atom_site_hse06_10hf_ddec_charge
 _atom_site_hse06_10hf_ddec_spin_density
 _atom_site_hse06_10hf_ddec_sum_bond_order
 _atom_site_hse06_10hf_magmom
 _atom_site_hse06_ddec_charge
 _atom_site_hse06_ddec_spin_density
 _atom_site_hse06_ddec_sum_bond_order
 _atom_site_hse06_magmom
 _atom_site_pbe_cm5_charge
 _atom_site_pbe_ddec_charge
 _atom_site_pbe_ddec_spin_density
 _atom_site_pbe_ddec_sum_bond_order
 _atom_site_pbe_magmom
Cu  Cu0  1  0.50000687  0.99998796  0.00000268  1  0.919894  -0.630669  1.829429  -0.445  0.940888  -0.746959  2.224153  -0.584  1.034806  -0.82638  2.146792  -0.68  0.737564  0.88681  -0.69152  2.276508  -0.523
Cu  Cu1  1  0.99999643  0.99999653  0.00000415  1  0.919707  -0.630698  1.829908  -0.445  0.940494  -0.746946  2.224858  -0.584  1.034647  -0.826395  2.147198  -0.68  0.737437  0.886573  -0.691529  2.27699  -0.523
H  H2  1  0.75001638  0.82174554  0.57233971  1  0.103177  -5.5e-05  0.952094  0.0  0.110463  -0.000563  1.01869  0.0  0.113541  -0.0004  1.016891  0.0  0.105957  0.108122  -0.000476  1.020292  0.0
H  H3  1  0.24997378  0.17823459  0.42767805  1  0.103055  -5.5e-05  0.951965  0.0  0.110443  -0.000564  1.018506  0.0  0.113473  -0.000401  1.016763  0.0  0.105953  0.108105  -0.000476  1.020105  0.0
H  H4  1  0.74999146  0.62421303  0.36835743  1  0.086222  -7.6e-05  0.943307  0.0  0.095294  3.6e-05  1.003356  0.0  0.097218  4.7e-05  1.00335  0.0  0.100886  0.094167  -2.4e-05  1.00312  0.0
H  H5  1  0.24998903  0.37581058  0.63164360  1  0.08628  -7.6e-05  0.94338  0.0  0.095296  3.6e-05  1.003439  0.0  0.097202  4.7e-05  1.00343  0.0  0.100905  0.094171  -2.4e-05  1.003199  0.0
H  H6  1  0.74997481  0.29834883  0.39248019  1  0.095663  0.000241  0.964585  0.0  0.09953  -8.5e-05  1.033656  0.0  0.103038  -3.4e-05  1.032008  0.0  0.098914  0.096852  -0.000191  1.0355  0.0
H  H7  1  0.25000729  0.70167233  0.60750448  1  0.095594  0.000241  0.964788  0.0  0.099536  -8.5e-05  1.033785  0.0  0.103042  -3.4e-05  1.032138  0.0  0.098929  0.096856  -0.000191  1.035622  0.0
H  H8  1  0.74999271  0.17753374  0.62256704  1  0.103692  -0.000401  0.944578  0.0  0.112079  -0.00045  1.007926  0.0  0.115192  -0.000339  1.005632  0.0  0.106467  0.109733  -0.000452  1.009798  0.0
H  H9  1  0.24999584  0.82247437  0.37741106  1  0.103795  -0.000402  0.94431  0.0  0.112061  -0.00045  1.007792  0.0  0.115219  -0.000338  1.005454  0.0  0.106443  0.109715  -0.000452  1.00966  0.0
H  H10  1  0.75011691  0.37704388  0.05115658  1  0.42613  7e-05  0.778214  0.0  0.403393  3.6e-05  0.842034  0.0  0.413771  5e-05  0.830605  0.0  0.342177  0.395392  3e-06  0.851336  0.0
H  H11  1  0.24995860  0.62293387  0.94883872  1  0.426268  7e-05  0.778063  0.0  0.403495  3.6e-05  0.841929  0.0  0.413906  5e-05  0.830473  0.0  0.342253  0.39547  3e-06  0.851251  0.0
C  C12  1  0.75002222  0.61302295  0.71421577  1  -0.032565  -0.013274  3.67886  -0.015  -0.024239  -0.008596  3.911631  -0.011  -0.025338  -0.004984  3.929621  -0.007  -0.001852  -0.022948  -0.011913  3.89855  -0.013
C  C13  1  0.24998404  0.38698381  0.28576533  1  -0.032502  -0.01325  3.679238  -0.015  -0.024168  -0.008586  3.912039  -0.011  -0.02526  -0.004977  3.930012  -0.007  -0.001841  -0.022886  -0.011902  3.898976  -0.013
C  C14  1  0.75000766  0.68044500  0.58404283  1  -0.090989  -0.008638  3.726871  -0.007  -0.113683  -0.004103  3.979585  -0.004  -0.118342  -0.002854  4.000957  -0.003  -0.082318  -0.110425  -0.005344  3.96478  -0.005
C  C15  1  0.24997605  0.31957733  0.41595511  1  -0.090777  -0.008657  3.726025  -0.007  -0.113633  -0.004107  3.978807  -0.004  -0.118256  -0.002855  4.000201  -0.003  -0.082227  -0.11038  -0.005349  3.964018  -0.005
C  C16  1  0.74999351  0.56848886  0.46860550  1  -0.020019  0.005557  3.743599  0.004  -0.035674  0.001682  3.994144  0.001  -0.033953  0.002069  4.015295  0.001  -0.072504  -0.037092  0.001208  3.980442  0.001
C  C17  1  0.24998697  0.43153992  0.53140285  1  -0.020328  0.005574  3.743558  0.004  -0.035847  0.001685  3.994075  0.001  -0.034087  0.002071  4.015168  0.001  -0.072617  -0.037268  0.001211  3.980373  0.001
C  C18  1  0.74998649  0.38742892  0.48158920  1  -0.070769  -0.009127  3.764245  -0.008  -0.083975  -0.003755  4.01646  -0.003  -0.089168  -0.002592  4.039265  -0.003  -0.086727  -0.080549  -0.004546  4.002047  -0.004
C  C19  1  0.24999561  0.61259475  0.51840574  1  -0.07049  -0.009132  3.764521  -0.008  -0.083793  -0.003756  4.016624  -0.003  -0.088979  -0.002592  4.039425  -0.003  -0.086661  -0.080365  -0.004546  4.002207  -0.004
C  C20  1  0.74999345  0.31880799  0.61049880  1  -0.043881  0.001413  3.711284  0.001  -0.070814  0.000191  3.963653  0.0  -0.069106  0.001085  3.984284  0.001  -0.073105  -0.07191  -0.000551  3.949613  0.0
C  C21  1  0.24999027  0.68118816  0.38949310  1  -0.044352  0.001422  3.711391  0.001  -0.071205  0.000192  3.963799  0.0  -0.06954  0.001088  3.984421  0.001  -0.073285  -0.0723  -0.00055  3.949755  0.0
C  C22  1  0.74999128  0.42951750  0.72817235  1  -0.110995  -0.004867  3.749748  -0.004  -0.097182  -0.002968  3.982448  -0.003  -0.108596  -0.002183  4.006641  -0.002  -0.020959  -0.089291  -0.003407  3.965526  -0.003
C  C23  1  0.24999083  0.57048273  0.27180647  1  -0.110829  -0.004873  3.75021  -0.004  -0.096915  -0.002968  3.982631  -0.003  -0.108326  -0.002184  4.006848  -0.002  -0.020752  -0.089024  -0.003408  3.965716  -0.003
C  C24  1  0.74999856  0.74782050  0.83014252  1  0.693708  0.009735  3.826451  0.01  0.655825  0.001433  4.117981  0.003  0.697002  0.002352  4.108036  0.003  0.229187  0.628219  0.000272  4.123706  0.003
C  C25  1  0.24998354  0.25217271  0.16987877  1  0.693659  0.009722  3.827054  0.01  0.655674  0.001423  4.118704  0.003  0.696844  0.002346  4.108772  0.003  0.229034  0.628084  0.000264  4.124411  0.003
C  C26  1  0.75003308  0.34252908  0.85968820  1  0.674321  0.001984  3.778964  0.002  0.630036  0.001417  4.074066  0.001  0.667344  0.001191  4.06245  0.001  0.236952  0.60494  0.001344  4.081079  0.001
C  C27  1  0.24998445  0.65746449  0.14030055  1  0.674115  0.001985  3.77912  0.002  0.629955  0.001418  4.074014  0.001  0.667236  0.001194  4.062444  0.001  0.236838  0.604864  0.001344  4.081017  0.001
N  N28  1  0.75001413  0.93033597  0.11423892  1  -0.552887  -0.112871  2.885993  -0.139  -0.614383  -0.066999  3.281923  -0.09  -0.671988  -0.044115  3.296014  -0.069  -0.3746  -0.581058  -0.081054  3.275871  -0.1
N  N29  1  0.24999051  0.06965070  0.88578112  1  -0.553222  -0.113077  2.885597  -0.139  -0.614706  -0.067095  3.281539  -0.09  -0.67234  -0.04421  3.295644  -0.069  -0.374749  -0.58137  -0.081152  3.275484  -0.1
N  N30  1  0.75001830  0.96086358  0.23661923  1  0.414574  0.061453  4.101629  0.061  0.462456  0.016183  4.415298  0.018  0.48497  0.025193  4.448559  0.024  0.10271  0.448432  0.00776  4.393408  0.012
N  N31  1  0.25000084  0.03912987  0.76338071  1  0.414869  0.061348  4.101815  0.061  0.462712  0.01614  4.415444  0.018  0.485228  0.02514  4.448685  0.024  0.102791  0.448686  0.007725  4.393556  0.012
N  N32  1  0.75001994  0.98358472  0.35380291  1  -0.258195  -0.16968  2.33597  -0.187  -0.266742  -0.091292  2.556782  -0.104  -0.275592  -0.076841  2.56812  -0.094  -0.11034  -0.261522  -0.101211  2.549719  -0.111
N  N33  1  0.25001369  0.01642682  0.64622210  1  -0.258189  -0.169421  2.336855  -0.186  -0.266679  -0.091199  2.557609  -0.104  -0.275504  -0.07675  2.568925  -0.094  -0.110265  -0.261471  -0.101114  2.550545  -0.111
O  O34  1  0.56545151  0.80265418  0.86891063  1  -0.597932  -0.066099  2.080922  -0.088  -0.567829  -0.0488  2.351822  -0.072  -0.610441  -0.037236  2.342756  -0.06  -0.31097  -0.540669  -0.055791  2.358837  -0.078
O  O35  1  0.06545835  0.19736836  0.13107903  1  -0.597988  -0.066095  2.080883  -0.088  -0.567849  -0.048797  2.351892  -0.072  -0.610504  -0.037231  2.342818  -0.06  -0.31094  -0.5407  -0.05579  2.358857  -0.078
O  O36  1  0.43451771  0.19733513  0.13110848  1  -0.597854  -0.066106  2.080945  -0.088  -0.56774  -0.048798  2.351899  -0.072  -0.610322  -0.037232  2.342764  -0.06  -0.310898  -0.540548  -0.055793  2.358831  -0.078
O  O37  1  0.93454791  0.80263833  0.86890919  1  -0.597916  -0.066115  2.080775  -0.088  -0.567812  -0.048809  2.35171  -0.072  -0.610472  -0.037239  2.342647  -0.06  -0.310921  -0.540672  -0.055803  2.3587  -0.078
O  O38  1  0.74999802  0.18067497  0.86735882  1  -0.622736  0.000927  2.096698  -0.003  -0.601419  0.001771  2.364833  -0.001  -0.628991  0.002712  2.349468  0.0  -0.300692  -0.58374  0.001071  2.376066  -0.002
O  O39  1  0.25000020  0.81930282  0.13263241  1  -0.622511  0.000929  2.097078  -0.003  -0.60122  0.001772  2.365133  -0.001  -0.628778  0.002712  2.349773  0.0  -0.300519  -0.583552  0.001073  2.376372  -0.002
O  O40  1  0.75004229  0.45027770  0.97091348  1  -0.518379  0.000521  2.075631  0.0  -0.466003  0.000641  2.281246  0.0  -0.484818  0.000527  2.265454  0.0  -0.315776  -0.452687  0.00064  2.292072  0.0
O  O41  1  0.24999297  0.54968958  0.02907838  1  -0.51842  0.000521  2.074993  0.0  -0.46612  0.00064  2.280645  0.0  -0.484974  0.000526  2.264826  0.0  -0.315878  -0.452765  0.00064  2.291508  0.0
