# generated using pymatgen
data_Cu3P2H10C12(NO6)2
_symmetry_space_group_name_H-M   'P 1'
_cell_length_a   6.00525208
_cell_length_b   8.32857611
_cell_length_c   9.24806283
_cell_angle_alpha   83.51509388
_cell_angle_beta   72.95589403
_cell_angle_gamma   72.79387675
_symmetry_Int_Tables_number   1
_chemical_formula_structural   Cu3P2H10C12(NO6)2
_chemical_formula_sum   'Cu3 P2 H10 C12 N2 O12'
_cell_volume   422.26299146
_cell_formula_units_Z   1
loop_
 _symmetry_equiv_pos_site_id
 _symmetry_equiv_pos_as_xyz
  1  'x, y, z'
loop_
 _atom_site_type_symbol
 _atom_site_label
 _atom_site_symmetry_multiplicity
 _atom_site_fract_x
 _atom_site_fract_y
 _atom_site_fract_z
 _atom_site_occupancy
 _atom_site_hle17_ddec_charge
 _atom_site_hle17_ddec_spin_density
 _atom_site_hle17_ddec_sum_bond_order
 _atom_site_hle17_magmom
 _atom_site_hse06_10hf_ddec_charge
 _atom_site_hse06_10hf_ddec_spin_density
 _atom_site_hse06_10hf_ddec_sum_bond_order
 _atom_site_hse06_10hf_magmom
 _atom_site_hse06_ddec_charge
 _atom_site_hse06_ddec_spin_density
 _atom_site_hse06_ddec_sum_bond_order
 _atom_site_hse06_magmom
 _atom_site_pbe_cm5_charge
 _atom_site_pbe_ddec_charge
 _atom_site_pbe_ddec_spin_density
 _atom_site_pbe_ddec_sum_bond_order
 _atom_site_pbe_magmom
Cu  Cu0  1  0.50000480  0.99999951  0.99999843  1  1.094028  -0.73829  1.623458  -0.536  1.101864  -0.842571  1.999542  -0.678  1.181184  -0.918632  1.944719  -0.762  0.737417  1.049424  -0.766307  2.039544  -0.605
Cu  Cu1  1  0.60592595  0.42876171  0.13410406  1  1.045857  0.735387  1.709673  0.562  1.047002  0.827227  2.084171  0.687  1.1207  0.890111  2.034807  0.766  0.768557  0.988165  0.769634  2.131511  0.624
Cu  Cu2  1  0.39407471  0.57123535  0.86589521  1  1.045836  0.735383  1.709678  0.562  1.046974  0.827227  2.084193  0.687  1.120684  0.890112  2.034818  0.766  0.768552  0.988137  0.769632  2.131523  0.624
P  P3  1  0.14453701  0.33593517  0.15515150  1  1.442492  0.006099  4.860607  0.002  1.301251  0.009205  5.362873  0.006  1.3618  0.007048  5.318173  0.005  0.352167  1.258157  0.010835  5.390959  0.007
P  P4  1  0.85546418  0.66406063  0.84484995  1  1.442557  0.006097  4.860658  0.002  1.301314  0.009205  5.36292  0.006  1.361867  0.007047  5.318219  0.005  0.352224  1.258233  0.010835  5.391  0.007
H  H5  1  0.98354188  0.15214858  0.44361101  1  0.102718  0.000678  0.952808  0.001  0.114058  0.000674  1.01353  0.001  0.115623  0.000453  1.014444  0.001  0.11288  0.112392  0.000786  1.01405  0.001
H  H6  1  0.01646154  0.84784598  0.55638797  1  0.102728  0.000677  0.952755  0.001  0.114078  0.000674  1.013473  0.001  0.115644  0.000453  1.014382  0.001  0.112874  0.112409  0.000786  1.013993  0.001
H  H7  1  0.14130721  0.08965672  0.67361395  1  0.120904  0.000309  0.919062  0.001  0.133196  -3.6e-05  0.972044  0.0  0.135705  -4.7e-05  0.969973  0.0  0.119696  0.130825  -3e-06  0.974474  0.0
H  H8  1  0.85868918  0.91034661  0.32638874  1  0.120927  0.00031  0.919039  0.001  0.133183  -3.6e-05  0.972055  0.0  0.135696  -4.7e-05  0.969985  0.0  0.119695  0.130816  -3e-06  0.974489  0.0
H  H9  1  0.66820948  0.35744990  0.44912392  1  0.095747  0.001117  0.964243  0.002  0.099709  0.000955  1.034175  0.002  0.101926  0.000655  1.031792  0.001  0.12267  0.097531  0.001134  1.036509  0.002
H  H10  1  0.33179067  0.64254842  0.55087532  1  0.095837  0.001117  0.964101  0.002  0.099746  0.000955  1.034079  0.002  0.10196  0.000654  1.031699  0.001  0.122688  0.097565  0.001134  1.036411  0.002
H  H11  1  0.23532127  0.77893797  0.11073127  1  0.415994  1.6e-05  0.890081  0.0  0.388289  -1.7e-05  0.952014  0.0  0.399777  -1e-06  0.934805  0.0  0.284655  0.380092  -3.5e-05  0.96428  0.0
H  H12  1  0.76468052  0.22106917  0.88926676  1  0.416105  1.6e-05  0.889956  0.0  0.388416  -1.7e-05  0.951854  0.0  0.399902  -0.0  0.934648  0.0  0.284694  0.380214  -3.5e-05  0.964124  0.0
H  H13  1  0.05479496  0.84168935  0.00268658  1  0.439669  -4.3e-05  0.84957  0.0  0.419633  -4.4e-05  0.895526  0.0  0.430705  -2.1e-05  0.879274  0.0  0.295795  0.411424  -6.1e-05  0.907595  0.0
H  H14  1  0.94521039  0.15830899  0.99730949  1  0.439684  -4.3e-05  0.84956  0.0  0.419644  -4.4e-05  0.895523  0.0  0.430716  -2.1e-05  0.879271  0.0  0.295793  0.411434  -6.1e-05  0.907593  0.0
C  C15  1  0.24599969  0.28436569  0.32642464  1  -0.031701  0.003932  3.683282  0.004  -0.009007  0.005304  3.928987  0.005  -0.006472  0.002372  3.946378  0.002  0.114256  -0.01125  0.007561  3.918294  0.007
C  C16  1  0.75400046  0.71563263  0.67357567  1  -0.031727  0.003915  3.683214  0.004  -0.009089  0.005303  3.928998  0.005  -0.006561  0.002372  3.9464  0.002  0.114205  -0.01133  0.007561  3.918304  0.007
C  C17  1  0.13479118  0.19531033  0.44931963  1  -0.068913  0.010027  3.706324  0.011  -0.09127  0.004214  3.955277  0.005  -0.097575  0.003637  3.975867  0.004  -0.06871  -0.088305  0.004968  3.944624  0.006
C  C18  1  0.86520549  0.80468797  0.55068136  1  -0.068962  0.010047  3.706308  0.011  -0.091286  0.004213  3.955228  0.005  -0.09759  0.003637  3.975823  0.004  -0.068703  -0.088318  0.004968  3.944574  0.006
C  C19  1  0.22153602  0.16065900  0.57628161  1  0.013836  -0.00858  3.632402  -0.008  -0.016514  -0.002864  3.88018  -0.003  -0.008719  -0.002973  3.894752  -0.003  -0.051011  -0.023005  -0.002734  3.872921  -0.002
C  C20  1  0.77846190  0.83934056  0.42372010  1  0.013912  -0.008601  3.632383  -0.008  -0.016391  -0.002864  3.880173  -0.003  -0.0086  -0.002973  3.894748  -0.003  -0.050982  -0.022885  -0.002734  3.872923  -0.002
C  C21  1  0.41506163  0.21989864  0.57945497  1  -0.085836  0.002248  3.699059  0.003  -0.06026  -0.000303  3.929523  0.0  -0.073618  0.000472  3.951615  0.001  -0.002129  -0.051747  -0.000425  3.91509  0.0
C  C22  1  0.58493179  0.78010343  0.42054843  1  -0.085903  0.002266  3.69911  0.003  -0.060405  -0.000303  3.929686  0.0  -0.073765  0.000473  3.951779  0.001  -0.002171  -0.0519  -0.000426  3.91526  0.0
C  C23  1  0.51801691  0.30805624  0.45279527  1  0.123097  -0.006264  3.645792  -0.007  0.085586  -0.001224  3.905387  -0.002  0.09679  -0.002309  3.921561  -0.003  0.057881  0.079054  -0.000472  3.894164  -0.001
C  C24  1  0.48197925  0.69194332  0.54720461  1  0.123047  -0.006282  3.645902  -0.007  0.085615  -0.001224  3.905541  -0.002  0.096819  -0.002308  3.921716  -0.003  0.057879  0.079085  -0.000471  3.894309  -0.001
C  C25  1  0.51576943  0.18473579  0.71458477  1  0.651147  0.003118  3.904361  0.006  0.606542  -0.000464  4.210915  0.002  0.64542  -0.000233  4.201956  0.001  0.211127  0.57991  -0.000568  4.215431  0.002
C  C26  1  0.48422317  0.81527257  0.28541599  1  0.651169  0.003118  3.904341  0.006  0.606579  -0.000463  4.210928  0.002  0.645461  -0.000233  4.201961  0.001  0.211157  0.579955  -0.000568  4.215454  0.002
N  N27  1  0.43808211  0.33571543  0.32852991  1  -0.277609  0.090371  3.351257  0.118  -0.247995  0.05936  3.65118  0.082  -0.278658  0.046084  3.672843  0.067  -0.332797  -0.227638  0.065787  3.63692  0.088
N  N28  1  0.56191905  0.66428038  0.67146830  1  -0.277588  0.090387  3.351323  0.118  -0.247978  0.059362  3.651273  0.082  -0.278644  0.046085  3.672936  0.067  -0.332762  -0.227621  0.065789  3.637006  0.088
O  O29  1  0.18206648  0.17082732  0.08195197  1  -0.819997  -0.051413  2.064949  -0.067  -0.767757  -0.037441  2.345955  -0.052  -0.807198  -0.03018  2.324507  -0.044  -0.364893  -0.738524  -0.041008  2.35976  -0.055
O  O30  1  0.81793522  0.82916722  0.91805059  1  -0.819998  -0.051407  2.064913  -0.067  -0.76775  -0.037438  2.345919  -0.052  -0.807189  -0.030179  2.32447  -0.044  -0.364905  -0.738515  -0.041003  2.359727  -0.055
O  O31  1  0.31251265  0.44491533  0.06469954  1  -0.829925  0.097835  2.200273  0.134  -0.786135  0.068969  2.527314  0.099  -0.832361  0.053976  2.506041  0.08  -0.388273  -0.752425  0.078446  2.541239  0.109
O  O32  1  0.68748681  0.55508046  0.93530441  1  -0.83001  0.097837  2.20032  0.134  -0.786198  0.06897  2.527393  0.099  -0.832425  0.053977  2.50611  0.08  -0.388275  -0.752489  0.078444  2.541328  0.109
O  O33  1  0.87866723  0.43858610  0.20260918  1  -0.789941  0.064351  2.015176  0.089  -0.753518  0.037393  2.314535  0.054  -0.794787  0.027967  2.294471  0.042  -0.37531  -0.720888  0.044329  2.326693  0.062
O  O34  1  0.12133376  0.56140592  0.79739378  1  -0.789969  0.064351  2.015264  0.089  -0.753554  0.037393  2.314645  0.054  -0.794813  0.027966  2.294551  0.042  -0.375357  -0.720929  0.044331  2.326805  0.062
O  O35  1  0.65171611  0.26770901  0.72959828  1  -0.622438  0.00131  1.983227  0.002  -0.589522  -0.000101  2.229651  0.001  -0.614925  7.4e-05  2.21716  0.001  -0.307408  -0.57105  -0.000212  2.237786  0.0
O  O36  1  0.34827372  0.73230186  0.27040275  1  -0.62248  0.001311  1.983307  0.002  -0.589534  -0.000101  2.229706  0.001  -0.614924  7.5e-05  2.217189  0.001  -0.307439  -0.571062  -0.000212  2.237846  0.0
O  O37  1  0.45021292  0.06615449  0.80164526  1  -0.598903  -0.080748  2.107869  -0.107  -0.580409  -0.048872  2.396916  -0.071  -0.623733  -0.037153  2.391025  -0.056  -0.321574  -0.548421  -0.055269  2.399812  -0.078
O  O38  1  0.54979113  0.93385140  0.19835355  1  -0.598879  -0.080751  2.10783  -0.107  -0.580415  -0.048875  2.396916  -0.071  -0.623746  -0.037156  2.391028  -0.056  -0.321555  -0.54842  -0.055266  2.399806  -0.078
O  O39  1  0.22523299  0.81140441  0.00542651  1  -0.873189  -0.000604  1.918412  0.0  -0.84377  -0.000652  2.11654  -0.001  -0.860967  -0.000617  2.075709  -0.001  -0.596285  -0.828976  0.000458  2.145815  0.001
O  O40  1  0.77477134  0.18859645  0.99456842  1  -0.873324  -0.000605  1.918352  0.0  -0.84392  -0.000652  2.116499  -0.001  -0.861108  -0.000618  2.07566  -0.001  -0.596318  -0.829125  0.000457  2.14578  0.001
