# generated using pymatgen
data_Ni3H20C20(N7O6)2
_symmetry_space_group_name_H-M   'P 1'
_cell_length_a   7.29993736
_cell_length_b   9.76707147
_cell_length_c   11.77121274
_cell_angle_alpha   66.68807677
_cell_angle_beta   80.98002012
_cell_angle_gamma   74.11137038
_symmetry_Int_Tables_number   1
_chemical_formula_structural   Ni3H20C20(N7O6)2
_chemical_formula_sum   'Ni3 H20 C20 N14 O12'
_cell_volume   740.19877721
_cell_formula_units_Z   1
loop_
 _symmetry_equiv_pos_site_id
 _symmetry_equiv_pos_as_xyz
  1  'x, y, z'
loop_
 _atom_site_type_symbol
 _atom_site_label
 _atom_site_symmetry_multiplicity
 _atom_site_fract_x
 _atom_site_fract_y
 _atom_site_fract_z
 _atom_site_occupancy
 _atom_site_hle17_ddec_charge
 _atom_site_hle17_ddec_spin_density
 _atom_site_hle17_ddec_sum_bond_order
 _atom_site_hle17_magmom
 _atom_site_hse06_10hf_ddec_charge
 _atom_site_hse06_10hf_ddec_spin_density
 _atom_site_hse06_10hf_ddec_sum_bond_order
 _atom_site_hse06_10hf_magmom
 _atom_site_hse06_ddec_charge
 _atom_site_hse06_ddec_spin_density
 _atom_site_hse06_ddec_sum_bond_order
 _atom_site_hse06_magmom
 _atom_site_pbe_cm5_charge
 _atom_site_pbe_ddec_charge
 _atom_site_pbe_ddec_spin_density
 _atom_site_pbe_ddec_sum_bond_order
 _atom_site_pbe_magmom
Ni  Ni0  1  0.44574592  0.50771332  0.37721197  1  0.833275  1.788089  2.157551  1.52  0.822713  1.826646  2.563359  1.626  0.90732  1.881949  2.490594  1.706  0.67683  0.760554  1.774973  2.617623  1.555
Ni  Ni1  1  0.55422123  0.49227514  0.62295753  1  0.831972  -1.838159  2.157135  -1.516  0.821717  -1.858986  2.563118  -1.624  0.906868  -1.924543  2.490009  -1.706  0.675836  0.75863  -1.79312  2.61802  -1.549
Ni  Ni2  1  0.50017041  0.49999091  0.99973867  1  0.854278  1.781355  1.935944  1.526  0.840732  1.838773  2.33957  1.648  0.934158  1.897011  2.263047  1.731  0.637133  0.768882  1.780907  2.397845  1.572
H  H3  1  0.84360830  0.29814501  0.09096799  1  0.422516  0.000203  0.872914  0.0  0.392054  0.000516  0.939859  0.0  0.403492  0.000314  0.923651  0.0  0.291972  0.3839  0.000719  0.951328  0.001
H  H4  1  0.15644175  0.70188499  0.90893846  1  0.422572  0.000198  0.87306  0.0  0.392236  0.000518  0.939708  0.0  0.403686  0.000315  0.923471  0.0  0.291949  0.384041  0.000721  0.951245  0.001
H  H5  1  0.68509900  0.20637702  0.12135676  1  0.421907  -5.7e-05  0.820707  -0.001  0.408211  0.000419  0.874236  0.0  0.416982  0.000201  0.865091  0.0  0.322306  0.40207  0.000645  0.880343  0.0
H  H6  1  0.31478842  0.79381633  0.87856187  1  0.422457  -0.000105  0.820708  -0.001  0.408736  0.000349  0.874222  0.0  0.417552  0.000157  0.864995  0.0  0.322312  0.402529  0.000537  0.88043  0.0
H  H7  1  0.22567961  0.46567858  0.24389343  1  0.420659  0.000355  0.886431  0.0  0.391539  0.000584  0.948985  0.0  0.403072  0.00034  0.932417  0.0  0.293312  0.383449  0.000796  0.960568  0.001
H  H8  1  0.77447108  0.53438388  0.75618698  1  0.421058  -0.000301  0.886048  0.0  0.391815  -0.000501  0.948778  0.0  0.40342  -0.000366  0.932092  0.0  0.293432  0.383587  -0.000589  0.960584  -0.001
H  H9  1  0.10042309  0.56778793  0.32584126  1  0.414278  3.2e-05  0.897163  0.0  0.385297  0.000331  0.959909  0.0  0.395411  0.000179  0.945539  0.0  0.293444  0.377901  0.000473  0.970497  0.0
H  H10  1  0.89958565  0.43229634  0.67413146  1  0.414275  -9.9e-05  0.897248  0.0  0.385286  -0.000364  0.960008  0.0  0.39541  -0.000212  0.945638  0.0  0.293396  0.377877  -0.000501  0.970592  0.0
H  H11  1  0.11398074  0.09175405  0.23559035  1  0.30989  0.000118  0.934292  0.0  0.290224  0.000134  0.995428  0.0  0.298255  9.8e-05  0.989349  0.0  0.312439  0.284653  0.000147  0.999674  0.0
H  H12  1  0.88611649  0.90825528  0.76441925  1  0.309782  -0.000171  0.934297  0.0  0.290221  -0.000108  0.995352  0.0  0.29825  -8.9e-05  0.989278  0.0  0.312445  0.284664  -0.000105  0.999573  0.0
H  H13  1  0.12866813  0.23827803  0.51244114  1  0.360383  0.000112  0.892991  0.0  0.337948  0.000109  0.95925  0.0  0.347017  7e-05  0.951332  0.0  0.303772  0.33153  0.000112  0.964931  0.0
H  H14  1  0.87130050  0.76177460  0.48755353  1  0.360535  -7e-05  0.892768  0.0  0.338025  -8.2e-05  0.95914  0.0  0.347096  -5.5e-05  0.951226  0.0  0.303868  0.331599  -7.1e-05  0.964805  0.0
H  H15  1  0.08528352  0.24182431  0.36847870  1  0.332835  5.7e-05  0.880854  0.0  0.315923  0.000137  0.941779  0.0  0.323643  9.5e-05  0.935341  0.0  0.308867  0.310313  0.000157  0.946641  0.0
H  H16  1  0.91471210  0.75817690  0.63152580  1  0.332898  -8.5e-05  0.88093  0.0  0.316033  -0.000132  0.941812  0.0  0.323764  -9.3e-05  0.935339  0.0  0.308872  0.310398  -0.000141  0.946715  0.0
H  H17  1  0.97499754  0.72949900  0.09591514  1  0.130127  0.000495  0.961198  0.001  0.139421  0.000418  1.023632  0.001  0.143279  0.000287  1.020214  0.0  0.108621  0.13652  0.000553  1.026302  0.001
H  H18  1  0.02502642  0.27032164  0.90418704  1  0.130272  3.6e-05  0.96073  0.0  0.139542  2.6e-05  1.023268  0.0  0.143393  1.2e-05  1.019863  0.0  0.108825  0.136653  4.2e-05  1.025871  0.0
H  H19  1  0.20251641  0.84561241  0.18591001  1  0.094012  0.000176  0.909808  0.001  0.107626  0.000182  0.964312  0.0  0.109688  0.000125  0.960547  0.0  0.145218  0.105839  0.000253  0.96739  0.0
H  H20  1  0.79754276  0.15434563  0.81414898  1  0.093965  -0.000178  0.909871  -0.001  0.107521  -0.000134  0.964443  0.0  0.10961  -0.000105  0.960638  0.0  0.14509  0.105703  -0.000165  0.967575  0.0
H  H21  1  0.46745041  0.75365233  0.71411602  1  0.056328  -0.000426  0.957413  -0.001  0.06031  -0.000407  1.03157  -0.001  0.062132  -0.000316  1.027394  0.0  0.119321  0.058734  -0.000476  1.034924  -0.001
H  H22  1  0.53253899  0.24639226  0.28592423  1  0.056771  2e-05  0.956931  0.001  0.060631  5.8e-05  1.031162  0.001  0.0625  2e-06  1.026937  0.0  0.119429  0.058987  0.000108  1.034562  0.001
C  C23  1  0.77669609  0.61970538  0.35378351  1  0.646606  -0.003601  3.87828  -0.006  0.600328  -0.001936  4.173935  -0.004  0.639315  -0.001632  4.161842  -0.003  0.220632  0.572919  -0.002126  4.181736  -0.004
C  C24  1  0.22323511  0.38025711  0.64622218  1  0.646321  0.003994  3.879422  0.007  0.600432  0.002408  4.174286  0.005  0.639468  0.001993  4.162113  0.004  0.220641  0.572949  0.002668  4.182255  0.006
C  C25  1  0.74889221  0.62948214  0.22921646  1  -0.000625  -0.006336  3.797677  -0.006  8.5e-05  -0.002581  4.061978  -0.002  -0.001899  -0.003136  4.079572  -0.003  0.062712  0.000808  -0.002214  4.050885  -0.001
C  C26  1  0.25100118  0.37039963  0.77075728  1  -0.001296  0.00794  3.797909  0.011  -0.000574  0.004307  4.062017  0.006  -0.002776  0.003759  4.079694  0.005  0.062749  0.000392  0.004914  4.05084  0.007
C  C27  1  0.85233403  0.67977546  0.11632686  1  -0.178848  0.001019  3.722349  0.001  -0.2161  0.000252  3.979145  0.0  -0.216566  0.000426  3.995093  0.0  -0.107352  -0.215649  0.000295  3.968725  0.0
C  C28  1  0.14761797  0.32014605  0.88365614  1  -0.17805  -0.0019  3.721721  -0.002  -0.215394  -0.000417  3.978436  0.0  -0.215813  -0.000556  3.994455  0.0  -0.107063  -0.214891  -0.000325  3.967837  0.0
C  C29  1  0.76534286  0.64500300  0.03662813  1  -0.020956  -0.00209  3.837415  0.0  -0.018724  2.1e-05  4.101878  0.002  -0.022498  -0.001118  4.124425  0.0  0.051449  -0.016381  0.000945  4.086717  0.003
C  C30  1  0.23455229  0.35512033  0.96329897  1  -0.02163  -0.000535  3.836888  -0.001  -0.019251  -0.000806  4.101049  -0.001  -0.023268  -0.00082  4.123727  -0.001  0.051918  -0.016564  -0.000762  4.085701  -0.001
C  C31  1  0.81017705  0.65568477  0.90843186  1  0.636144  -0.003687  3.908625  -0.005  0.584391  -0.000751  4.212736  -0.002  0.621116  -0.000528  4.203753  -0.001  0.211164  0.558611  -0.000942  4.218499  -0.002
C  C32  1  0.18995964  0.34429071  0.09155682  1  0.635325  -0.002565  3.909244  -0.005  0.58371  -0.000227  4.213151  -0.002  0.620396  -0.000293  4.204259  -0.001  0.210556  0.557954  -0.00027  4.218874  -0.002
C  C33  1  0.23320768  0.85273292  0.27035215  1  0.276592  -0.005637  3.640739  -0.006  0.214712  -0.001919  3.923866  -0.002  0.234234  -0.00212  3.932437  -0.003  0.171127  0.201772  -0.001731  3.918097  -0.002
C  C34  1  0.76681569  0.14724656  0.72969660  1  0.276737  0.005449  3.641105  0.006  0.215099  0.001882  3.924323  0.002  0.234649  0.002065  3.932871  0.003  0.171437  0.202107  0.00172  3.918574  0.002
C  C35  1  0.24375863  0.94933589  0.40864380  1  -0.051941  -0.002144  3.761816  -0.003  -0.053533  -0.000937  4.002353  -0.001  -0.06033  -0.000788  4.022888  -0.001  0.084325  -0.048945  -0.001105  3.988772  -0.002
C  C36  1  0.75624928  0.05066646  0.59138969  1  -0.051727  0.002099  3.761325  0.003  -0.05347  0.000895  4.002197  0.001  -0.060235  0.000746  4.022693  0.001  0.084307  -0.048891  0.001077  3.988624  0.002
C  C37  1  0.22502920  0.03334505  0.48581583  1  0.455009  0.003343  3.878584  0.004  0.419726  0.001524  4.155819  0.002  0.442279  0.001331  4.166462  0.002  0.238696  0.404425  0.001797  4.148292  0.002
C  C38  1  0.77497437  0.96667571  0.51420359  1  0.455425  -0.00345  3.878106  -0.004  0.419945  -0.001555  4.155663  -0.002  0.442481  -0.001368  4.166313  -0.002  0.238759  0.404652  -0.001812  4.148146  -0.002
C  C39  1  0.39703731  0.80959620  0.62654010  1  0.296655  0.006699  3.777836  0.008  0.247877  0.002296  4.07291  0.003  0.268289  0.002398  4.082667  0.004  0.158117  0.233999  0.002248  4.066464  0.003
C  C40  1  0.60295741  0.19042662  0.37350162  1  0.296478  -0.00704  3.777637  -0.008  0.247819  -0.002466  4.072745  -0.004  0.268174  -0.00257  4.082506  -0.004  0.158175  0.234043  -0.002403  4.066286  -0.003
C  C41  1  0.33526403  0.79357083  0.45049880  1  0.33948  -0.000206  3.792232  0.001  0.319473  -0.000454  4.051241  0.0  0.336734  -0.000342  4.068926  0.0  0.215004  0.307558  -0.000524  4.03958  0.0
C  C42  1  0.66469443  0.20642150  0.54957260  1  0.339203  0.000102  3.791561  -0.001  0.319662  0.0004  4.050275  0.0  0.336924  0.000284  4.067942  0.0  0.215176  0.307738  0.000494  4.038627  0.0
N  N43  1  0.60704658  0.57063348  0.21609651  1  -0.196856  0.059554  3.24563  0.09  -0.183245  0.040448  3.566636  0.061  -0.201487  0.032405  3.588521  0.05  -0.233516  -0.170041  0.047317  3.551845  0.07
N  N44  1  0.39269209  0.42939639  0.78396581  1  -0.19485  -0.060508  3.252753  -0.09  -0.181606  -0.038778  3.574041  -0.059  -0.200077  -0.031789  3.595979  -0.049  -0.232297  -0.167942  -0.044525  3.559259  -0.066
N  N45  1  0.61642086  0.58015230  0.09938598  1  -0.21414  0.051299  3.246603  0.076  -0.191608  0.033698  3.564431  0.05  -0.213585  0.027501  3.588686  0.042  -0.243821  -0.175943  0.038048  3.547915  0.055
N  N46  1  0.38331986  0.42003668  0.90036855  1  -0.213037  0.050293  3.25665  0.077  -0.190616  0.030536  3.574658  0.047  -0.212626  0.025205  3.598832  0.04  -0.243541  -0.174817  0.034234  3.558321  0.052
N  N47  1  0.32616331  0.73499885  0.36257202  1  -0.417464  0.043825  3.190387  0.066  -0.38407  0.031777  3.488404  0.048  -0.413986  0.026173  3.502621  0.041  -0.339468  -0.363655  0.036267  3.479411  0.053
N  N48  1  0.67380090  0.26497967  0.63751776  1  -0.417308  -0.045172  3.189815  -0.066  -0.384271  -0.032415  3.487961  -0.048  -0.414277  -0.026848  3.502237  -0.041  -0.339524  -0.3637  -0.036707  3.478912  -0.053
N  N49  1  0.18054080  0.98360432  0.29374779  1  -0.300827  0.000305  3.420143  0.001  -0.24169  0.00025  3.653959  0.001  -0.257205  0.000154  3.667145  0.0  -0.373127  -0.23133  0.00037  3.644791  0.001
N  N50  1  0.81950824  0.01639054  0.70627896  1  -0.300885  -0.000393  3.420089  -0.001  -0.241934  -0.000249  3.654164  -0.001  -0.257477  -0.00017  3.667346  0.0  -0.373193  -0.231562  -0.000347  3.644982  -0.001
N  N51  1  0.13150634  0.18011467  0.45538042  1  -0.622117  0.002655  3.101055  0.004  -0.583602  0.001459  3.339824  0.002  -0.605987  0.001251  3.336803  0.002  -0.553884  -0.568091  0.00163  3.342022  0.002
N  N52  1  0.86850442  0.81990050  0.54462567  1  -0.622623  -0.002591  3.10096  -0.003  -0.584015  -0.00139  3.339726  -0.002  -0.606397  -0.001223  3.33669  -0.002  -0.554087  -0.568509  -0.001505  3.341958  -0.002
N  N53  1  0.30569193  0.95664324  0.59716986  1  -0.472667  -0.006582  2.98795  -0.009  -0.445515  -0.002615  3.272265  -0.004  -0.464744  -0.001873  3.280694  -0.003  -0.353405  -0.432719  -0.003337  3.266662  -0.005
N  N54  1  0.69431477  0.04338554  0.40286023  1  -0.472847  0.006484  2.988092  0.01  -0.445632  0.002663  3.272499  0.004  -0.46486  0.001897  3.280965  0.003  -0.35354  -0.432876  0.003486  3.26685  0.005
N  N55  1  0.41667756  0.72015763  0.56147040  1  -0.406786  -0.058197  3.25477  -0.086  -0.376101  -0.037848  3.553579  -0.056  -0.40924  -0.030736  3.569652  -0.047  -0.344783  -0.353234  -0.043397  3.542929  -0.063
N  N56  1  0.58328306  0.27982781  0.43860728  1  -0.406632  0.056587  3.25467  0.086  -0.376239  0.037127  3.553552  0.056  -0.409314  0.029954  3.569628  0.047  -0.344882  -0.353487  0.042936  3.542864  0.064
O  O57  1  0.66973050  0.54394301  0.44038583  1  -0.577921  0.022342  2.259686  0.037  -0.550368  0.011973  2.551546  0.022  -0.596799  0.008483  2.543904  0.016  -0.300455  -0.514988  0.015054  2.555434  0.026
O  O58  1  0.33034933  0.45592559  0.55968752  1  -0.577931  -0.02386  2.260386  -0.038  -0.55027  -0.012808  2.552078  -0.022  -0.596657  -0.009333  2.544418  -0.017  -0.300382  -0.514944  -0.015641  2.555984  -0.026
O  O59  1  0.73224652  0.28982003  0.05592582  1  -0.786725  0.035186  1.889246  0.055  -0.762595  0.027855  2.081314  0.043  -0.791128  0.021309  2.052134  0.034  -0.558609  -0.740473  0.034114  2.1013  0.052
O  O60  1  0.26794270  0.71013057  0.94389924  1  -0.787559  0.03519  1.889591  0.055  -0.763586  0.027874  2.081247  0.043  -0.792111  0.021325  2.051994  0.034  -0.558778  -0.741471  0.034125  2.101405  0.052
O  O61  1  0.90155059  0.67679514  0.36944918  1  -0.590114  0.005529  1.974628  0.009  -0.540978  0.003135  2.191636  0.005  -0.563317  0.001877  2.179149  0.003  -0.303463  -0.524987  0.004658  2.199926  0.007
O  O62  1  0.09823972  0.32337896  0.63040977  1  -0.590695  -0.004165  1.974509  -0.006  -0.5414  -0.00277  2.191309  -0.004  -0.563667  -0.001878  2.178792  -0.003  -0.304119  -0.525682  -0.003641  2.199814  -0.005
O  O63  1  0.21268059  0.48441109  0.32222451  1  -0.802842  0.040316  2.027162  0.064  -0.776942  0.029705  2.251964  0.047  -0.8059  0.023681  2.216922  0.038  -0.579687  -0.755113  0.034895  2.277079  0.054
O  O64  1  0.78721587  0.51551802  0.67792209  1  -0.803461  -0.040697  2.026736  -0.062  -0.777409  -0.029912  2.251901  -0.046  -0.806529  -0.024187  2.216792  -0.038  -0.58014  -0.755347  -0.034554  2.277223  -0.052
O  O65  1  0.69881407  0.60616209  0.86612358  1  -0.60593  0.049563  2.079662  0.081  -0.562961  0.032795  2.342207  0.054  -0.601915  0.0251  2.331414  0.043  -0.30103  -0.534064  0.039338  2.349143  0.064
O  O66  1  0.30148746  0.39362477  0.13385498  1  -0.605691  0.050642  2.077457  0.082  -0.562914  0.033509  2.339917  0.056  -0.601665  0.025543  2.329093  0.043  -0.301188  -0.534198  0.040661  2.34676  0.066
O  O67  1  0.94973643  0.70972229  0.84404701  1  -0.626877  0.004899  1.965392  0.008  -0.570184  0.002828  2.180319  0.004  -0.592827  0.001442  2.168092  0.002  -0.315154  -0.55419  0.00438  2.188638  0.007
O  O68  1  0.05036021  0.29022976  0.15593120  1  -0.627162  0.004441  1.964795  0.007  -0.570227  0.002729  2.179543  0.004  -0.592897  0.001625  2.167395  0.003  -0.315146  -0.554259  0.004227  2.187782  0.006
