# generated using pymatgen
data_AlH11(C8O3)2
_symmetry_space_group_name_H-M   'P 1'
_cell_length_a   6.69900965
_cell_length_b   19.16704571
_cell_length_c   21.84369696
_cell_angle_alpha   99.47509167
_cell_angle_beta   89.99730721
_cell_angle_gamma   89.99998988
_symmetry_Int_Tables_number   1
_chemical_formula_structural   AlH11(C8O3)2
_chemical_formula_sum   'Al4 H44 C64 O24'
_cell_volume   2766.47130468
_cell_formula_units_Z   4
loop_
 _symmetry_equiv_pos_site_id
 _symmetry_equiv_pos_as_xyz
  1  'x, y, z'
loop_
 _atom_site_type_symbol
 _atom_site_label
 _atom_site_symmetry_multiplicity
 _atom_site_fract_x
 _atom_site_fract_y
 _atom_site_fract_z
 _atom_site_occupancy
 _atom_site_pbe_bader_charge
 _atom_site_pbe_bader_spin_density
 _atom_site_pbe_cm5_charge
 _atom_site_pbe_ddec_charge
 _atom_site_pbe_ddec_spin_density
 _atom_site_pbe_ddec_sum_bond_order
 _atom_site_pbe_magmom
Al  Al0  1  0.10325596  0.50223179  0.50146302  1  2.502801  0  0.401542  1.641857  0  2.574589  0
Al  Al1  1  0.60325992  0.49777820  0.49852900  1  2.502567  0  0.401423  1.642098  0  2.574642  0
Al  Al2  1  0.66891199  0.99885831  0.99750691  1  2.501933  0  0.40277  1.640815  0  2.577442  0
Al  Al3  1  0.16890838  0.00114851  0.00250163  1  2.502068  0  0.402826  1.640886  0  2.577365  0
H  H4  1  0.10438412  0.76837798  0.95345226  1  0.085673  0  0.112332  0.118929  0  0.979872  0
H  H5  1  0.60430074  0.23163235  0.04653881  1  0.085769  0  0.112275  0.118792  0  0.980082  0
H  H6  1  0.14869579  0.65626401  0.87885438  1  0.079533  0  0.105476  0.105155  0  0.990847  0
H  H7  1  0.64864994  0.34373785  0.12113594  1  0.07895  0  0.105422  0.105187  0  0.991015  0
H  H8  1  0.78909576  0.85946399  0.81476433  1  0.052329  0  0.104548  0.105155  0  1.015451  0
H  H9  1  0.28914970  0.14053909  0.18524914  1  0.045678  0  0.104505  0.105201  0  1.015347  0
H  H10  1  0.68926324  0.73174781  0.54370931  1  0.082899  0  0.110987  0.113924  0  0.979828  0
H  H11  1  0.18944824  0.26824475  0.45631232  1  0.08175  0  0.111152  0.114164  0  0.979837  0
H  H12  1  0.64526076  0.84654121  0.61536762  1  0.044441  0  0.105699  0.103287  0  0.987379  0
H  H13  1  0.14537651  0.15345974  0.38465430  1  0.044528  0  0.105763  0.103244  0  0.987503  0
H  H14  1  0.01071341  0.57836279  0.66601524  1  0.082242  0  0.105005  0.111631  0  1.014727  0
H  H15  1  0.51071691  0.42163440  0.33398668  1  0.082081  0  0.105028  0.111613  0  1.014727  0
H  H16  1  0.84235263  0.37910645  0.78737494  1  0.043997  0  0.106144  0.114859  0  0.961819  0
H  H17  1  0.34234886  0.62088762  0.21262927  1  0.043926  0  0.106169  0.11494  0  0.96179  0
H  H18  1  0.87115674  0.30485245  0.86005881  1  0.094092  0  0.116407  0.109215  0  0.939017  0
H  H19  1  0.37122493  0.69513684  0.13994490  1  0.094136  0  0.116403  0.109197  0  0.939045  0
H  H20  1  0.21336617  0.18698072  0.76219948  1  0.035034  0  0.092243  0.090283  0  0.997144  0
H  H21  1  0.71337929  0.81300903  0.23779854  1  0.035139  0  0.092248  0.090319  0  0.997208  0
H  H22  1  0.18466467  0.33096747  0.73881866  1  0.019032  0  0.096156  0.097788  0  0.975703  0
H  H23  1  0.68467976  0.66902166  0.26117892  1  0.019305  0  0.096256  0.097903  0  0.975465  0
H  H24  1  0.18288619  0.25356546  0.68219372  1  0.035831  0  0.098472  0.102106  0  0.976915  0
H  H25  1  0.68287861  0.74642498  0.31780528  1  0.035573  0  0.098444  0.102043  0  0.976932  0
H  H26  1  0.66431321  0.15033537  0.74377780  1  0.054942  0  0.107831  0.088709  0  0.972332  0
H  H27  1  0.16431327  0.84966139  0.25621873  1  0.054926  0  0.107855  0.088773  0  0.972313  0
H  H28  1  0.62923178  0.23107018  0.67508172  1  0.041889  0  0.098412  0.104396  0  0.97592  0
H  H29  1  0.12923208  0.76893311  0.32492192  1  0.041916  0  0.0984  0.104344  0  0.975824  0
H  H30  1  0.62186840  0.33661962  0.75683608  1  0.053252  0  0.09895  0.100568  0  0.982523  0
H  H31  1  0.12187985  0.66339221  0.24316862  1  0.053164  0  0.098956  0.100662  0  0.982512  0
H  H32  1  0.85726635  0.19824465  0.64017476  1  0.095664  0  0.102437  0.113944  0  0.989493  0
H  H33  1  0.35727239  0.80175442  0.35982548  1  0.095557  0  0.102423  0.113902  0  0.989444  0
H  H34  1  0.18580894  0.26326752  0.81930293  1  0.078705  0  0.096829  0.102118  0  1.008697  0
H  H35  1  0.68584927  0.73672335  0.18069556  1  0.078046  0  0.096741  0.102082  0  1.008557  0
H  H36  1  0.93927077  0.06538963  0.73860844  1  0.048465  0  0.10436  0.036117  0  0.95943  0
H  H37  1  0.43926087  0.93460557  0.26138206  1  0.048249  0  0.104403  0.036145  0  0.959287  0
H  H38  1  0.50005173  0.22093929  0.80811603  1  0.063309  0  0.098509  0.020675  0  1.006493  0
H  H39  1  0.00007992  0.77905031  0.19186750  1  0.063766  0  0.098592  0.02079  0  1.006486  0
H  H40  1  0.11345724  0.58799804  0.77506239  1  0.030703  0  0.102743  0.103484  0  0.99319  0
H  H41  1  0.61346614  0.41200260  0.22493826  1  0.030656  0  0.102727  0.103521  0  0.993184  0
H  H42  1  0.74198575  0.85723008  0.72489605  1  0.058523  0  0.100714  0.098022  0  1.01595  0
H  H43  1  0.24200100  0.14276896  0.27511542  1  0.058428  0  0.100667  0.097964  0  1.015797  0
H  H44  1  0.36232818  0.54794592  0.57446721  1  0.61397  0  0.35465  0.433291  0  0.850904  0
H  H45  1  0.86238072  0.45201964  0.42554636  1  0.613457  0  0.354742  0.433428  0  0.850819  0
H  H46  1  0.40901270  0.95182329  0.92586188  1  0.614804  0  0.354087  0.432181  0  0.851753  0
H  H47  1  0.90898910  0.04818476  0.07414447  1  0.614586  0  0.354189  0.43229  0  0.851574  0
C  C48  1  0.35318473  0.57278689  0.41934071  1  1.687821  0  0.271518  0.716186  0  4.172159  0
C  C49  1  0.85326625  0.42720952  0.58065078  1  1.687792  0  0.27137  0.715906  0  4.173056  0
C  C50  1  0.34789098  0.38738668  0.43136760  1  1.582576  0  0.278555  0.664475  0  4.07577  0
C  C51  1  0.84786886  0.61262226  0.56862401  1  1.582549  0  0.278619  0.664973  0  4.075803  0
C  C52  1  0.07339746  0.70142653  0.86450948  1  -0.002896  0  -0.087024  -0.127942  0  3.996535  0
C  C53  1  0.57335437  0.29858154  0.13548350  1  -0.00235  0  -0.087101  -0.128444  0  3.996997  0
C  C54  1  0.94224953  0.81979785  0.88737970  1  -0.012017  0  -0.013472  -0.035597  0  4.012751  0
C  C55  1  0.44222926  0.18021395  0.11261867  1  -0.013485  0  -0.013543  -0.03601  0  4.013274  0
C  C56  1  0.73868678  0.73741354  0.59183789  1  -0.083807  0  -0.083594  -0.099429  0  3.997821  0
C  C57  1  0.23879304  0.26258723  0.40818292  1  -0.081455  0  -0.083718  -0.10007  0  3.998578  0
C  C58  1  0.71168298  0.80149070  0.63243696  1  0.022474  0  -0.090479  -0.080795  0  4.05761  0
C  C59  1  0.21176348  0.19851329  0.36757875  1  0.021469  0  -0.090568  -0.08074  0  4.058635  0
C  C60  1  0.76674676  0.80720875  0.69413976  1  -0.049698  0  -0.090002  -0.131467  0  4.001872  0
C  C61  1  0.26677418  0.19279361  0.30587269  1  -0.048859  0  -0.090107  -0.131561  0  4.002106  0
C  C62  1  0.85404927  0.74987503  0.71758811  1  -0.063486  0  -0.001056  0.034976  0  3.945463  0
C  C63  1  0.35405867  0.25012771  0.28241498  1  -0.063567  0  -0.001021  0.035134  0  3.945353  0
C  C64  1  0.89148157  0.68562054  0.67565050  1  0.006781  0  -0.000927  0.057814  0  3.970096  0
C  C65  1  0.39148370  0.31438183  0.32435335  1  0.066905  0  -0.000968  0.057597  0  3.970122  0
C  C66  1  0.90915016  0.75424894  0.78244761  1  0.061032  0  -0.001798  0.036443  0  3.947053  0
C  C67  1  0.40915168  0.24575860  0.21755316  1  0.060833  0  -0.00181  0.036525  0  3.946808  0
C  C68  1  0.00787396  0.69579079  0.80227837  1  -0.087935  0  -0.006188  0.075779  0  4.016146  0
C  C69  1  0.50785104  0.30421738  0.19771525  1  -0.087838  0  -0.006102  0.075986  0  4.016024  0
C  C70  1  0.04072807  0.63250043  0.75874360  1  0.056256  0  -0.091448  -0.13349  0  4.029097  0
C  C71  1  0.54072306  0.36750163  0.24125643  1  0.05647  0  -0.091493  -0.133759  0  4.029197  0
C  C72  1  0.98377444  0.62725769  0.69818516  1  -0.110427  0  -0.092511  -0.133117  0  4.011406  0
C  C73  1  0.48377931  0.37273990  0.30181527  1  -0.110421  0  -0.092473  -0.132967  0  4.011603  0
C  C74  1  0.87077128  0.81470266  0.82723418  1  -0.033398  0  -0.08334  -0.148575  0  3.956979  0
C  C75  1  0.37078339  0.18530412  0.17276817  1  -0.026676  0  -0.083271  -0.148608  0  3.957123  0
C  C76  1  0.04758332  0.76311745  0.90615349  1  -0.063644  0  -0.084773  -0.10213  0  4.000894  0
C  C77  1  0.54751759  0.23689731  0.09383623  1  -0.062675  0  -0.084605  -0.101401  0  4.000735  0
C  C78  1  0.82950490  0.68074178  0.61282692  1  0.048127  0  -0.008735  -0.079599  0  3.946656  0
C  C79  1  0.32954653  0.31926267  0.38717983  1  -0.012816  0  -0.008677  -0.078946  0  3.946323  0
C  C80  1  0.79057145  0.27799333  0.81904135  1  -0.028959  0  -0.078217  -0.108424  0  3.809024  0
C  C81  1  0.29061474  0.72199959  0.18095676  1  -0.028367  0  -0.078207  -0.108605  0  3.809482  0
C  C82  1  0.12036631  0.23406062  0.77655369  1  -0.053166  0  -0.159387  -0.203084  0  3.85989  0
C  C83  1  0.62038897  0.76593174  0.22344451  1  -0.052527  0  -0.159365  -0.203081  0  3.859542  0
C  C84  1  0.10929336  0.27995242  0.72471014  1  -0.00364  0  -0.15419  -0.193363  0  3.843933  0
C  C85  1  0.60930491  0.72003719  0.27528732  1  -0.003851  0  -0.15421  -0.19324  0  3.843921  0
C  C86  1  0.85927472  0.37981409  0.62558969  1  0.171312  0  -0.048008  -0.211645  0  3.975897  0
C  C87  1  0.35928850  0.62017657  0.37439613  1  0.173253  0  -0.047898  -0.211547  0  3.976136  0
C  C88  1  0.90949090  0.20972793  0.79256681  1  0.118799  0  0.011281  0.138071  0  3.86466  0
C  C89  1  0.40952597  0.79026500  0.20743115  1  0.118755  0  0.011334  0.138093  0  3.864398  0
C  C90  1  0.77796234  0.32723914  0.76897630  1  -0.02743  0  -0.14172  -0.208185  0  3.801888  0
C  C91  1  0.27797834  0.67275964  0.23102250  1  -0.030116  0  -0.141764  -0.208289  0  3.802171  0
C  C92  1  0.88841251  0.29350197  0.70916140  1  0.131777  0  0.003261  0.181496  0  3.901358  0
C  C93  1  0.38841902  0.70649276  0.29083507  1  0.134313  0  0.003256  0.181229  0  3.901846  0
C  C94  1  0.78743966  0.22179948  0.68428163  1  -0.048449  0  -0.153945  -0.222554  0  3.837579  0
C  C95  1  0.28744710  0.77819692  0.31571840  1  -0.048068  0  -0.153905  -0.222347  0  3.837521  0
C  C96  1  0.81000568  0.17075208  0.73120000  1  -0.045352  0  -0.080009  -0.105299  0  3.816112  0
C  C97  1  0.31001013  0.82924427  0.26879687  1  -0.045325  0  -0.080139  -0.105569  0  3.816187  0
C  C98  1  0.87366100  0.34024712  0.66345513  1  -0.482693  0  -0.021861  -0.034489  0  4.022658  0
C  C99  1  0.37366915  0.65974426  0.33654297  1  -0.483553  0  -0.021855  -0.034442  0  4.023145  0
C  C100  1  0.91767872  0.16321213  0.83874628  1  -0.494349  0  -0.029293  -0.061087  0  4.054324  0
C  C101  1  0.41772565  0.83678260  0.16125294  1  -0.495235  0  -0.029168  -0.060913  0  4.05456  0
C  C102  1  0.92230233  0.12409025  0.87717897  1  0.178563  0  -0.039639  -0.188493  0  3.95391  0
C  C103  1  0.42235863  0.87590985  0.12282668  1  0.179202  0  -0.039737  -0.18849  0  3.953826  0
C  C104  1  0.42395194  0.11203454  0.06905910  1  1.570782  0  0.278561  0.665276  0  4.06827  0
C  C105  1  0.92397816  0.88797504  0.93094700  1  1.570796  0  0.278187  0.664964  0  4.068414  0
C  C106  1  0.42198676  0.92452680  0.07868285  1  1.711494  0  0.271478  0.711309  0  4.172678  0
C  C107  1  0.92193678  0.07547748  0.92132281  1  1.711904  0  0.271295  0.711059  0  4.173135  0
C  C108  1  0.93237327  0.10523408  0.70669566  1  0.979299  0  0.109257  0.307903  0  3.892286  0
C  C109  1  0.43237126  0.89476313  0.29330007  1  0.979476  0  0.109335  0.308104  0  3.892548  0
C  C110  1  0.58215276  0.26335088  0.83947679  1  0.922449  0  0.107195  0.313003  0  3.924736  0
C  C111  1  0.08221510  0.73664290  0.16051510  1  0.921166  0  0.107024  0.312911  0  3.924486  0
O  O112  1  0.52088418  0.41199278  0.44625317  1  -1.257946  0  -0.230305  -0.59007  0  2.31916  0
O  O113  1  0.02078793  0.58795802  0.55380791  1  -1.258501  0  -0.230255  -0.590147  0  2.320685  0
O  O114  1  0.18199551  0.55730643  0.43852093  1  -1.227532  0  -0.230952  -0.58185  0  2.276827  0
O  O115  1  0.68203171  0.44279796  0.56153253  1  -1.227164  0  -0.231007  -0.582032  0  2.276238  0
O  O116  1  0.18317875  0.41587072  0.45060352  1  -1.261494  0  -0.228807  -0.591004  0  2.337846  0
O  O117  1  0.68308165  0.58420676  0.54929954  1  -1.260995  0  -0.228846  -0.591479  0  2.336571  0
O  O118  1  0.02242948  0.44934908  0.56530691  1  -1.239196  0  -0.232653  -0.588201  0  2.295382  0
O  O119  1  0.52235057  0.55053877  0.43462041  1  -1.239798  0  -0.232903  -0.588658  0  2.294544  0
O  O120  1  0.35508036  0.51234715  0.53741194  1  -1.416311  0  -0.447562  -0.988951  0  2.180964  0
O  O121  1  0.85507565  0.48765430  0.46257582  1  -1.415827  0  -0.447715  -0.989201  0  2.180685  0
O  O122  1  0.25059366  0.94555722  0.06444739  1  -1.229671  0  -0.22958  -0.580228  0  2.290184  0
O  O123  1  0.75054936  0.05446405  0.93557139  1  -1.229966  0  -0.229416  -0.579998  0  2.290612  0
O  O124  1  0.58870759  0.08508275  0.04788894  1  -1.266273  0  -0.231  -0.595704  0  2.343409  0
O  O125  1  0.08874729  0.91491532  0.95213161  1  -1.265286  0  -0.23065  -0.595418  0  2.342907  0
O  O126  1  0.59140854  0.94196966  0.05966076  1  -1.23301  0  -0.23036  -0.57954  0  2.2766  0
O  O127  1  0.09137250  0.05801592  0.94033188  1  -1.233384  0  -0.230369  -0.57942  0  2.276111  0
O  O128  1  0.75179217  0.91501482  0.94283989  1  -1.259515  0  -0.233623  -0.593425  0  2.304769  0
O  O129  1  0.25174971  0.08500615  0.05714917  1  -1.258266  0  -0.233702  -0.593446  0  2.304435  0
O  O130  1  0.41603664  0.98817207  0.96239384  1  -1.416556  0  -0.447132  -0.987583  0  2.17776  0
O  O131  1  0.91603888  0.01183701  0.03761239  1  -1.416318  0  -0.447221  -0.987702  0  2.177708  0
O  O132  1  0.01941623  0.09521447  0.65701538  1  -1.082515  0  -0.259868  -0.349004  0  2.102435  0
O  O133  1  0.51941666  0.90478306  0.34297433  1  -1.082405  0  -0.260002  -0.349215  0  2.102788  0
O  O134  1  0.49866873  0.29643974  0.88478185  1  -1.08325  0  -0.264625  -0.356557  0  2.086691  0
O  O135  1  0.99876258  0.70354417  0.11520393  1  -1.082991  0  -0.264567  -0.356583  0  2.086281  0
