# generated using pymatgen
data_GaPH4C5NO4
_symmetry_space_group_name_H-M   'P 1'
_cell_length_a   4.99795911
_cell_length_b   5.79651731
_cell_length_c   11.61139393
_cell_angle_alpha   79.34536412
_cell_angle_beta   87.83828027
_cell_angle_gamma   87.69711357
_symmetry_Int_Tables_number   1
_chemical_formula_structural   GaPH4C5NO4
_chemical_formula_sum   'Ga2 P2 H8 C10 N2 O8'
_cell_volume   330.16712292
_cell_formula_units_Z   2
loop_
 _symmetry_equiv_pos_site_id
 _symmetry_equiv_pos_as_xyz
  1  'x, y, z'
loop_
 _atom_site_type_symbol
 _atom_site_label
 _atom_site_symmetry_multiplicity
 _atom_site_fract_x
 _atom_site_fract_y
 _atom_site_fract_z
 _atom_site_occupancy
 _atom_site_hle17_bader_spin_density
 _atom_site_hle17_ddec_charge
 _atom_site_hle17_ddec_spin_density
 _atom_site_hle17_ddec_sum_bond_order
 _atom_site_hle17_magmom
 _atom_site_hse06_10hf_bader_spin_density
 _atom_site_hse06_10hf_ddec_charge
 _atom_site_hse06_10hf_ddec_spin_density
 _atom_site_hse06_10hf_ddec_sum_bond_order
 _atom_site_hse06_10hf_magmom
 _atom_site_hse06_bader_spin_density
 _atom_site_hse06_ddec_charge
 _atom_site_hse06_ddec_spin_density
 _atom_site_hse06_ddec_sum_bond_order
 _atom_site_hse06_magmom
 _atom_site_pbe_bader_spin_density
 _atom_site_pbe_cm5_charge
 _atom_site_pbe_ddec_charge
 _atom_site_pbe_ddec_spin_density
 _atom_site_pbe_ddec_sum_bond_order
 _atom_site_pbe_magmom
Ga  Ga0  1  0.66747821  0.79371443  0.89733669  1  0  1.66811  0  2.287131  0  0  1.498039  0  2.729149  0  0  1.552245  0  2.675113  0  0  0.642392  1.459404  0  2.766736  0
Ga  Ga1  1  0.33251475  0.20628328  0.10266446  1  0  1.668114  0  2.287039  0  0  1.498047  0  2.729048  0  0  1.552256  0  2.67501  0  0  0.642408  1.459411  0  2.766616  0
P  P2  1  0.14514350  0.72320223  0.07767043  1  0  1.833491  0  4.839019  0  0  1.639332  0  5.368313  0  0  1.701049  0  5.308785  0  0  0.465924  1.595601  0  5.409635  0
P  P3  1  0.85485145  0.27679548  0.92233156  1  0  1.833416  0  4.839164  0  0  1.639218  0  5.368528  0  0  1.700937  0  5.309004  0  0  0.465849  1.595501  0  5.409817  0
H  H4  1  0.28697630  0.54931963  0.77804775  1  0  0.106093  0  0.945982  0  0  0.110058  0  1.013629  0  0  0.112882  0  1.01064  0  0  0.132281  0.107816  0  1.016049  0
H  H5  1  0.71301644  0.45068337  0.22195462  1  0  0.106092  0  0.945953  0  0  0.109997  0  1.01366  0  0  0.112823  0  1.010667  0  0  0.132276  0.107755  0  1.016078  0
H  H6  1  0.96759149  0.61801851  0.61821000  1  0  0.109315  0  0.953581  0  0  0.120819  0  1.012066  0  0  0.124102  0  1.010781  0  0  0.109912  0.118383  0  1.013254  0
H  H7  1  0.03241149  0.38198260  0.38178641  1  0  0.10935  0  0.953604  0  0  0.120885  0  1.012052  0  0  0.124166  0  1.010771  0  0  0.109921  0.118459  0  1.013233  0
H  H8  1  0.57131852  0.21938049  0.68821226  1  0  0.095806  0  0.942635  0  0  0.103893  0  1.00458  0  0  0.106744  0  1.001867  0  0  0.124365  0.101674  0  1.006764  0
H  H9  1  0.42869035  0.78062067  0.31178839  1  0  0.095825  0  0.9427  0  0  0.10391  0  1.004624  0  0  0.106759  0  1.001912  0  0  0.124375  0.101679  0  1.006819  0
H  H10  1  0.27079896  0.31995464  0.51889144  1  0  0.095549  0  0.965138  0  0  0.107215  0  1.025017  0  0  0.109928  0  1.02499  0  0  0.104391  0.105296  0  1.025093  0
H  H11  1  0.72920996  0.68004650  0.48110749  1  0  0.095563  0  0.965161  0  0  0.107222  0  1.025039  0  0  0.109934  0  1.025014  0  0  0.104404  0.105307  0  1.025116  0
C  C12  1  0.28001513  0.71563630  0.71647930  1  0  0.152023  0  3.65815  0  0  0.117999  0  3.914393  0  0  0.126148  0  3.93032  0  0  0.067504  0.112612  0  3.903956  0
C  C13  1  0.71997572  0.28436664  0.28351880  1  0  0.152195  0  3.658033  0  0  0.118199  0  3.914253  0  0  0.126351  0  3.930173  0  0  0.06759  0.11281  0  3.903816  0
C  C14  1  0.10216605  0.75711001  0.62539633  1  0  -0.151276  0  3.689897  0  0  -0.173116  0  3.944913  0  0  -0.180693  0  3.965127  0  0  -0.07666  -0.168248  0  3.931504  0
C  C15  1  0.89784290  0.24288938  0.37460362  1  0  -0.151385  0  3.689857  0  0  -0.173261  0  3.944869  0  0  -0.180833  0  3.965072  0  0  -0.076647  -0.168407  0  3.931465  0
C  C16  1  0.09232597  0.97560795  0.54951579  1  0  0.089948  0  3.759129  0  0  0.100504  0  3.992305  0  0  0.104648  0  4.013833  0  0  0.012905  0.09797  0  3.97734  0
C  C17  1  0.90768089  0.02439667  0.45048025  1  0  0.090089  0  3.759128  0  0  0.100632  0  3.992325  0  0  0.104778  0  4.013853  0  0  0.012911  0.098101  0  3.977364  0
C  C18  1  0.26526060  0.14539188  0.57292220  1  0  -0.157883  0  3.711447  0  0  -0.177866  0  3.963869  0  0  -0.185922  0  3.985863  0  0  -0.082681  -0.172544  0  3.948895  0
C  C19  1  0.73475037  0.85460578  0.42707963  1  0  -0.157902  0  3.711346  0  0  -0.177877  0  3.963768  0  0  -0.185933  0  3.985761  0  0  -0.082692  -0.172562  0  3.948799  0
C  C20  1  0.43620621  0.09206574  0.66637029  1  0  0.14435  0  3.678735  0  0  0.109953  0  3.934947  0  0  0.117612  0  3.952222  0  0  0.060815  0.104943  0  3.92328  0
C  C21  1  0.56379487  0.90793015  0.33362922  1  0  0.144333  0  3.678622  0  0  0.109935  0  3.934789  0  0  0.117593  0  3.95206  0  0  0.060838  0.104932  0  3.923125  0
N  N22  1  0.44626930  0.87970140  0.73618211  1  0  -0.312632  0  3.236565  0  0  -0.238186  0  3.490684  0  0  -0.25725  0  3.509463  0  0  -0.276701  -0.225504  0  3.477991  0
N  N23  1  0.55373335  0.12030507  0.26381896  1  0  -0.31283  0  3.236719  0  0  -0.238311  0  3.490742  0  0  -0.257372  0  3.509517  0  0  -0.276825  -0.22562  0  3.478031  0
O  O24  1  0.85029677  0.71540561  0.04529530  1  0  -0.916226  0  2.021232  0  0  -0.825818  0  2.300345  0  0  -0.854842  0  2.275296  0  0  -0.321123  -0.805619  0  2.317562  0
O  O25  1  0.14970019  0.28459381  0.95470392  1  0  -0.916207  0  2.021236  0  0  -0.825836  0  2.300424  0  0  -0.854842  0  2.275335  0  0  -0.321117  -0.805643  0  2.317636  0
O  O26  1  0.32274200  0.77550478  0.96556463  1  0  -0.942427  0  2.126811  0  0  -0.853709  0  2.427882  0  0  -0.881201  0  2.399996  0  0  -0.31486  -0.833871  0  2.446295  0
O  O27  1  0.67725302  0.22449290  0.03443479  1  0  -0.942389  0  2.126825  0  0  -0.853649  0  2.427872  0  0  -0.881148  0  2.399991  0  0  -0.314874  -0.833828  0  2.4463  0
O  O28  1  0.17519348  0.91349727  0.15472268  1  0  -0.900369  0  1.985604  0  0  -0.813362  0  2.269686  0  0  -0.841192  0  2.244609  0  0  -0.323925  -0.793068  0  2.286696  0
O  O29  1  0.82480353  0.08649868  0.84527946  1  0  -0.900367  0  1.985627  0  0  -0.813332  0  2.269696  0  0  -0.841163  0  2.244617  0  0  -0.323897  -0.793058  0  2.286742  0
O  O30  1  0.22899994  0.48599095  0.15737207  1  0  -0.913893  0  1.995503  0  0  -0.825788  0  2.285526  0  0  -0.854306  0  2.260546  0  0  -0.324551  -0.804861  0  2.302431  0
O  O31  1  0.77099305  0.51400674  0.84262823  1  0  -0.913879  0  1.995473  0  0  -0.825745  0  2.285472  0  0  -0.854255  0  2.260473  0  0  -0.324511  -0.804821  0  2.302377  0
