# generated using pymatgen
data_ZnH10C18Br4(N4O)2
_symmetry_space_group_name_H-M   'P 1'
_cell_length_a   8.94424182
_cell_length_b   10.28970859
_cell_length_c   12.53946446
_cell_angle_alpha   98.94590737
_cell_angle_beta   90.00000635
_cell_angle_gamma   90.00010293
_symmetry_Int_Tables_number   1
_chemical_formula_structural   ZnH10C18Br4(N4O)2
_chemical_formula_sum   'Zn2 H20 C36 Br8 N16 O4'
_cell_volume   1140.01421168
_cell_formula_units_Z   2
loop_
 _symmetry_equiv_pos_site_id
 _symmetry_equiv_pos_as_xyz
  1  'x, y, z'
loop_
 _atom_site_type_symbol
 _atom_site_label
 _atom_site_symmetry_multiplicity
 _atom_site_fract_x
 _atom_site_fract_y
 _atom_site_fract_z
 _atom_site_occupancy
 _atom_site_hle17_bader_spin_density
 _atom_site_hle17_ddec_charge
 _atom_site_hle17_ddec_spin_density
 _atom_site_hle17_ddec_sum_bond_order
 _atom_site_hle17_magmom
 _atom_site_hse06_10hf_bader_spin_density
 _atom_site_hse06_10hf_ddec_charge
 _atom_site_hse06_10hf_ddec_spin_density
 _atom_site_hse06_10hf_ddec_sum_bond_order
 _atom_site_hse06_10hf_magmom
 _atom_site_hse06_bader_spin_density
 _atom_site_hse06_ddec_charge
 _atom_site_hse06_ddec_spin_density
 _atom_site_hse06_ddec_sum_bond_order
 _atom_site_hse06_magmom
 _atom_site_pbe_bader_spin_density
 _atom_site_pbe_cm5_charge
 _atom_site_pbe_ddec_charge
 _atom_site_pbe_ddec_spin_density
 _atom_site_pbe_ddec_sum_bond_order
 _atom_site_pbe_magmom
Zn  Zn0  1  0.50000040  0.50000048  0.00000048  1  0  0.934614  0  1.987081  0  0  0.746732  0  2.445405  0  0  0.788779  0  2.399256  0  0  0.694841  0.7182  0  2.476304  0
Zn  Zn1  1  0.00000111  0.99999947  0.99999979  1  0  0.934633  0  1.987078  0  0  0.746741  0  2.445424  0  0  0.788798  0  2.399271  0  0  0.69485  0.718213  0  2.476324  0
H  H2  1  0.64893860  0.38442244  0.27952587  1  0  0.077578  0  0.914411  0  0  0.088613  0  0.980018  0  0  0.091024  0  0.975563  0  0  0.122111  0.086763  0  0.983356  0
H  H3  1  0.14893959  0.11557564  0.72047413  1  0  0.077664  0  0.914351  0  0  0.088654  0  0.98  0  0  0.091069  0  0.975537  0  0  0.122129  0.086803  0  0.98334  0
H  H4  1  0.35106008  0.61557786  0.72047405  1  0  0.077566  0  0.914449  0  0  0.088601  0  0.980059  0  0  0.091016  0  0.975594  0  0  0.122109  0.08675  0  0.983397  0
H  H5  1  0.85106132  0.88442268  0.27952552  1  0  0.077629  0  0.914402  0  0  0.088652  0  0.980013  0  0  0.091066  0  0.975551  0  0  0.122136  0.086801  0  0.983354  0
H  H6  1  0.64455047  0.54197214  0.42541744  1  0  0.111908  0  0.936064  0  0  0.124162  0  0.994135  0  0  0.12736  0  0.991628  0  0  0.103816  0.121763  0  0.996298  0
H  H7  1  0.14455548  0.95802704  0.57458433  1  0  0.111864  0  0.936087  0  0  0.124153  0  0.994121  0  0  0.127338  0  0.99163  0  0  0.10382  0.121775  0  0.99626  0
H  H8  1  0.35544596  0.45802717  0.57458235  1  0  0.111864  0  0.936118  0  0  0.124156  0  0.994151  0  0  0.127339  0  0.991662  0  0  0.103818  0.121777  0  0.99629  0
H  H9  1  0.85544543  0.04197325  0.42541559  1  0  0.111846  0  0.936107  0  0  0.124131  0  0.994147  0  0  0.127316  0  0.991657  0  0  0.103818  0.121753  0  0.996286  0
H  H10  1  0.44554461  0.92321318  0.42073716  1  0  0.104205  0  0.972855  0  0  0.112074  0  1.04201  0  0  0.115653  0  1.038435  0  0  0.091614  0.109369  0  1.044858  0
H  H11  1  0.94554417  0.57678555  0.57926216  1  0  0.104216  0  0.972804  0  0  0.112086  0  1.041958  0  0  0.115651  0  1.038396  0  0  0.091628  0.109381  0  1.044807  0
H  H12  1  0.55445406  0.07678612  0.57926342  1  0  0.104165  0  0.972798  0  0  0.112043  0  1.041954  0  0  0.115621  0  1.038379  0  0  0.091608  0.109338  0  1.044802  0
H  H13  1  0.05445450  0.42321475  0.42073696  1  0  0.104239  0  0.972809  0  0  0.112112  0  1.041961  0  0  0.115691  0  1.038385  0  0  0.091626  0.109408  0  1.044809  0
H  H14  1  0.44618553  0.12830752  0.11682745  1  0  0.118922  0  0.94038  0  0  0.121445  0  1.013963  0  0  0.125129  0  1.009459  0  0  0.134551  0.118695  0  1.017231  0
H  H15  1  0.94618687  0.37169302  0.88317290  1  0  0.118892  0  0.940438  0  0  0.121415  0  1.014022  0  0  0.125098  0  1.00952  0  0  0.134539  0.118664  0  1.01729  0
H  H16  1  0.55381426  0.87169377  0.88317181  1  0  0.118928  0  0.940416  0  0  0.121452  0  1.013997  0  0  0.125135  0  1.009495  0  0  0.134568  0.118701  0  1.017263  0
H  H17  1  0.05381404  0.62830627  0.11682848  1  0  0.118942  0  0.940404  0  0  0.121462  0  1.013988  0  0  0.125145  0  1.009485  0  0  0.134574  0.118711  0  1.017255  0
H  H18  1  0.85221007  0.31835352  0.06422057  1  0  0.117618  0  0.955585  0  0  0.116266  0  1.038251  0  0  0.120502  0  1.03289  0  0  0.137573  0.112831  0  1.042582  0
H  H19  1  0.35220900  0.18164589  0.93577883  1  0  0.117611  0  0.955583  0  0  0.116243  0  1.038261  0  0  0.120478  0  1.032903  0  0  0.137566  0.112809  0  1.042591  0
H  H20  1  0.14779084  0.68164578  0.93578002  1  0  0.117613  0  0.955579  0  0  0.116244  0  1.03826  0  0  0.120478  0  1.032901  0  0  0.137564  0.112809  0  1.042589  0
H  H21  1  0.64778967  0.81835538  0.06422122  1  0  0.117603  0  0.955542  0  0  0.116235  0  1.038228  0  0  0.120472  0  1.032868  0  0  0.137559  0.112801  0  1.042559  0
C  C22  1  0.58480800  0.44039300  0.22736344  1  0  0.163069  0  3.672595  0  0  0.10846  0  3.947224  0  0  0.128725  0  3.952292  0  0  0.08287  0.094898  0  3.943729  0
C  C23  1  0.08480442  0.05960894  0.77263470  1  0  0.162965  0  3.67251  0  0  0.108392  0  3.947148  0  0  0.128656  0  3.952216  0  0  0.082822  0.094829  0  3.943654  0
C  C24  1  0.41519514  0.55960927  0.77263595  1  0  0.163067  0  3.67259  0  0  0.108453  0  3.947232  0  0  0.12872  0  3.952299  0  0  0.082865  0.094892  0  3.943736  0
C  C25  1  0.91519425  0.94039235  0.22736456  1  0  0.163041  0  3.67261  0  0  0.108463  0  3.947234  0  0  0.12873  0  3.9523  0  0  0.082863  0.094899  0  3.943744  0
C  C26  1  0.58265597  0.61032090  0.38366478  1  0  -0.12921  0  3.758028  0  0  -0.165617  0  4.012165  0  0  -0.16108  0  4.032329  0  0  -0.099472  -0.168584  0  3.998799  0
C  C27  1  0.08265973  0.88967527  0.61633418  1  0  -0.129181  0  3.75805  0  0  -0.165599  0  4.012204  0  0  -0.161051  0  4.032372  0  0  -0.099479  -0.168581  0  3.998824  0
C  C28  1  0.41733935  0.38967643  0.61633554  1  0  -0.129215  0  3.758237  0  0  -0.165649  0  4.01238  0  0  -0.161105  0  4.032551  0  0  -0.099477  -0.168635  0  3.999005  0
C  C29  1  0.91733894  0.11032405  0.38366481  1  0  -0.129083  0  3.758193  0  0  -0.165506  0  4.012331  0  0  -0.160959  0  4.032501  0  0  -0.099429  -0.168487  0  3.998953  0
C  C30  1  0.53761129  0.56895756  0.27500924  1  0  -0.099079  0  3.796899  0  0  -0.078079  0  4.044814  0  0  -0.093681  0  4.072309  0  0  -0.038621  -0.067715  0  4.025979  0
C  C31  1  0.03761180  0.93104048  0.72499077  1  0  -0.099189  0  3.79682  0  0  -0.078214  0  4.044809  0  0  -0.093809  0  4.072302  0  0  -0.038683  -0.067845  0  4.025972  0
C  C32  1  0.46238738  0.43104075  0.72499121  1  0  -0.099062  0  3.796943  0  0  -0.078063  0  4.044925  0  0  -0.093666  0  4.072425  0  0  -0.038635  -0.067701  0  4.026087  0
C  C33  1  0.96238687  0.06895882  0.27500981  1  0  -0.099165  0  3.79691  0  0  -0.078189  0  4.04489  0  0  -0.093787  0  4.072387  0  0  -0.038702  -0.067831  0  4.026067  0
C  C34  1  0.44964416  0.65420060  0.21800656  1  0  0.315142  0  3.872103  0  0  0.288499  0  4.134797  0  0  0.308165  0  4.148701  0  0  0.087321  0.2757  0  4.124669  0
C  C35  1  0.94964543  0.84579810  0.78199516  1  0  0.31518  0  3.872056  0  0  0.288537  0  4.134737  0  0  0.308192  0  4.148652  0  0  0.087377  0.275734  0  4.124605  0
C  C36  1  0.55035339  0.34579966  0.78199575  1  0  0.315019  0  3.872231  0  0  0.288338  0  4.134968  0  0  0.307994  0  4.14889  0  0  0.087294  0.275542  0  4.124832  0
C  C37  1  0.05035324  0.15420121  0.21800463  1  0  0.315174  0  3.872146  0  0  0.288514  0  4.134867  0  0  0.308168  0  4.148793  0  0  0.087382  0.275717  0  4.124738  0
C  C38  1  0.42525319  0.78422686  0.27559739  1  0  -0.039591  0  3.697556  0  0  -0.022257  0  3.968708  0  0  -0.026805  0  3.989499  0  0  -0.044985  -0.019697  0  3.954689  0
C  C39  1  0.92525194  0.71577082  0.72440418  1  0  -0.039701  0  3.69775  0  0  -0.022325  0  3.968839  0  0  -0.026867  0  3.989628  0  0  -0.045035  -0.01976  0  3.954814  0
C  C40  1  0.57474884  0.21577243  0.72440399  1  0  -0.039675  0  3.697714  0  0  -0.022276  0  3.968806  0  0  -0.026822  0  3.989599  0  0  -0.045023  -0.019717  0  3.954783  0
C  C41  1  0.07475008  0.28422750  0.27559626  1  0  -0.039689  0  3.697778  0  0  -0.022289  0  3.968858  0  0  -0.026833  0  3.989651  0  0  -0.045029  -0.019729  0  3.954837  0
C  C42  1  0.54766711  0.73481103  0.43526603  1  0  0.06281  0  3.779237  0  0  0.080341  0  4.052516  0  0  0.07712  0  4.077207  0  0  -0.043477  0.082162  0  4.036022  0
C  C43  1  0.04766502  0.76518604  0.56473464  1  0  0.062879  0  3.779251  0  0  0.080384  0  4.052581  0  0  0.077162  0  4.077267  0  0  -0.043433  0.082202  0  4.036092  0
C  C44  1  0.45233380  0.26518924  0.56473548  1  0  0.062857  0  3.779292  0  0  0.080393  0  4.052572  0  0  0.077175  0  4.077258  0  0  -0.043443  0.082213  0  4.036085  0
C  C45  1  0.95233589  0.23481031  0.43526554  1  0  0.062829  0  3.779464  0  0  0.08036  0  4.052745  0  0  0.07714  0  4.077431  0  0  -0.043457  0.08218  0  4.036258  0
C  C46  1  0.47104136  0.82399851  0.38069034  1  0  -0.135064  0  3.819334  0  0  -0.169228  0  4.073294  0  0  -0.165604  0  4.091646  0  0  -0.106946  -0.171404  0  4.060897  0
C  C47  1  0.97104113  0.67599923  0.61931204  1  0  -0.135003  0  3.819348  0  0  -0.169174  0  4.073306  0  0  -0.165533  0  4.09166  0  0  -0.106924  -0.17135  0  4.060906  0
C  C48  1  0.52895620  0.17600076  0.61931184  1  0  -0.135015  0  3.819349  0  0  -0.169204  0  4.073299  0  0  -0.16558  0  4.091653  0  0  -0.106949  -0.171381  0  4.060903  0
C  C49  1  0.02895754  0.32400007  0.38068854  1  0  -0.135101  0  3.819448  0  0  -0.169293  0  4.073396  0  0  -0.165667  0  4.091746  0  0  -0.106959  -0.171468  0  4.060997  0
C  C50  1  0.56264482  0.14176052  0.09711354  1  0  0.117098  0  3.663677  0  0  0.05499  0  3.951078  0  0  0.066257  0  3.962115  0  0  0.146709  0.047695  0  3.94337  0
C  C51  1  0.06264411  0.35823842  0.90288578  1  0  0.117169  0  3.663683  0  0  0.055082  0  3.951044  0  0  0.066349  0  3.96208  0  0  0.146749  0.047782  0  3.943351  0
C  C52  1  0.43735608  0.85823979  0.90288558  1  0  0.117124  0  3.663657  0  0  0.055019  0  3.951048  0  0  0.066286  0  3.962084  0  0  0.146719  0.047716  0  3.943359  0
C  C53  1  0.93735568  0.64176088  0.09711480  1  0  0.117101  0  3.663698  0  0  0.054998  0  3.95109  0  0  0.066265  0  3.962124  0  0  0.146699  0.047703  0  3.943382  0
C  C54  1  0.77370026  0.23918184  0.06991718  1  0  0.152034  0  3.60377  0  0  0.083196  0  3.881666  0  0  0.096009  0  3.891848  0  0  0.156454  0.075041  0  3.874903  0
C  C55  1  0.27369935  0.26081842  0.93008233  1  0  0.152018  0  3.603722  0  0  0.083195  0  3.88163  0  0  0.096011  0  3.89181  0  0  0.156467  0.07504  0  3.874866  0
C  C56  1  0.22630065  0.76081943  0.93008367  1  0  0.152003  0  3.603765  0  0  0.083177  0  3.881664  0  0  0.095992  0  3.891844  0  0  0.156438  0.075023  0  3.874898  0
C  C57  1  0.72630156  0.73917893  0.06991640  1  0  0.152041  0  3.603817  0  0  0.083204  0  3.881745  0  0  0.09602  0  3.891924  0  0  0.156456  0.07505  0  3.87498  0
Br  Br58  1  0.31646487  0.90232899  0.20378055  1  0  -0.019243  0  1.467138  0  0  -0.016806  0  1.759235  0  0  -0.021282  0  1.75462  0  0  0.053292  -0.013287  0  1.762473  0
Br  Br59  1  0.81646452  0.59767048  0.79622126  1  0  -0.01921  0  1.467227  0  0  -0.01679  0  1.759305  0  0  -0.021264  0  1.754688  0  0  0.053301  -0.013272  0  1.762548  0
Br  Br60  1  0.68353604  0.09767228  0.79622030  1  0  -0.019193  0  1.467217  0  0  -0.016777  0  1.759299  0  0  -0.021254  0  1.754685  0  0  0.053309  -0.013258  0  1.762539  0
Br  Br61  1  0.18353527  0.40232983  0.20377786  1  0  -0.019227  0  1.467214  0  0  -0.016808  0  1.759286  0  0  -0.021283  0  1.75467  0  0  0.05329  -0.013291  0  1.76253  0
Br  Br62  1  0.59923220  0.79032046  0.58287021  1  0  -0.072557  0  1.296803  0  0  -0.066462  0  1.543886  0  0  -0.072327  0  1.539302  0  0  0.028114  -0.062203  0  1.547465  0
Br  Br63  1  0.09922661  0.70967870  0.41712757  1  0  -0.072601  0  1.296748  0  0  -0.066498  0  1.54384  0  0  -0.072363  0  1.539254  0  0  0.028091  -0.06224  0  1.547421  0
Br  Br64  1  0.40078213  0.20968284  0.41712614  1  0  -0.07257  0  1.296709  0  0  -0.066484  0  1.543789  0  0  -0.072346  0  1.539205  0  0  0.028097  -0.062223  0  1.547371  0
Br  Br65  1  0.90076983  0.29031966  0.58286970  1  0  -0.072556  0  1.296799  0  0  -0.066459  0  1.543874  0  0  -0.072323  0  1.539286  0  0  0.028113  -0.062199  0  1.547455  0
N  N66  1  0.56064826  0.38559399  0.12739197  1  0  -0.25854  0  3.070462  0  0  -0.208512  0  3.354588  0  0  -0.222185  0  3.363995  0  0  -0.227239  -0.199736  0  3.348419  0
N  N67  1  0.06064928  0.11440491  0.87260894  1  0  -0.258462  0  3.070369  0  0  -0.208431  0  3.354469  0  0  -0.222105  0  3.363881  0  0  -0.227203  -0.199656  0  3.3483  0
N  N68  1  0.43935153  0.61440630  0.87260795  1  0  -0.258478  0  3.070352  0  0  -0.20846  0  3.354484  0  0  -0.222133  0  3.363893  0  0  -0.227226  -0.199685  0  3.348314  0
N  N69  1  0.93935051  0.88559437  0.12739323  1  0  -0.258551  0  3.070388  0  0  -0.208539  0  3.354514  0  0  -0.222219  0  3.363933  0  0  -0.227246  -0.199761  0  3.34834  0
N  N70  1  0.79389972  0.11049762  0.04807903  1  0  -0.258152  0  3.216218  0  0  -0.194626  0  3.506899  0  0  -0.208995  0  3.523005  0  0  -0.232816  -0.185158  0  3.496047  0
N  N71  1  0.29389907  0.38950267  0.95192128  1  0  -0.258112  0  3.216175  0  0  -0.194591  0  3.506844  0  0  -0.20896  0  3.522949  0  0  -0.232806  -0.185124  0  3.495993  0
N  N72  1  0.20610007  0.88950266  0.95192168  1  0  -0.258114  0  3.216213  0  0  -0.194586  0  3.506881  0  0  -0.208955  0  3.522985  0  0  -0.232783  -0.185119  0  3.496029  0
N  N73  1  0.70609960  0.61049664  0.04807851  1  0  -0.258172  0  3.216252  0  0  -0.194658  0  3.506953  0  0  -0.209027  0  3.523059  0  0  -0.232838  -0.18519  0  3.496101  0
N  N74  1  0.62933813  0.26218264  0.10197147  1  0  0.014411  0  3.602178  0  0  0.100048  0  3.823058  0  0  0.086692  0  3.848725  0  0  -0.134839  0.108892  0  3.805516  0
N  N75  1  0.12933717  0.23781738  0.89802800  1  0  0.014369  0  3.602194  0  0  0.100011  0  3.823076  0  0  0.086654  0  3.848742  0  0  -0.134872  0.108855  0  3.80553  0
N  N76  1  0.37066166  0.73781765  0.89802845  1  0  0.01435  0  3.602159  0  0  0.099995  0  3.823054  0  0  0.086638  0  3.848721  0  0  -0.134877  0.108838  0  3.805509  0
N  N77  1  0.87065926  0.76218290  0.10197271  1  0  0.014416  0  3.602176  0  0  0.100066  0  3.823054  0  0  0.08671  0  3.84872  0  0  -0.134822  0.10891  0  3.805512  0
N  N78  1  0.66158660  0.04859300  0.06554725  1  0  -0.236185  0  2.986162  0  0  -0.215841  0  3.276257  0  0  -0.225508  0  3.292813  0  0  -0.227995  -0.20903  0  3.265306  0
N  N79  1  0.16158607  0.45140709  0.93445144  1  0  -0.236251  0  2.986115  0  0  -0.215908  0  3.27621  0  0  -0.225574  0  3.292764  0  0  -0.228033  -0.209099  0  3.265258  0
N  N80  1  0.33841319  0.95140830  0.93445122  1  0  -0.236182  0  2.986117  0  0  -0.215837  0  3.276219  0  0  -0.225504  0  3.292775  0  0  -0.227995  -0.209029  0  3.265267  0
N  N81  1  0.83841260  0.54859220  0.06554994  1  0  -0.236185  0  2.986116  0  0  -0.215843  0  3.27622  0  0  -0.225509  0  3.292774  0  0  -0.227996  -0.209032  0  3.265269  0
O  O82  1  0.39339228  0.61933424  0.12306882  1  0  -0.574497  0  2.115726  0  0  -0.514036  0  2.390198  0  0  -0.539567  0  2.382871  0  0  -0.335456  -0.496092  0  2.394233  0
O  O83  1  0.89339140  0.88066339  0.87693195  1  0  -0.574441  0  2.115733  0  0  -0.513984  0  2.390199  0  0  -0.539517  0  2.382877  0  0  -0.335446  -0.49605  0  2.394248  0
O  O84  1  0.60660974  0.38066702  0.87693203  1  0  -0.574339  0  2.115752  0  0  -0.513884  0  2.390247  0  0  -0.539409  0  2.382927  0  0  -0.335403  -0.495945  0  2.394291  0
O  O85  1  0.10660839  0.11933492  0.12306850  1  0  -0.574444  0  2.115735  0  0  -0.514008  0  2.390242  0  0  -0.539536  0  2.382922  0  0  -0.335463  -0.496064  0  2.394273  0
