# generated using pymatgen
data_Zr3H29C44N5(O8F)2
_symmetry_space_group_name_H-M   'P 1'
_cell_length_a   19.06848187
_cell_length_b   19.06411116
_cell_length_c   19.06426408
_cell_angle_alpha   59.97506884
_cell_angle_beta   59.99201731
_cell_angle_gamma   59.99141313
_symmetry_Int_Tables_number   1
_chemical_formula_structural   Zr3H29C44N5(O8F)2
_chemical_formula_sum   'Zr6 H58 C88 N10 O32 F4'
_cell_volume   4898.93251427
_cell_formula_units_Z   2
loop_
 _symmetry_equiv_pos_site_id
 _symmetry_equiv_pos_as_xyz
  1  'x, y, z'
loop_
 _atom_site_type_symbol
 _atom_site_label
 _atom_site_symmetry_multiplicity
 _atom_site_fract_x
 _atom_site_fract_y
 _atom_site_fract_z
 _atom_site_occupancy
 _atom_site_pbe_bader_charge
 _atom_site_pbe_bader_spin_density
 _atom_site_pbe_cm5_charge
 _atom_site_pbe_ddec_charge
 _atom_site_pbe_ddec_spin_density
 _atom_site_pbe_ddec_sum_bond_order
 _atom_site_pbe_magmom
Zr  Zr0  1  0.90779158  0.40647996  0.59236616  1  2.6346  0  1.62422  2.373  0  2.755858  0
Zr  Zr1  1  0.09334798  0.59192463  0.40695076  1  2.634792  0  1.624025  2.37313  0  2.756286  0
Zr  Zr2  1  0.09326301  0.40689408  0.59250320  1  2.634233  0  1.624019  2.372322  0  2.756656  0
Zr  Zr3  1  0.90733250  0.59204487  0.40737393  1  2.636533  0  1.623913  2.371966  0  2.756465  0
Zr  Zr4  1  0.90770698  0.59206800  0.59253785  1  2.632238  0  1.623863  2.371949  0  2.756362  0
Zr  Zr5  1  0.09322969  0.40656065  0.40700586  1  2.636129  0  1.622469  2.373065  0  2.752284  0
H  H6  1  0.92760460  0.42628311  0.71884934  1  0.602928  0  0.32972  0.419437  0  0.862168  0
H  H7  1  0.92729556  0.71839935  0.42671603  1  0.591972  0  0.329446  0.419272  0  0.862635  0
H  H8  1  0.21930182  0.42658926  0.42681969  1  0.595535  0  0.330522  0.420774  0  0.858264  0
H  H9  1  0.92728517  0.42642459  0.42700040  1  0.596108  0  0.330592  0.420682  0  0.858372  0
H  H10  1  0.29024296  0.63247724  0.14773177  1  0.057934  0  0.106597  0.122275  0  0.996766  0
H  H11  1  0.64395225  0.43419398  0.78768507  1  0.076295  0  0.10729  0.122887  0  0.994145  0
H  H12  1  0.72001016  0.56177156  0.85737015  1  0.069407  0  0.101846  0.112307  0  1.006859  0
H  H13  1  0.59393965  0.55452878  0.99328294  1  0.069293  0  0.102367  0.106835  0  0.992966  0
H  H14  1  0.35920478  0.36017611  0.21724789  1  0.096628  0  0.102092  0.11171  0  1.005652  0
H  H15  1  0.49559246  0.35931380  0.09185452  1  0.062863  0  0.100995  0.100231  0  0.997147  0
H  H16  1  0.13400809  0.78747279  0.43440463  1  0.066755  0  0.106906  0.122907  0  0.993965  0
H  H17  1  0.92945337  0.14736980  0.63266870  1  0.092805  0  0.106519  0.122314  0  0.996803  0
H  H18  1  0.06311277  0.21712870  0.36034688  1  0.09361  0  0.102232  0.112293  0  1.005093  0
H  H19  1  0.05296196  0.09179692  0.35937338  1  0.027978  0  0.100838  0.100054  0  0.997778  0
H  H20  1  0.86071292  0.85701321  0.56209243  1  0.063019  0  0.10205  0.11275  0  1.006441  0
H  H21  1  0.85799300  0.99308408  0.55463606  1  0.071139  0  0.102222  0.106273  0  0.993418  0
H  H22  1  0.28690998  0.14286759  0.43596830  1  0.067166  0  0.106445  0.12181  0  0.996196  0
H  H23  1  0.64401596  0.78571036  0.63401507  1  0.077318  0  0.107193  0.122557  0  0.995374  0
H  H24  1  0.72020452  0.85972810  0.35998775  1  0.057893  0  0.100343  0.110289  0  1.009324  0
H  H25  1  0.59469853  0.99611768  0.35888017  1  0.064138  0  0.100623  0.100845  0  0.997442  0
H  H26  1  0.35938691  0.21896350  0.56110734  1  0.075653  0  0.10285  0.112889  0  1.003658  0
H  H27  1  0.49591154  0.09362221  0.55153316  1  0.050053  0  0.100704  0.100369  0  0.997438  0
H  H28  1  0.93644064  0.63374166  0.78592676  1  0.084936  0  0.107448  0.123367  0  0.994795  0
H  H29  1  0.13442792  0.43573188  0.14323404  1  0.06883  0  0.106573  0.121712  0  0.996309  0
H  H30  1  0.86068174  0.56081322  0.21925703  1  0.098194  0  0.102769  0.112711  0  1.003975  0
H  H31  1  0.85919678  0.55138289  0.09376023  1  0.058918  0  0.100938  0.100823  0  0.997949  0
H  H32  1  0.06027300  0.35969534  0.86012315  1  0.090131  0  0.100351  0.10982  0  1.009851  0
H  H33  1  0.05062225  0.35873571  0.99637776  1  0.06013  0  0.100402  0.100302  0  0.997535  0
H  H34  1  0.11550072  0.81870952  0.17608088  1  0.12277  0  0.111313  0.124323  0  1.001407  0
H  H35  1  0.89112508  0.81748992  0.17559744  1  0.105483  0  0.112745  0.126893  0  0.998572  0
H  H36  1  0.88975643  0.17556201  0.81913382  1  0.094627  0  0.111163  0.124308  0  1.002237  0
H  H37  1  0.11577030  0.17514266  0.81796258  1  0.143809  0  0.11268  0.126234  0  0.999602  0
H  H38  1  0.28640270  0.43580428  0.63399219  1  0.081764  0  0.107101  0.122255  0  0.995444  0
H  H39  1  0.64377275  0.63356622  0.43627805  1  0.080062  0  0.10703  0.122977  0  0.995039  0
H  H40  1  0.72002736  0.35954487  0.56010828  1  0.093531  0  0.102312  0.112589  0  1.005589  0
H  H41  1  0.59428088  0.35847806  0.55075408  1  0.051993  0  0.100533  0.100394  0  0.997198  0
H  H42  1  0.36024488  0.55966913  0.35998102  1  0.094201  0  0.102494  0.113192  0  1.005472  0
H  H43  1  0.49640389  0.55036504  0.35888953  1  0.060816  0  0.10098  0.101177  0  0.996514  0
H  H44  1  0.46846973  0.65300172  0.94706838  1  0.435422  0  0.298332  0.291542  0  0.97539  0
H  H45  1  0.37356766  0.70550063  0.00904423  1  0.426611  0  0.307632  0.302213  0  0.941713  0
H  H46  1  0.45412978  0.41812615  0.97769468  1  0.449316  0  0.295103  0.289311  0  0.994779  0
H  H47  1  0.51872337  0.39282911  0.88536021  1  0.425445  0  0.30847  0.303324  0  0.942888  0
H  H48  1  0.14977065  0.97765178  0.41814002  1  0.449735  0  0.294964  0.288947  0  0.994636  0
H  H49  1  0.20282572  0.88531610  0.39282464  1  0.421724  0  0.308441  0.303361  0  0.942865  0
H  H50  1  0.93103088  0.94693241  0.65308764  1  0.423429  0  0.298153  0.290988  0  0.97587  0
H  H51  1  0.91146276  0.00890070  0.70558248  1  0.436386  0  0.307256  0.301674  0  0.941503  0
H  H52  1  0.47742679  0.95298203  0.41882531  1  0.450949  0  0.296146  0.290659  0  0.990114  0
H  H53  1  0.38504709  0.01752148  0.39350589  1  0.421045  0  0.307492  0.301513  0  0.94615  0
H  H54  1  0.45340807  0.97559018  0.65136576  1  0.436236  0  0.297725  0.292942  0  0.987463  0
H  H55  1  0.51843829  0.88354064  0.70416437  1  0.445379  0  0.308822  0.303655  0  0.942948  0
H  H56  1  0.91991284  0.65128219  0.97565602  1  0.441288  0  0.297646  0.293094  0  0.987355  0
H  H57  1  0.89410337  0.70397773  0.88364211  1  0.418873  0  0.308647  0.303116  0  0.943567  0
H  H58  1  0.15105525  0.41886190  0.95313888  1  0.440906  0  0.295892  0.289982  0  0.99093  0
H  H59  1  0.20418105  0.39341612  0.01775262  1  0.414404  0  0.30763  0.301674  0  0.945527  0
H  H60  1  0.47638691  0.41885882  0.65124982  1  0.442296  0  0.296385  0.290609  0  0.990328  0
H  H61  1  0.38368307  0.39402927  0.70426150  1  0.417143  0  0.308237  0.302996  0  0.943973  0
H  H62  1  0.45349993  0.65091862  0.41921943  1  0.440346  0  0.296306  0.290545  0  0.990111  0
H  H63  1  0.51806511  0.70385761  0.39444660  1  0.425707  0  0.308361  0.302536  0  0.944191  0
C  C64  1  0.76411765  0.50057788  0.73435105  1  1.540969  0  0.235029  0.644318  0  4.091648  0
C  C65  1  0.00089638  0.73393402  0.50104272  1  1.544232  0  0.235735  0.645715  0  4.089133  0
C  C66  1  0.23540027  0.49939247  0.26336145  1  1.539161  0  0.234254  0.640597  0  4.099071  0
C  C67  1  0.00181578  0.26298003  0.49971168  1  1.563801  0  0.234863  0.641925  0  4.097385  0
C  C68  1  0.00291099  0.26038363  0.73301135  1  1.561361  0  0.235331  0.635548  0  4.107992  0
C  C69  1  0.76353741  0.49959374  0.50202289  1  1.549227  0  0.234722  0.640978  0  4.097169  0
C  C70  1  0.00367411  0.73255594  0.26085313  1  1.582402  0  0.235289  0.636084  0  4.106657  0
C  C71  1  0.23483609  0.50152913  0.50004369  1  1.547959  0  0.23568  0.643775  0  4.096119  0
C  C72  1  0.00212520  0.49952966  0.73457401  1  1.541694  0  0.235772  0.642789  0  4.096198  0
C  C73  1  0.23462780  0.26262313  0.50209612  1  1.533321  0  0.235386  0.643737  0  4.092418  0
C  C74  1  0.00069820  0.50170821  0.26307368  1  1.558192  0  0.235327  0.643626  0  4.092301  0
C  C75  1  0.76384391  0.73416449  0.49994817  1  1.559129  0  0.234637  0.640869  0  4.098094  0
C  C76  1  0.31632351  0.49723094  0.18827925  1  -0.000751  0  -0.022797  -0.024527  0  4.030883  0
C  C77  1  0.68853250  0.49833703  0.81487870  1  -0.045571  0  -0.022621  -0.02297  0  4.031061  0
C  C78  1  0.33516545  0.57310453  0.13363891  1  -0.028776  0  -0.099053  -0.213421  0  3.942847  0
C  C79  1  0.40928990  0.57440240  0.06050919  1  0.385746  0  0.095812  0.257431  0  4.082537  0
C  C80  1  0.63177060  0.46104340  0.83316634  1  0.009638  0  -0.100234  -0.215053  0  3.942152  0
C  C81  1  0.55827662  0.46039822  0.90707859  1  0.431747  0  0.095245  0.258569  0  4.091698  0
C  C82  1  0.67478616  0.53355254  0.87187226  1  -0.037643  0  -0.108543  -0.143561  0  4.044052  0
C  C83  1  0.60406621  0.52993837  0.94691769  1  -0.085688  0  -0.097276  -0.12825  0  4.050049  0
C  C84  1  0.37358165  0.41940761  0.17317625  1  -0.038328  0  -0.10732  -0.137785  0  4.040304  0
C  C85  1  0.44869957  0.41981650  0.10262563  1  -0.063048  0  -0.099789  -0.137934  0  4.062287  0
C  C86  1  0.46744244  0.49595458  0.04427548  1  -0.016264  0  -0.017855  -0.023926  0  3.959968  0
C  C87  1  0.54445744  0.49489945  0.96589342  1  -0.005589  0  -0.02153  -0.037694  0  3.96762  0
C  C88  1  0.99810868  0.81459121  0.49862795  1  -0.032287  0  -0.023323  -0.023955  0  4.031119  0
C  C89  1  0.99800537  0.18803034  0.49742564  1  0.002188  0  -0.023029  -0.023623  0  4.028892  0
C  C90  1  0.07384124  0.83297434  0.46121154  1  -0.027234  0  -0.099457  -0.214896  0  3.942014  0
C  C91  1  0.07400116  0.90697392  0.46044580  1  0.42824  0  0.095267  0.259287  0  4.091305  0
C  C92  1  0.95792084  0.13336854  0.57325883  1  -0.023919  0  -0.098341  -0.213438  0  3.941615  0
C  C93  1  0.95551768  0.06032723  0.57448560  1  0.390422  0  0.095093  0.256325  0  4.081542  0
C  C94  1  0.03359896  0.17302067  0.41955690  1  -0.102418  0  -0.107845  -0.13913  0  4.039283  0
C  C95  1  0.02859364  0.10251480  0.41990508  1  -0.017978  0  -0.099683  -0.137642  0  4.062948  0
C  C96  1  0.91961592  0.87160387  0.53378049  1  0.021988  0  -0.109051  -0.144072  0  4.044566  0
C  C97  1  0.91882998  0.94673634  0.53004520  1  -0.10704  0  -0.097169  -0.127461  0  4.051045  0
C  C98  1  0.99448039  0.96578155  0.49492534  1  0.015955  0  -0.02103  -0.03832  0  3.967818  0
C  C99  1  0.99204416  0.04414763  0.49600799  1  0.00362  0  -0.017527  -0.02351  0  3.958787  0
C  C100  1  0.31530316  0.18719602  0.49934400  1  0.015872  0  -0.022606  -0.024217  0  4.027726  0
C  C101  1  0.68843680  0.81487767  0.49774414  1  -0.007831  0  -0.022493  -0.022012  0  4.028889  0
C  C102  1  0.33296610  0.13057428  0.46217011  1  0.008084  0  -0.099171  -0.214235  0  3.94022  0
C  C103  1  0.40688479  0.05712196  0.46097204  1  0.41244  0  0.095965  0.260189  0  4.090183  0
C  C104  1  0.63171582  0.83205483  0.57409287  1  -0.037722  0  -0.098246  -0.213782  0  3.939278  0
C  C105  1  0.55805686  0.90581845  0.57512392  1  0.348973  0  0.096441  0.26099  0  4.089701  0
C  C106  1  0.67489409  0.87317611  0.41943158  1  0.031416  0  -0.109402  -0.142777  0  4.046261  0
C  C107  1  0.60416026  0.94821673  0.41964794  1  -0.096235  0  -0.100791  -0.140161  0  4.069566  0
C  C108  1  0.37319801  0.17367614  0.53331888  1  -0.070896  0  -0.107191  -0.137177  0  4.036271  0
C  C109  1  0.44836076  0.10309015  0.52880040  1  -0.049167  0  -0.098924  -0.137753  0  4.066339  0
C  C110  1  0.46634965  0.04328088  0.49455935  1  -0.034978  0  -0.019115  -0.029078  0  3.961625  0
C  C111  1  0.54419348  0.96562835  0.49595332  1  0.037611  0  -0.018562  -0.02624  0  3.957393  0
C  C112  1  0.99913505  0.49745180  0.81517809  1  -0.049612  0  -0.022958  -0.021948  0  4.028562  0
C  C113  1  0.99829821  0.49906762  0.18754225  1  0.001629  0  -0.022611  -0.025083  0  4.029737  0
C  C114  1  0.96235377  0.57384337  0.83228238  1  -0.013632  0  -0.098391  -0.214731  0  3.938621  0
C  C115  1  0.96128346  0.57494898  0.90598118  1  0.381725  0  0.096566  0.261271  0  4.089798  0
C  C116  1  0.07448270  0.46197851  0.13088395  1  -0.002188  0  -0.099269  -0.213731  0  3.940895  0
C  C117  1  0.07527638  0.46087944  0.05734994  1  0.411143  0  0.095908  0.259777  0  4.091653  0
C  C118  1  0.91997611  0.53307048  0.17396129  1  -0.100768  0  -0.106919  -0.136434  0  4.037047  0
C  C119  1  0.91998445  0.52863959  0.10328551  1  -0.040158  0  -0.099368  -0.138836  0  4.066652  0
C  C120  1  0.03271192  0.41917994  0.87349921  1  -0.034634  0  -0.109253  -0.142191  0  4.045793  0
C  C121  1  0.02825576  0.41947097  0.94847414  1  -0.05379  0  -0.100672  -0.139266  0  4.067942  0
C  C122  1  0.99452451  0.49581371  0.96582024  1  0.018838  0  -0.018959  -0.027953  0  3.959054  0
C  C123  1  0.99609279  0.49445865  0.04346707  1  -0.017732  0  -0.019402  -0.028315  0  3.96149  0
C  C124  1  0.06690387  0.84803389  0.14629323  1  -0.040428  0  -0.078836  -0.124235  0  3.917755  0
C  C125  1  0.06717426  0.92184363  0.07309135  1  0.017264  0  -0.012292  -0.006704  0  4.075013  0
C  C126  1  0.13057352  0.96178792  0.03346632  1  0.457145  0  0.086716  0.112865  0  4.094272  0
C  C127  1  0.93947924  0.84757293  0.14625206  1  -0.035757  0  -0.077023  -0.122703  0  3.912925  0
C  C128  1  0.93814785  0.92160180  0.07329539  1  0.034269  0  -0.012007  -0.00607  0  4.071137  0
C  C129  1  0.87422081  0.96137593  0.03395551  1  0.526041  0  0.088138  0.116471  0  4.09194  0
C  C130  1  0.93878919  0.14580390  0.84848377  1  0.104664  0  -0.078234  -0.124454  0  3.918625  0
C  C131  1  0.93789945  0.07261266  0.92231026  1  -0.005104  0  -0.012363  -0.006244  0  4.074423  0
C  C132  1  0.87420963  0.03295898  0.96221147  1  0.496441  0  0.086702  0.112493  0  4.094468  0
C  C133  1  0.06667823  0.14578828  0.84804826  1  0.005727  0  -0.076893  -0.121792  0  3.913996  0
C  C134  1  0.06692972  0.07284053  0.92208935  1  0.007016  0  -0.011865  -0.005647  0  4.071982  0
C  C135  1  0.13042753  0.03350786  0.96185960  1  0.549929  0  0.08839  0.116095  0  4.092835  0
C  C136  1  0.00355947  0.81132769  0.18212880  1  0.054907  0  -0.011434  -0.021552  0  3.971211  0
C  C137  1  0.00249457  0.96005554  0.03506051  1  0.049238  0  0.00184  0.013038  0  3.951277  0
C  C138  1  0.00298231  0.18166612  0.81178385  1  -0.082258  0  -0.011937  -0.021493  0  3.972957  0
C  C139  1  0.00238172  0.03456988  0.96055495  1  -0.008902  0  0.002174  0.012408  0  3.95125  0
C  C140  1  0.31542827  0.49868399  0.49775492  1  -0.050642  0  -0.022231  -0.024169  0  4.030122  0
C  C141  1  0.68809640  0.49733472  0.49911143  1  0.043085  0  -0.022536  -0.022613  0  4.029245  0
C  C142  1  0.33263613  0.46186954  0.57409605  1  -0.016298  0  -0.099019  -0.213109  0  3.940171  0
C  C143  1  0.40636958  0.46075518  0.57509677  1  0.398692  0  0.096755  0.26065  0  4.091485  0
C  C144  1  0.63137935  0.57367520  0.46228447  1  -0.067472  0  -0.098544  -0.214811  0  3.940542  0
C  C145  1  0.55775590  0.57468766  0.46115423  1  0.446137  0  0.096608  0.261361  0  4.089624  0
C  C146  1  0.67456992  0.41900632  0.53274803  1  -0.103823  0  -0.107743  -0.140033  0  4.039782  0
C  C147  1  0.60376776  0.41923732  0.52834897  1  -0.060113  0  -0.099716  -0.13795  0  4.065941  0
C  C148  1  0.37361148  0.53235337  0.41942678  1  -0.033448  0  -0.108035  -0.140281  0  4.04129  0
C  C149  1  0.44857789  0.52795310  0.41965346  1  -0.00533  0  -0.10064  -0.139847  0  4.066353  0
C  C150  1  0.46609051  0.49409316  0.49593540  1  -0.042681  0  -0.019209  -0.027462  0  3.958925  0
C  C151  1  0.54383108  0.49552531  0.49450275  1  0.004263  0  -0.018736  -0.028416  0  3.959091  0
N  N152  1  0.42533974  0.65125383  0.00690482  1  -1.209077  0  -0.602416  -0.629276  0  3.336537  0
N  N153  1  0.49870295  0.43109343  0.91866515  1  -1.238907  0  -0.604119  -0.629878  0  3.349638  0
N  N154  1  0.15127500  0.91862334  0.43108466  1  -1.247941  0  -0.604344  -0.629999  0  3.349136  0
N  N155  1  0.91612341  0.00676825  0.65131081  1  -1.214828  0  -0.601495  -0.627522  0  3.335966  0
N  N156  1  0.41836704  0.99755953  0.43172306  1  -1.23576  0  -0.603324  -0.628629  0  3.349365  0
N  N157  1  0.49842999  0.91676075  0.65260499  1  -1.243708  0  -0.602172  -0.628741  0  3.348094  0
N  N158  1  0.93249549  0.65247146  0.91684470  1  -1.223757  0  -0.601844  -0.62822  0  3.347858  0
N  N159  1  0.15262085  0.43168561  0.99777537  1  -1.219381  0  -0.602742  -0.627621  0  3.349763  0
N  N160  1  0.41746135  0.43176751  0.65254434  1  -1.227228  0  -0.602472  -0.628325  0  3.350209  0
N  N161  1  0.49822778  0.65216128  0.43216474  1  -1.236638  0  -0.602593  -0.627837  0  3.34923  0
O  O162  1  0.79233221  0.44345400  0.70123955  1  -1.176308  0  -0.358022  -0.623616  0  2.27018  0
O  O163  1  0.06295796  0.70074924  0.44399415  1  -1.181676  0  -0.357825  -0.623602  0  2.269039  0
O  O164  1  0.20143452  0.56176043  0.29128431  1  -1.186558  0  -0.358304  -0.622221  0  2.284851  0
O  O165  1  0.94556049  0.29081589  0.56215674  1  -1.190218  0  -0.358486  -0.623222  0  2.284977  0
O  O166  1  0.06296561  0.29021218  0.70230243  1  -1.17826  0  -0.348144  -0.609193  0  2.280325  0
O  O167  1  0.79137211  0.56202836  0.44564494  1  -1.188267  0  -0.357368  -0.621432  0  2.277214  0
O  O168  1  0.94451443  0.70183538  0.29067144  1  -1.177004  0  -0.347887  -0.609336  0  2.280099  0
O  O169  1  0.20094521  0.44516305  0.56250550  1  -1.18932  0  -0.357304  -0.622271  0  2.277829  0
O  O170  1  0.94569240  0.56174296  0.70072689  1  -1.182826  0  -0.357025  -0.621668  0  2.277479  0
O  O171  1  0.20098300  0.29037246  0.44558327  1  -1.184134  0  -0.356905  -0.622321  0  2.276942  0
O  O172  1  0.06309007  0.44516226  0.29083866  1  -1.187193  0  -0.35711  -0.621968  0  2.276119  0
O  O173  1  0.79184247  0.70026498  0.56221929  1  -1.188109  0  -0.35634  -0.620613  0  2.277604  0
O  O174  1  0.20559907  0.29468374  0.56033416  1  -1.174069  0  -0.359211  -0.621471  0  2.270421  0
O  O175  1  0.93938604  0.55989419  0.29518044  1  -1.189583  0  -0.359077  -0.621102  0  2.271329  0
O  O176  1  0.79561279  0.70534733  0.43858600  1  -1.178016  0  -0.359182  -0.621196  0  2.272429  0
O  O177  1  0.06049227  0.43812244  0.70580443  1  -1.180828  0  -0.359076  -0.621679  0  2.27236  0
O  O178  1  0.94193123  0.29170330  0.70412640  1  -1.180735  0  -0.3503  -0.611113  0  2.279027  0
O  O179  1  0.20599086  0.55973013  0.43865588  1  -1.179686  0  -0.359046  -0.621165  0  2.274277  0
O  O180  1  0.06220543  0.70369057  0.29218301  1  -1.178195  0  -0.350786  -0.612128  0  2.279632  0
O  O181  1  0.79555148  0.43820757  0.56024016  1  -1.180569  0  -0.35835  -0.619992  0  2.274366  0
O  O182  1  0.06036905  0.29457957  0.43855836  1  -1.19129  0  -0.35779  -0.620615  0  2.271302  0
O  O183  1  0.79584333  0.55916251  0.70488664  1  -1.173633  0  -0.358097  -0.620999  0  2.27666  0
O  O184  1  0.94005233  0.70447816  0.55965975  1  -1.187568  0  -0.358451  -0.621656  0  2.276012  0
O  O185  1  0.20644235  0.43820286  0.29498488  1  -1.178039  0  -0.357518  -0.620114  0  2.271874  0
O  O186  1  0.94815729  0.44713860  0.44767660  1  -1.225899  0  -0.694886  -1.065612  0  2.36744  0
O  O187  1  0.15703828  0.44721266  0.44758819  1  -1.225083  0  -0.694643  -1.065392  0  2.36689  0
O  O188  1  0.94849501  0.65612372  0.44694222  1  -1.223898  0  -0.693649  -1.065908  0  2.3648  0
O  O189  1  0.94846468  0.44646795  0.65657443  1  -1.233082  0  -0.694351  -1.066954  0  2.364964  0
O  O190  1  0.03889593  0.53784983  0.53814954  1  -1.200764  0  -0.791974  -1.148381  0  2.133223  0
O  O191  1  0.88512475  0.53768155  0.53831681  1  -1.200935  0  -0.791938  -1.148067  0  2.13247  0
O  O192  1  0.03874156  0.53793228  0.38432243  1  -1.198344  0  -0.790253  -1.148798  0  2.124133  0
O  O193  1  0.03902346  0.38386592  0.53836723  1  -1.192213  0  -0.790376  -1.148524  0  2.123848  0
F  F194  1  0.19214379  0.06888729  0.92670199  1  -0.621644  0  -0.099072  -0.11899  0  1.346442  0
F  F195  1  0.19267841  0.92653158  0.06845029  1  -0.621452  0  -0.100258  -0.120484  0  1.346268  0
F  F196  1  0.81243185  0.06788469  0.92689506  1  -0.623907  0  -0.100417  -0.120532  0  1.34657  0
F  F197  1  0.81233094  0.92617432  0.06930419  1  -0.620723  0  -0.09901  -0.119068  0  1.346496  0
