# generated using pymatgen
data_CdH12C12(NCl)2
_symmetry_space_group_name_H-M   'P 1'
_cell_length_a   7.25605317
_cell_length_b   9.27922625
_cell_length_c   10.76675407
_cell_angle_alpha   115.62208008
_cell_angle_beta   103.47529989
_cell_angle_gamma   89.94895228
_symmetry_Int_Tables_number   1
_chemical_formula_structural   CdH12C12(NCl)2
_chemical_formula_sum   'Cd2 H24 C24 N4 Cl4'
_cell_volume   631.51445711
_cell_formula_units_Z   2
loop_
 _symmetry_equiv_pos_site_id
 _symmetry_equiv_pos_as_xyz
  1  'x, y, z'
loop_
 _atom_site_type_symbol
 _atom_site_label
 _atom_site_symmetry_multiplicity
 _atom_site_fract_x
 _atom_site_fract_y
 _atom_site_fract_z
 _atom_site_occupancy
 _atom_site_pbe_bader_spin_density
 _atom_site_pbe_cm5_charge
 _atom_site_pbe_ddec_charge
 _atom_site_pbe_ddec_spin_density
 _atom_site_pbe_ddec_sum_bond_order
 _atom_site_pbe_magmom
Cd  Cd0  1  0.25009968  0.42093311  0.00014612  1  0  0.588293  0.732135  0  2.472389  0
Cd  Cd1  1  0.74990223  0.57906611  0.99985139  1  0  0.588271  0.732114  0  2.472395  0
H  H2  1  0.94411345  0.18008116  0.70808698  1  0  0.103735  0.08513  0  1.031847  0
H  H3  1  0.55638362  0.47237066  0.29199183  1  0  0.103682  0.084269  0  1.031967  0
H  H4  1  0.05588698  0.81991813  0.29191309  1  0  0.103733  0.085135  0  1.031835  0
H  H5  1  0.44361986  0.52762977  0.70800730  1  0  0.103669  0.084283  0  1.031935  0
H  H6  1  0.84592190  0.89251555  0.44445800  1  0  0.089476  0.127416  0  1.034833  0
H  H7  1  0.65399386  0.44878720  0.55555816  1  0  0.089556  0.127656  0  1.035034  0
H  H8  1  0.15407622  0.10747775  0.55554046  1  0  0.08947  0.127391  0  1.034857  0
H  H9  1  0.34600813  0.55121331  0.44444447  1  0  0.089559  0.12765  0  1.035032  0
H  H10  1  0.65342031  0.92807154  0.52425538  1  0  0.090564  0.127743  0  1.016804  0
H  H11  1  0.84680286  0.40438026  0.47601548  1  0  0.090527  0.127379  0  1.017086  0
H  H12  1  0.34658119  0.07192533  0.47574400  1  0  0.090551  0.127723  0  1.016801  0
H  H13  1  0.15320059  0.59562021  0.52398552  1  0  0.090534  0.127361  0  1.017107  0
H  H14  1  0.74202769  0.73819255  0.46910178  1  0  0.090855  0.136419  0  1.005782  0
H  H15  1  0.75805308  0.26962386  0.53076675  1  0  0.090764  0.136382  0  1.005387  0
H  H16  1  0.25797393  0.26180558  0.53090086  1  0  0.090869  0.13644  0  1.005812  0
H  H17  1  0.24194703  0.73037300  0.46923147  1  0  0.090759  0.136358  0  1.005414  0
H  H18  1  0.92758728  0.69611564  0.66889929  1  0  0.102291  0.105777  0  1.012566  0
H  H19  1  0.57232408  0.02751151  0.33085959  1  0  0.102303  0.105998  0  1.011332  0
H  H20  1  0.07241329  0.30388489  0.33110311  1  0  0.102292  0.105794  0  1.012584  0
H  H21  1  0.42767390  0.97249019  0.66914000  1  0  0.102303  0.105991  0  1.011356  0
H  H22  1  0.15452396  0.79989426  0.90292879  1  0  0.099022  0.119182  0  1.035728  0
H  H23  1  0.34555401  0.89698587  0.09686136  1  0  0.099328  0.119164  0  1.035606  0
H  H24  1  0.84547253  0.20010753  0.09707431  1  0  0.099027  0.119185  0  1.035712  0
H  H25  1  0.65444397  0.10301583  0.90313824  1  0  0.099336  0.119198  0  1.035651  0
C  C26  1  0.99106023  0.08940826  0.74432571  1  0  0.044311  0.031082  0  3.914276  0
C  C27  1  0.50932549  0.34538713  0.25564658  1  0  0.044665  0.032902  0  3.913881  0
C  C28  1  0.00893883  0.91059101  0.25567226  1  0  0.04428  0.031044  0  3.914255  0
C  C29  1  0.49067656  0.65461333  0.74435325  1  0  0.044658  0.032814  0  3.91384  0
C  C30  1  0.92073450  0.92639557  0.66237914  1  0  -0.004573  0.130006  0  3.96397  0
C  C31  1  0.57958700  0.26441631  0.33751612  1  0  -0.004378  0.129034  0  3.965505  0
C  C32  1  0.07926452  0.07360373  0.33762070  1  0  -0.004582  0.129989  0  3.963977  0
C  C33  1  0.42041648  0.73558412  0.66248301  1  0  -0.004381  0.129094  0  3.96546  0
C  C34  1  0.78403967  0.86808001  0.51827267  1  0  -0.240293  -0.413386  0  3.971331  0
C  C35  1  0.71610767  0.35038989  0.48172966  1  0  -0.240347  -0.413309  0  3.971687  0
C  C36  1  0.21595900  0.13191689  0.48172625  1  0  -0.240284  -0.413359  0  3.971352  0
C  C37  1  0.28389157  0.64961058  0.51826878  1  0  -0.240355  -0.413264  0  3.971651  0
C  C38  1  0.98193496  0.82354929  0.72394199  1  0  -0.071279  -0.087843  0  3.93046  0
C  C39  1  0.51819439  0.09988931  0.27585900  1  0  -0.071251  -0.087965  0  3.929914  0
C  C40  1  0.01806862  0.17645242  0.27606134  1  0  -0.07128  -0.087903  0  3.930498  0
C  C41  1  0.48180499  0.90011240  0.72414176  1  0  -0.07129  -0.088049  0  3.929937  0
C  C42  1  0.11066937  0.88267725  0.85736031  1  0  -0.080976  -0.146142  0  3.948472  0
C  C43  1  0.38945342  0.02543134  0.14246346  1  0  -0.081643  -0.145463  0  3.949312  0
C  C44  1  0.88933136  0.11732451  0.14264349  1  0  -0.080968  -0.146081  0  3.948407  0
C  C45  1  0.61054471  0.97457158  0.85753754  1  0  -0.081612  -0.145449  0  3.94924  0
C  C46  1  0.17926259  0.04645767  0.92954713  1  0  0.115457  0.161869  0  3.990147  0
C  C47  1  0.32101105  0.11692546  0.07031938  1  0  0.115295  0.160347  0  3.99193  0
C  C48  1  0.82073555  0.95354525  0.07045386  1  0  0.115453  0.161797  0  3.990112  0
C  C49  1  0.67898836  0.88307620  0.92967952  1  0  0.115253  0.160355  0  3.991794  0
N  N50  1  0.11616853  0.14666171  0.87224475  1  0  -0.32478  -0.25162  0  3.522295  0
N  N51  1  0.38423082  0.27454249  0.12772144  1  0  -0.32484  -0.251778  0  3.522348  0
N  N52  1  0.88382927  0.85333879  0.12775438  1  0  -0.324744  -0.251547  0  3.522261  0
N  N53  1  0.61576999  0.72545918  0.87227863  1  0  -0.324782  -0.25171  0  3.522268  0
Cl  Cl54  1  0.01047465  0.50407969  0.83329951  1  0  -0.307828  -0.491075  0  1.244008  0
Cl  Cl55  1  0.48970544  0.67109973  0.16689891  1  0  -0.307928  -0.491308  0  1.244369  0
Cl  Cl56  1  0.98952423  0.49591837  0.16669800  1  0  -0.307823  -0.491057  0  1.243971  0
Cl  Cl57  1  0.51029503  0.32889952  0.83309929  1  0  -0.307923  -0.4913  0  1.244363  0
