# generated using pymatgen
data_CdH7C7N7O
_symmetry_space_group_name_H-M   'P 1'
_cell_length_a   6.82849714
_cell_length_b   8.42422083
_cell_length_c   10.67792482
_cell_angle_alpha   71.27197656
_cell_angle_beta   70.98773974
_cell_angle_gamma   66.19139812
_symmetry_Int_Tables_number   1
_chemical_formula_structural   CdH7C7N7O
_chemical_formula_sum   'Cd2 H14 C14 N14 O2'
_cell_volume   518.39964383
_cell_formula_units_Z   2
loop_
 _symmetry_equiv_pos_site_id
 _symmetry_equiv_pos_as_xyz
  1  'x, y, z'
loop_
 _atom_site_type_symbol
 _atom_site_label
 _atom_site_symmetry_multiplicity
 _atom_site_fract_x
 _atom_site_fract_y
 _atom_site_fract_z
 _atom_site_occupancy
 _atom_site_hle17_bader_spin_density
 _atom_site_hle17_ddec_charge
 _atom_site_hle17_ddec_spin_density
 _atom_site_hle17_ddec_sum_bond_order
 _atom_site_hle17_magmom
 _atom_site_hse06_10hf_bader_spin_density
 _atom_site_hse06_10hf_ddec_charge
 _atom_site_hse06_10hf_ddec_spin_density
 _atom_site_hse06_10hf_ddec_sum_bond_order
 _atom_site_hse06_10hf_magmom
 _atom_site_hse06_bader_spin_density
 _atom_site_hse06_ddec_charge
 _atom_site_hse06_ddec_spin_density
 _atom_site_hse06_ddec_sum_bond_order
 _atom_site_hse06_magmom
 _atom_site_pbe_bader_spin_density
 _atom_site_pbe_cm5_charge
 _atom_site_pbe_ddec_charge
 _atom_site_pbe_ddec_spin_density
 _atom_site_pbe_ddec_sum_bond_order
 _atom_site_pbe_magmom
Cd  Cd0  1  0.23804205  0.95297491  0.56224987  1  0  1.039577  0  1.857321  0  0  0.857922  0  2.320123  0  0  0.904589  0  2.281508  0  0  0.78618  0.825599  0  2.34578  0
Cd  Cd1  1  0.76196030  0.04702495  0.43775196  1  0  1.039568  0  1.857296  0  0  0.85794  0  2.32005  0  0  0.904603  0  2.281438  0  0  0.786186  0.825616  0  2.345708  0
H  H2  1  0.26197070  0.45468979  0.02447400  1  0  0.111426  0  0.96495  0  0  0.118486  0  1.030353  0  0  0.121181  0  1.030031  0  0  0.110615  0.116905  0  1.030211  0
H  H3  1  0.73802305  0.54530477  0.97552530  1  0  0.111534  0  0.964928  0  0  0.118555  0  1.03037  0  0  0.121251  0  1.030046  0  0  0.110636  0.116974  0  1.030229  0
H  H4  1  0.30405468  0.20543441  0.93192629  1  0  0.102968  0  0.971844  0  0  0.106692  0  1.04443  0  0  0.109714  0  1.041722  0  0  0.109101  0.104454  0  1.046515  0
H  H5  1  0.69594220  0.79456407  0.06806763  1  0  0.102934  0  0.971817  0  0  0.106653  0  1.044423  0  0  0.109675  0  1.041715  0  0  0.109057  0.104415  0  1.046509  0
H  H6  1  0.29364887  0.26452238  0.68600543  1  0  0.112688  0  0.961972  0  0  0.117285  0  1.030062  0  0  0.120926  0  1.028352  0  0  0.107905  0.115076  0  1.030704  0
H  H7  1  0.70635309  0.73548271  0.31398578  1  0  0.112643  0  0.961969  0  0  0.117221  0  1.030105  0  0  0.120864  0  1.02839  0  0  0.10789  0.115013  0  1.030747  0
H  H8  1  0.24524074  0.57392327  0.54498484  1  0  0.084314  0  0.926057  0  0  0.091171  0  0.990669  0  0  0.093832  0  0.988793  0  0  0.117933  0.08907  0  0.992337  0
H  H9  1  0.75476158  0.42608451  0.45501124  1  0  0.084305  0  0.926029  0  0  0.091175  0  0.990639  0  0  0.093837  0  0.988761  0  0  0.117951  0.089072  0  0.992308  0
H  H10  1  0.28968943  0.87785186  0.02609093  1  0  0.145156  0  0.9619  0  0  0.160034  0  1.029098  0  0  0.162321  0  1.028432  0  0  0.101461  0.15848  0  1.029533  0
H  H11  1  0.71030935  0.12214536  0.97391135  1  0  0.145177  0  0.961971  0  0  0.160059  0  1.029148  0  0  0.162349  0  1.028481  0  0  0.101485  0.158507  0  1.029583  0
H  H12  1  0.28203003  0.65469379  0.07838891  1  0  0.137245  0  0.983211  0  0  0.153929  0  1.048198  0  0  0.156093  0  1.047697  0  0  0.095618  0.152399  0  1.048448  0
H  H13  1  0.71796561  0.34530346  0.92161588  1  0  0.13729  0  0.98316  0  0  0.153972  0  1.048143  0  0  0.156138  0  1.047639  0  0  0.095654  0.152442  0  1.048393  0
H  H14  1  0.03748611  0.83755623  0.07236490  1  0  0.155141  0  0.936431  0  0  0.177441  0  0.993452  0  0  0.179296  0  0.993579  0  0  0.109453  0.176104  0  0.993328  0
H  H15  1  0.96250845  0.16244368  0.92763942  1  0  0.155145  0  0.936469  0  0  0.177446  0  0.993476  0  0  0.179302  0  0.993603  0  0  0.10945  0.176108  0  0.993354  0
C  C16  1  0.23856457  0.64552450  0.83201814  1  0  0.089375  0  3.754739  0  0  0.090108  0  3.99608  0  0  0.089845  0  4.019253  0  0  0.103479  0.090381  0  3.98053  0
C  C17  1  0.76143266  0.35447273  0.16798446  1  0  0.089427  0  3.754578  0  0  0.090166  0  3.995917  0  0  0.089898  0  4.019094  0  0  0.103536  0.090439  0  3.980366  0
C  C18  1  0.25996032  0.47785762  0.91841794  1  0  -0.093961  0  3.672905  0  0  -0.112174  0  3.914652  0  0  -0.117546  0  3.938602  0  0  -0.06322  -0.108952  0  3.898611  0
C  C19  1  0.74003750  0.52214221  0.08157920  1  0  -0.094179  0  3.673037  0  0  -0.112343  0  3.914793  0  0  -0.117714  0  3.938743  0  0  -0.063304  -0.109122  0  3.898752  0
C  C20  1  0.28188392  0.33758124  0.86639731  1  0  -0.004176  0  3.678051  0  0  -0.023026  0  3.928622  0  0  -0.022209  0  3.949102  0  0  -0.060339  -0.023496  0  3.915067  0
C  C21  1  0.71811808  0.66241987  0.13359584  1  0  -0.004137  0  3.67815  0  0  -0.022999  0  3.928735  0  0  -0.02218  0  3.949212  0  0  -0.060259  -0.02347  0  3.915183  0
C  C22  1  0.27837068  0.36921582  0.73097267  1  0  -0.07355  0  3.66692  0  0  -0.091648  0  3.92423  0  0  -0.096365  0  3.943441  0  0  -0.06588  -0.088814  0  3.911033  0
C  C23  1  0.72162813  0.63078930  0.26902104  1  0  -0.073306  0  3.666657  0  0  -0.091379  0  3.923962  0  0  -0.096098  0  3.943182  0  0  -0.06577  -0.088545  0  3.910761  0
C  C24  1  0.25178362  0.54141622  0.65148618  1  0  0.146822  0  3.687448  0  0  0.113566  0  3.948016  0  0  0.119865  0  3.96498  0  0  0.058098  0.109529  0  3.936471  0
C  C25  1  0.74821668  0.45858891  0.34851004  1  0  0.146594  0  3.687369  0  0  0.113329  0  3.947949  0  0  0.119625  0  3.964914  0  0  0.057936  0.109292  0  3.936404  0
C  C26  1  0.22636898  0.80168706  0.87638579  1  0  0.488479  0  3.628299  0  0  0.467981  0  3.898689  0  0  0.49114  0  3.900558  0  0  0.17673  0.452091  0  3.897258  0
C  C27  1  0.77362881  0.19830883  0.12361610  1  0  0.488636  0  3.628086  0  0  0.468092  0  3.898532  0  0  0.491254  0  3.900398  0  0  0.17677  0.452201  0  3.897102  0
C  C28  1  0.21241884  0.78911967  0.02110780  1  0  -0.43438  0  3.652059  0  0  -0.514095  0  3.880297  0  0  -0.520938  0  3.885269  0  0  -0.24666  -0.509122  0  3.876661  0
C  C29  1  0.78757895  0.21087621  0.97889409  1  0  -0.434538  0  3.652143  0  0  -0.514243  0  3.880429  0  0  -0.52109  0  3.885395  0  0  -0.246732  -0.509271  0  3.876795  0
N  N30  1  0.35958187  0.19016530  0.46315606  1  0  -0.62585  0  2.731182  0  0  -0.575263  0  3.031784  0  0  -0.603497  0  3.03954  0  0  -0.331018  -0.555959  0  3.025983  0
N  N31  1  0.64042674  0.80982658  0.53684935  1  0  -0.625711  0  2.731228  0  0  -0.575117  0  3.031827  0  0  -0.603339  0  3.039579  0  0  -0.330963  -0.555836  0  3.026072  0
N  N32  1  0.29793103  0.30608016  0.36835130  1  0  0.40313  0  4.231228  0  0  0.43471  0  4.511381  0  0  0.450563  0  4.542375  0  0  0.08109  0.423938  0  4.490715  0
N  N33  1  0.70207016  0.69392239  0.63165383  1  0  0.402893  0  4.231189  0  0  0.434463  0  4.511365  0  0  0.450315  0  4.542363  0  0  0.080931  0.423691  0  4.490689  0
N  N34  1  0.24333104  0.42014094  0.27721066  1  0  -0.37079  0  2.411418  0  0  -0.369312  0  2.637587  0  0  -0.376408  0  2.64945  0  0  -0.179889  -0.364275  0  2.629592  0
N  N35  1  0.75666797  0.57985902  0.72280212  1  0  -0.370677  0  2.411183  0  0  -0.369187  0  2.63734  0  0  -0.376291  0  2.649205  0  0  -0.179802  -0.364148  0  2.62935  0
N  N36  1  0.15842386  0.91654351  0.37940401  1  0  -0.630757  0  2.702465  0  0  -0.585678  0  3.004905  0  0  -0.612587  0  3.011853  0  0  -0.338396  -0.567174  0  2.999758  0
N  N37  1  0.84158263  0.08346159  0.62059190  1  0  -0.630674  0  2.701781  0  0  -0.58559  0  3.004234  0  0  -0.612503  0  3.011172  0  0  -0.338306  -0.56708  0  2.999085  0
N  N38  1  0.24168873  0.98390045  0.26669399  1  0  0.403839  0  4.22158  0  0  0.435069  0  4.503185  0  0  0.451111  0  4.533971  0  0  0.081966  0.424342  0  4.482189  0
N  N39  1  0.75830937  0.01610211  0.73331082  1  0  0.403681  0  4.221184  0  0  0.434903  0  4.50282  0  0  0.450952  0  4.533592  0  0  0.081839  0.424178  0  4.481826  0
N  N40  1  0.32092441  0.04673099  0.15760750  1  0  -0.362284  0  2.418532  0  0  -0.358549  0  2.649022  0  0  -0.366482  0  2.660244  0  0  -0.173713  -0.353056  0  2.641583  0
N  N41  1  0.67907373  0.95327947  0.84238873  1  0  -0.362125  0  2.418785  0  0  -0.358375  0  2.649259  0  0  -0.366325  0  2.660505  0  0  -0.17362  -0.352886  0  2.641822  0
N  N42  1  0.23348899  0.67501040  0.70070981  1  0  -0.344383  0  3.296092  0  0  -0.277075  0  3.556183  0  0  -0.294502  0  3.577552  0  0  -0.326935  -0.265265  0  3.541399  0
N  N43  1  0.76651288  0.32499076  0.29928898  1  0  -0.344346  0  3.296038  0  0  -0.277044  0  3.556158  0  0  -0.29447  0  3.577529  0  0  -0.326942  -0.265237  0  3.541373  0
O  O44  1  0.22492895  0.94400712  0.79205560  1  0  -0.480074  0  2.01309  0  0  -0.417632  0  2.24132  0  0  -0.439995  0  2.236703  0  0  -0.253592  -0.402302  0  2.244237  0
O  O45  1  0.77506824  0.05599012  0.20794887  1  0  -0.480091  0  2.012969  0  0  -0.417636  0  2.241229  0  0  -0.439997  0  2.236613  0  0  -0.25361  -0.40231  0  2.24415  0
