# generated using pymatgen
data_Zn4H25C48N4ClO13
_symmetry_space_group_name_H-M   'P 1'
_cell_length_a   17.94195667
_cell_length_b   19.19664290
_cell_length_c   19.26457252
_cell_angle_alpha   94.59925739
_cell_angle_beta   99.12907934
_cell_angle_gamma   103.47300766
_symmetry_Int_Tables_number   1
_chemical_formula_structural   Zn4H25C48N4ClO13
_chemical_formula_sum   'Zn4 H25 C48 N4 Cl1 O13'
_cell_volume   6323.27263430
_cell_formula_units_Z   1
loop_
 _symmetry_equiv_pos_site_id
 _symmetry_equiv_pos_as_xyz
  1  'x, y, z'
loop_
 _atom_site_type_symbol
 _atom_site_label
 _atom_site_symmetry_multiplicity
 _atom_site_fract_x
 _atom_site_fract_y
 _atom_site_fract_z
 _atom_site_occupancy
 _atom_site_pbe_bader_charge
 _atom_site_pbe_bader_spin_density
 _atom_site_pbe_cm5_charge
 _atom_site_pbe_ddec_charge
 _atom_site_pbe_ddec_spin_density
 _atom_site_pbe_ddec_sum_bond_order
 _atom_site_pbe_magmom
Zn  Zn0  1  0.56536978  0.45173456  0.45021678  1  1.31684  0  0.670473  0.962867  0  2.381184  0
Zn  Zn1  1  0.42998019  0.42891808  0.54359860  1  1.313208  0  0.670927  0.96791  0  2.358098  0
Zn  Zn2  1  0.44130570  0.54456330  0.43130682  1  1.313037  0  0.670103  0.961581  0  2.389473  0
Zn  Zn3  1  0.56720028  0.57442702  0.57588290  1  1.314805  0  0.669955  0.963954  0  2.364002  0
H  H4  1  0.07672171  0.65085002  0.63775432  1  0.083437  0  0.10419  0.105182  0  0.992463  0
H  H5  1  0.04790856  0.33697454  0.32395225  1  0.093329  0  0.108507  0.123851  0  0.987499  0
H  H6  1  0.60387513  0.57493991  0.79918034  1  0.090829  0  0.110789  0.117194  0  0.986344  0
H  H7  1  0.59870903  0.56983995  0.92863572  1  0.101566  0  0.108243  0.112275  0  1.00324  0
H  H8  1  0.63025424  0.46912867  0.11689094  1  0.078855  0  0.109756  0.114364  0  0.989543  0
H  H9  1  0.62028980  0.46101541  0.24533405  1  0.104567  0  0.109485  0.115138  0  0.99012  0
H  H10  1  0.36907740  0.44293628  0.74394478  1  0.100218  0  0.110618  0.117492  0  0.988138  0
H  H11  1  0.41835134  0.53964802  0.08344181  1  0.09649  0  0.108481  0.111917  0  1.005758  0
H  H12  1  0.36114327  0.44431026  0.87361149  1  0.08377  0  0.110359  0.11499  0  0.987819  0
H  H13  1  0.41155627  0.53671119  0.21268187  1  0.115201  0  0.110975  0.118051  0  0.985578  0
H  H14  1  0.43859111  0.21579856  0.57999380  1  0.099723  0  0.110433  0.115886  0  0.985958  0
H  H15  1  0.20073423  0.52241738  0.52213748  1  0.041425  0  0.107481  0.110932  0  1.004718  0
H  H16  1  0.44390513  0.08579533  0.57724443  1  0.114094  0  0.108444  0.111912  0  1.002363  0
H  H17  1  0.56245882  0.92282908  0.63145516  1  0.066477  0  0.110394  0.115033  0  0.987018  0
H  H18  1  0.56877379  0.79254971  0.62339245  1  0.106311  0  0.11053  0.117944  0  0.987118  0
H  H19  1  0.53858013  0.23177221  0.39154952  1  0.094565  0  0.11076  0.117245  0  0.989159  0
H  H20  1  0.44056272  0.88793161  0.41582523  1  0.100323  0  0.108152  0.111173  0  1.006804  0
H  H21  1  0.53653422  0.09963355  0.38485465  1  0.076476  0  0.110395  0.114727  0  0.987528  0
H  H22  1  0.44212140  0.75689143  0.40949050  1  0.103727  0  0.110642  0.117244  0  0.988001  0
H  H23  1  0.92606595  0.36382367  0.34693146  1  0.061366  0  0.104333  0.106585  0  0.989275  0
H  H24  1  0.95478737  0.67466270  0.66316643  1  0.05273  0  0.103126  0.103119  0  0.993591  0
H  H25  1  0.80932802  0.64605745  0.63929164  1  0.100346  0  0.107307  0.11399  0  0.99515  0
H  H26  1  0.80036397  0.47887253  0.47528482  1  0.11036  0  0.106014  0.110892  0  1.024626  0
H  H27  1  0.14624535  0.58193644  0.57142413  1  0.033444  0  0.102843  0.101973  0  1.011858  0
H  H28  1  0.85629393  0.43036663  0.41570787  1  0.021544  0  0.105155  0.107377  0  1.007624  0
C  C29  1  0.49160419  0.50756925  0.68765049  1  1.554158  0  0.225415  0.60081  0  4.176656  0
C  C30  1  0.84064471  0.61622979  0.60894353  1  -0.015914  0  -0.085225  -0.094042  0  4.002295  0
C  C31  1  0.83624318  0.52145563  0.51569346  1  -0.076441  0  -0.077773  -0.12929  0  3.933012  0
C  C32  1  0.91832580  0.53620408  0.52747214  1  -0.027081  0  -0.001607  0.032749  0  3.942922  0
C  C33  1  0.96128648  0.59245259  0.58230900  1  0.025745  0  -0.003654  0.085089  0  4.012924  0
C  C34  1  0.95984756  0.49652429  0.48677543  1  -0.03246  0  -0.001416  0.0364  0  3.954977  0
C  C35  1  0.04243618  0.51216909  0.50342991  1  0.037138  0  -0.002224  0.029849  0  3.960272  0
C  C36  1  0.08284416  0.56864099  0.55876017  1  -0.05588  0  -0.08883  -0.123262  0  4.022103  0
C  C37  1  0.04417318  0.60754101  0.59621758  1  -0.08129  0  -0.090893  -0.136852  0  4.022956  0
C  C38  1  0.91953726  0.44213786  0.42956095  1  0.052499  0  -0.090771  -0.129652  0  4.028221  0
C  C39  1  0.95830592  0.40459527  0.39085493  1  -0.051598  0  -0.090343  -0.133129  0  4.020829  0
C  C40  1  0.51057429  0.49669936  0.31264713  1  1.559267  0  0.22598  0.59929  0  4.171758  0
C  C41  1  0.04104309  0.41751149  0.40693999  1  -0.00633  0  -0.006102  0.090682  0  4.02693  0
C  C42  1  0.08380589  0.47139783  0.46389686  1  0.026798  0  -0.002876  0.034534  0  3.950097  0
C  C43  1  0.08083007  0.37776936  0.36753545  1  -0.036814  0  -0.093601  -0.200994  0  3.970045  0
C  C44  1  0.16091192  0.39031419  0.38392985  1  0.051416  0  0.014  0.128959  0  4.060213  0
C  C45  1  0.16566655  0.48229555  0.47899056  1  -0.009939  0  -0.081797  -0.136364  0  3.94595  0
C  C46  1  0.51523240  0.49822229  0.23611389  1  -0.018567  0  -0.015692  -0.037534  0  3.961123  0
C  C47  1  0.45836629  0.52088573  0.19076346  1  -0.072202  0  -0.077389  -0.075163  0  3.965026  0
C  C48  1  0.46211080  0.52282676  0.11957652  1  -0.032121  0  -0.081359  -0.142696  0  3.952513  0
C  C49  1  0.52430111  0.50363057  0.09323392  1  0.355941  0  0.090066  0.173203  0  4.047711  0
C  C50  1  0.58227734  0.48275964  0.13872445  1  0.011085  0  -0.078683  -0.141647  0  3.955112  0
C  C51  1  0.49083070  0.30965873  0.49038769  1  1.551078  0  0.228204  0.605021  0  4.168698  0
C  C52  1  0.57683860  0.47859299  0.20953577  1  -0.049132  0  -0.078576  -0.079565  0  3.971572  0
C  C53  1  0.54885590  0.54292783  0.88761276  1  -0.006407  0  -0.081564  -0.144293  0  3.949267  0
C  C54  1  0.55165561  0.54534380  0.81621573  1  -0.052389  0  -0.079094  -0.079474  0  3.96844  0
C  C55  1  0.47996595  0.50538505  0.90778395  1  0.292418  0  0.091464  0.176217  0  4.047231  0
C  C56  1  0.48714997  0.50835334  0.76439196  1  -0.057958  0  -0.013447  -0.032754  0  3.96345  0
C  C57  1  0.41846559  0.47127377  0.78479319  1  0.019972  0  -0.079757  -0.082929  0  3.975114  0
C  C58  1  0.41415769  0.47149433  0.85615228  1  0.009309  0  -0.079701  -0.142626  0  3.954876  0
C  C59  1  0.50614586  0.76757766  0.51586784  1  -0.0103  0  -0.014346  -0.036088  0  3.962061  0
C  C60  1  0.46940423  0.79406953  0.45730352  1  -0.044323  0  -0.078469  -0.076018  0  3.967106  0
C  C61  1  0.46817509  0.86618768  0.46072962  1  0.04544  0  -0.082288  -0.143677  0  3.953016  0
C  C62  1  0.50706474  0.68983865  0.51129978  1  1.54473  0  0.226735  0.602388  0  4.172166  0
C  C63  1  0.50244074  0.91248119  0.52381285  1  0.281531  0  0.090934  0.175418  0  4.046184  0
C  C64  1  0.53730046  0.88582292  0.58304872  1  -0.029274  0  -0.078759  -0.141008  0  3.953645  0
C  C65  1  0.54051655  0.81396918  0.57858550  1  -0.036168  0  -0.080035  -0.083989  0  3.973632  0
C  C66  1  0.46394785  0.11832840  0.53685748  1  -0.029053  0  -0.082445  -0.14498  0  3.946611  0
C  C67  1  0.46143789  0.19016107  0.53841313  1  -0.02784  0  -0.075925  -0.073638  0  3.962237  0
C  C68  1  0.49223151  0.08637264  0.48156579  1  0.29524  0  0.092756  0.177287  0  4.048663  0
C  C69  1  0.48950768  0.23142195  0.48659308  1  0.01745  0  -0.012664  -0.034035  0  3.959695  0
C  C70  1  0.51725570  0.19914714  0.43136497  1  -0.084797  0  -0.080444  -0.082764  0  3.975801  0
C  C71  1  0.51666978  0.12649085  0.42781724  1  0.034273  0  -0.079158  -0.141782  0  3.955251  0
C  C72  1  0.29147868  0.45820373  0.45793239  1  1.624789  0  0.227366  0.621238  0  4.18576  0
C  C73  1  0.71077495  0.54204545  0.54083004  1  1.539218  0  0.227547  0.607662  0  4.162656  0
C  C74  1  0.79769487  0.56012831  0.55535434  1  0.010918  0  -0.023162  -0.042983  0  4.001518  0
C  C75  1  0.20412633  0.44298621  0.44032549  1  0.010547  0  -0.016037  -0.070209  0  3.968843  0
C  C76  1  0.92089272  0.63171812  0.62181850  1  -0.043177  0  -0.089716  -0.135624  0  3.999929  0
N  N77  1  0.53369787  0.50545093  0.02188074  1  -0.464167  0  -0.14463  -0.133393  0  3.267741  0
N  N78  1  0.47094240  0.49997778  0.97871208  1  -0.462781  0  -0.145325  -0.133596  0  3.282788  0
N  N79  1  0.50259789  0.98629745  0.53229000  1  -0.474782  0  -0.146296  -0.13627  0  3.268021  0
N  N80  1  0.49657035  0.01381678  0.47469935  1  -0.44321  0  -0.144436  -0.131926  0  3.283622  0
Cl  Cl81  1  0.20940221  0.34167692  0.33539420  1  -0.209276  0  -0.023438  -0.092154  0  1.413093  0
O  O82  1  0.50101487  0.49994917  0.50104044  1  -1.232241  0  -0.571407  -1.028775  0  2.532219  0
O  O83  1  0.53221882  0.34688231  0.45167103  1  -1.179282  0  -0.316119  -0.550242  0  2.341865  0
O  O84  1  0.54794035  0.66992257  0.56289367  1  -1.16814  0  -0.315742  -0.548591  0  2.331183  0
O  O85  1  0.43936017  0.45966885  0.64498606  1  -1.17721  0  -0.316265  -0.549435  0  2.34015  0
O  O86  1  0.46038358  0.52589334  0.33510325  1  -1.173186  0  -0.314721  -0.545254  0  2.346219  0
O  O87  1  0.54714967  0.55416211  0.67084737  1  -1.167644  0  -0.314117  -0.545473  0  2.327285  0
O  O88  1  0.55696383  0.46671688  0.34961361  1  -1.180331  0  -0.31445  -0.545369  0  2.330803  0
O  O89  1  0.45116957  0.33319918  0.53226080  1  -1.164877  0  -0.314404  -0.545959  0  2.323689  0
O  O90  1  0.46647515  0.64941395  0.45578729  1  -1.178449  0  -0.316184  -0.547628  0  2.346452  0
O  O91  1  0.31974577  0.42164984  0.50263928  1  -1.159267  0  -0.30908  -0.537639  0  2.309296  0
O  O92  1  0.67817621  0.58060536  0.57736609  1  -1.165816  0  -0.316884  -0.547682  0  2.332536  0
O  O93  1  0.32841233  0.50754444  0.42694555  1  -1.167921  0  -0.310071  -0.537459  0  2.319342  0
O  O94  1  0.67572745  0.48942383  0.49298371  1  -1.183985  0  -0.319946  -0.553693  0  2.346222  0
