# generated using pymatgen
data_CuH27C22N(ClO)2
_symmetry_space_group_name_H-M   'P 1'
_cell_length_a   8.32941504
_cell_length_b   9.49654382
_cell_length_c   13.87799747
_cell_angle_alpha   89.99920759
_cell_angle_beta   90.00028706
_cell_angle_gamma   97.26795876
_symmetry_Int_Tables_number   1
_chemical_formula_structural   CuH27C22N(ClO)2
_chemical_formula_sum   'Cu2 H54 C44 N2 Cl4 O4'
_cell_volume   1088.93857540
_cell_formula_units_Z   2
loop_
 _symmetry_equiv_pos_site_id
 _symmetry_equiv_pos_as_xyz
  1  'x, y, z'
loop_
 _atom_site_type_symbol
 _atom_site_label
 _atom_site_symmetry_multiplicity
 _atom_site_fract_x
 _atom_site_fract_y
 _atom_site_fract_z
 _atom_site_occupancy
 _atom_site_pbe_bader_charge
 _atom_site_pbe_bader_spin_density
 _atom_site_pbe_cm5_charge
 _atom_site_pbe_ddec_charge
 _atom_site_pbe_ddec_spin_density
 _atom_site_pbe_ddec_sum_bond_order
 _atom_site_pbe_magmom
Cu  Cu0  1  0.83303652  0.93673906  0.39222188  1  0.967125  0.520199  0.568085  0.767414  0.693425  2.4103  0.517
Cu  Cu1  1  0.16696420  0.06325971  0.89222160  1  0.967129  -0.52022  0.568104  0.767443  -0.693443  2.410315  -0.517
H  H2  1  0.11742458  0.82144988  0.54881967  1  0.498835  0.00026  0.326075  0.287779  0.000479  0.937612  0.0
H  H3  1  0.88258350  0.17855451  0.04881723  1  0.498838  -0.00026  0.326044  0.287718  -0.00048  0.937698  0.0
H  H4  1  0.50572823  0.66351539  0.34853631  1  0.118261  -3.8e-05  0.098949  0.097525  -0.000113  1.045826  0.0
H  H5  1  0.49426727  0.33648314  0.84853866  1  0.118268  3.8e-05  0.098957  0.097522  0.000113  1.045834  0.0
H  H6  1  0.64769505  0.45185513  0.34815994  1  0.069724  2.2e-05  0.099522  0.097266  6e-06  1.039965  0.0
H  H7  1  0.35228889  0.54813807  0.84815843  1  0.069819  -2.2e-05  0.099521  0.097238  -6e-06  1.039905  0.0
H  H8  1  0.61725239  0.28204445  0.48497439  1  0.131429  0.000115  0.095292  0.097988  8.6e-05  1.039605  0.0
H  H9  1  0.38273990  0.71794825  0.98497280  1  0.131482  -0.000115  0.095281  0.097968  -8.6e-05  1.039695  0.0
H  H10  1  0.43839710  0.32598327  0.62411072  1  0.092928  -0.000577  0.098291  0.110288  -0.000523  1.031177  0.0
H  H11  1  0.56159870  0.67400583  0.12410842  1  0.093021  0.000577  0.09829  0.110354  0.000523  1.031278  0.0
H  H12  1  0.35351107  0.62494370  0.70143589  1  0.032153  -4.2e-05  0.099235  0.105219  -1.9e-05  1.007459  0.0
H  H13  1  0.64649646  0.37504712  0.20143236  1  0.032315  4.2e-05  0.09921  0.105239  1.9e-05  1.007398  0.0
H  H14  1  0.23806874  0.45577702  0.69229113  1  0.093544  -0.000256  0.098416  0.12818  -0.000243  1.016677  0.0
H  H15  1  0.76193467  0.54421927  0.19228919  1  0.093576  0.000256  0.098426  0.128197  0.000243  1.016763  0.0
H  H16  1  0.97214834  0.76504927  0.68531633  1  0.000782  -1.7e-05  0.091345  0.087226  -1.4e-05  1.003219  0.0
H  H17  1  0.02786598  0.23495674  0.18531744  1  0.000726  1.7e-05  0.091359  0.087184  1.4e-05  1.003194  0.0
H  H18  1  0.15473782  0.76372978  0.75028278  1  0.051126  3.8e-05  0.085528  0.084409  3.9e-05  1.028546  0.0
H  H19  1  0.84526594  0.23626539  0.25027752  1  0.050925  -3.8e-05  0.08556  0.084463  -3.9e-05  1.028466  0.0
H  H20  1  0.92135875  0.63962099  0.84009495  1  0.032252  -0.000416  0.082312  0.08289  -0.000369  1.013429  0.0
H  H21  1  0.07863279  0.36038407  0.34009861  1  0.032522  0.000416  0.082306  0.082848  0.00037  1.013463  0.0
H  H22  1  0.05974567  0.52073647  0.81211333  1  0.012361  -3.8e-05  0.087449  0.084686  -2.5e-05  0.993468  0.0
H  H23  1  0.94023895  0.47926380  0.31210818  1  0.012361  3.8e-05  0.08741  0.084697  2.4e-05  0.993423  0.0
H  H24  1  0.74351082  0.54726035  0.70382404  1  -0.002461  -5.9e-05  0.080007  0.069835  -2.6e-05  1.01501  0.0
H  H25  1  0.25648663  0.45275268  0.20383164  1  -0.002257  5.9e-05  0.08003  0.069864  2.6e-05  1.014957  0.0
H  H26  1  0.78530146  0.40409994  0.77685333  1  -0.010642  -3e-06  0.081031  0.072968  1.1e-05  1.02211  0.0
H  H27  1  0.21468278  0.59590844  0.27685657  1  -0.009728  3e-06  0.08108  0.073066  -1.1e-05  1.021911  0.0
H  H28  1  0.81353778  0.35459755  0.59869678  1  0.048455  0.000421  0.083199  0.084731  0.000373  1.037415  0.0
H  H29  1  0.18645858  0.64541433  0.09870091  1  0.048713  -0.000421  0.083244  0.0847  -0.000373  1.037512  0.0
H  H30  1  0.99254030  0.34282148  0.66278198  1  0.06171  -0.000313  0.078848  0.090592  -0.000308  1.017047  0.0
H  H31  1  0.00745346  0.65718490  0.16277829  1  0.061865  0.000313  0.078823  0.090611  0.000308  1.016917  0.0
H  H32  1  0.05021304  0.47665603  0.51015930  1  0.028683  0.000508  0.092175  0.099557  0.000419  0.994455  0.0
H  H33  1  0.94979194  0.52335441  0.01015520  1  0.028532  -0.000508  0.092126  0.099469  -0.000419  0.994409  0.0
H  H34  1  0.91059593  0.59488411  0.54089060  1  0.029527  -6.2e-05  0.093197  0.095604  -7.9e-05  0.979473  0.0
H  H35  1  0.08941239  0.40513105  0.04089026  1  0.029627  6.2e-05  0.093172  0.095533  7.9e-05  0.979513  0.0
H  H36  1  0.18120232  0.12244633  0.33588603  1  0.090933  -0.000334  0.106183  0.133096  -0.000228  0.97527  0.0
H  H37  1  0.81879627  0.87754928  0.83589278  1  0.090844  0.000335  0.10617  0.133062  0.000228  0.975223  0.0
H  H38  1  0.09131617  0.98734926  0.25871935  1  0.101905  0.000107  0.10075  0.12433  5.3e-05  1.008834  0.0
H  H39  1  0.90868284  0.01264573  0.75872163  1  0.101969  -0.000107  0.100761  0.124318  -5.3e-05  1.008881  0.0
H  H40  1  0.50715213  0.14139495  0.35685556  1  0.085058  -6e-05  0.103813  0.126587  -3.8e-05  0.984073  0.0
H  H41  1  0.49283951  0.85860978  0.85685653  1  0.08463  6e-05  0.103821  0.126626  3.8e-05  0.984139  0.0
H  H42  1  0.61241910  0.03510080  0.28068672  1  0.078887  -8.5e-05  0.093414  0.104105  -5.7e-05  1.041425  0.0
H  H43  1  0.38758499  0.96490332  0.78068423  1  0.079025  8.5e-05  0.093425  0.10412  5.7e-05  1.04141  0.0
H  H44  1  0.48201929  0.16910478  0.14030974  1  0.023896  3e-05  0.084372  0.12127  -3.1e-05  1.025269  0.0
H  H45  1  0.51797960  0.83088826  0.64031537  1  0.023958  -3e-05  0.084362  0.121268  3.1e-05  1.025173  0.0
H  H46  1  0.26958084  0.15513607  0.13121886  1  0.030049  0.000334  0.088969  0.124984  0.000211  1.005695  0.0
H  H47  1  0.73042206  0.84485186  0.63122640  1  0.030143  -0.000334  0.088948  0.12501  -0.000211  1.005572  0.0
H  H48  1  0.37060754  0.25757273  0.22621781  1  0.018705  -3.7e-05  0.083709  0.11078  -2.5e-05  1.030347  0.0
H  H49  1  0.62939113  0.74242183  0.72623180  1  0.018643  3.7e-05  0.083705  0.110786  2.5e-05  1.030371  0.0
H  H50  1  0.47415016  0.90596593  0.14217320  1  0.030883  5.7e-05  0.083829  0.123982  5e-05  1.002185  0.0
H  H51  1  0.52585641  0.09402180  0.64216498  1  0.030958  -5.7e-05  0.083856  0.123991  -5e-05  1.00212  0.0
H  H52  1  0.34884240  0.79884448  0.22394038  1  0.049417  -4.3e-05  0.080585  0.110969  -5.1e-05  1.044141  0.0
H  H53  1  0.65115519  0.20115118  0.72393149  1  0.049636  4.4e-05  0.080602  0.110956  5.1e-05  1.044204  0.0
H  H54  1  0.26011564  0.88918572  0.12926622  1  0.079605  4.2e-05  0.080349  0.130496  0.000113  1.042827  0.0
H  H55  1  0.73989264  0.11080650  0.62926204  1  0.07948  -4.2e-05  0.080372  0.130533  -0.000113  1.042896  0.0
C  C56  1  0.30578351  0.74207364  0.49182217  1  0.548791  0.000437  0.178627  0.303486  0.000509  3.878469  0.0
C  C57  1  0.69421617  0.25792850  0.99181431  1  0.54874  -0.000437  0.178477  0.30329  -0.000509  3.878429  0.0
C  C58  1  0.39607941  0.61947742  0.48929154  1  0.011315  0.000937  -0.011664  -0.054642  0.00074  3.957146  0.001
C  C59  1  0.60392746  0.38052479  0.98928585  1  0.011321  -0.000936  -0.0116  -0.054601  -0.00074  3.95728  -0.001
C  C60  1  0.49167538  0.59129146  0.40967730  1  -0.1317  0.000188  -0.073731  -0.074184  0.000153  3.958453  0.0
C  C61  1  0.50832590  0.40871015  0.90967612  1  -0.131793  -0.000188  -0.073733  -0.074216  -0.000153  3.958802  0.0
C  C62  1  0.57076236  0.47089268  0.40891418  1  0.0311  0.000237  -0.0927  -0.099043  0.00016  3.998369  0.0
C  C63  1  0.42924042  0.52910258  0.90891019  1  0.030986  -0.000237  -0.092743  -0.09905  -0.00016  3.99843  0.0
C  C64  1  0.55300302  0.37542272  0.48601579  1  -0.092793  0.000149  -0.07517  -0.041786  0.000173  3.967184  0.0
C  C65  1  0.44699858  0.62457635  0.98601239  1  -0.093082  -0.00015  -0.075106  -0.041638  -0.000173  3.967192  0.0
C  C66  1  0.45538602  0.40086587  0.56426241  1  -0.050656  -0.000241  -0.086711  -0.136417  -0.000287  3.940002  0.0
C  C67  1  0.54462217  0.59912974  0.06425934  1  -0.050693  0.000242  -0.086704  -0.136559  0.000287  3.940512  0.0
C  C68  1  0.37726530  0.52229052  0.56706472  1  -0.006402  -0.000175  0.007095  0.123297  -0.000173  3.918735  0.0
C  C69  1  0.62274019  0.47771139  0.06705798  1  -0.006117  0.000175  0.0071  0.12341  0.000173  3.918923  0.0
C  C70  1  0.27715209  0.55378452  0.65231593  1  -0.031897  -0.000187  -0.154791  -0.289774  -0.000186  3.905852  0.0
C  C71  1  0.72285453  0.44621150  0.15231121  1  -0.031914  0.000187  -0.154802  -0.289999  0.000186  3.905942  0.0
C  C72  1  0.13127966  0.62727812  0.62379252  1  0.319268  0.000139  0.087427  0.269498  7.5e-05  3.769159  0.0
C  C73  1  0.86873143  0.37272589  0.12378819  1  0.319045  -0.000139  0.087492  0.269582  -7.5e-05  3.769054  0.0
C  C74  1  0.05926852  0.69550086  0.71160592  1  -0.032939  0.000139  -0.161538  -0.224923  8.5e-05  3.89186  0.0
C  C75  1  0.94073695  0.30450037  0.21160677  1  -0.032491  -0.000139  -0.161631  -0.224873  -8.5e-05  3.891719  0.0
C  C76  1  0.97196157  0.58451488  0.77975517  1  -0.008114  -0.00062  -0.169751  -0.138327  -0.000563  3.932391  0.0
C  C77  1  0.02803156  0.41548817  0.27975312  1  -0.008397  0.000621  -0.169746  -0.138418  0.000564  3.932403  0.0
C  C78  1  0.84099002  0.48632187  0.72710881  1  0.01687  -0.000112  -0.171233  -0.142857  -6.7e-05  3.9467  0.0
C  C79  1  0.15900157  0.51369068  0.22710907  1  0.015859  0.000112  -0.171266  -0.142883  6.7e-05  3.946379  0.0
C  C80  1  0.90990462  0.41780614  0.63927523  1  -0.058344  9.8e-05  -0.175582  -0.146444  0.000255  3.928608  0.0
C  C81  1  0.09009304  0.58220389  0.13927609  1  -0.059008  -9.9e-05  -0.175643  -0.146526  -0.000255  3.928544  0.0
C  C82  1  0.99757209  0.52844609  0.57136373  1  -0.009126  0.000378  -0.160856  -0.217129  0.000416  3.859561  0.0
C  C83  1  0.00243447  0.47156317  0.07136108  1  -0.009162  -0.000378  -0.16079  -0.216928  -0.000417  3.859466  0.0
C  C84  1  0.32530349  0.85814550  0.42221795  1  0.010871  0.016638  -0.056286  -0.320673  0.012281  3.927545  0.014
C  C85  1  0.67470012  0.14185482  0.92221690  1  0.010623  -0.016639  -0.056289  -0.320541  -0.012282  3.927377  -0.014
C  C86  1  0.18534765  0.91598244  0.38734573  1  0.782525  -0.001512  0.147716  0.444732  -0.00043  3.937135  -0.004
C  C87  1  0.81464838  0.08401747  0.88734058  1  0.782031  0.001511  0.147713  0.444666  0.00043  3.937121  0.004
C  C88  1  0.19813737  0.01823228  0.30453260  1  -0.088577  0.005862  -0.160015  -0.33663  0.004052  3.871431  0.005
C  C89  1  0.80186267  0.98176712  0.80453759  1  -0.088228  -0.005859  -0.160017  -0.336551  -0.00405  3.871623  -0.005
C  C90  1  0.35562289  0.02807421  0.24641776  1  0.058532  -0.000422  -0.017935  0.279193  -0.00023  3.79844  -0.001
C  C91  1  0.64437155  0.97192312  0.74642169  1  0.058261  0.000422  -0.017825  0.279205  0.00023  3.798293  0.001
C  C92  1  0.49653965  0.03911303  0.31802118  1  -0.068252  0.007551  -0.163165  -0.335266  0.005176  3.886543  0.006
C  C93  1  0.50345611  0.96088928  0.81802481  1  -0.067964  -0.007554  -0.163188  -0.335365  -0.005178  3.886524  -0.006
C  C94  1  0.37017327  0.16061423  0.18284458  1  -0.061927  0.000879  -0.24266  -0.409932  0.000656  3.875596  0.001
C  C95  1  0.62982694  0.83937693  0.68285117  1  -0.061723  -0.000879  -0.242638  -0.409945  -0.000656  3.875362  -0.001
C  C96  1  0.35918575  0.89748899  0.18190720  1  -0.135139  8.2e-05  -0.250232  -0.421799  3.3e-05  3.857239  0.0
C  C97  1  0.64081851  0.10250538  0.68190066  1  -0.135251  -8.3e-05  -0.250359  -0.421863  -3.3e-05  3.857346  0.0
C  C98  1  0.48172908  0.92443922  0.39343776  1  0.743066  -0.002597  0.144167  0.432947  -0.00113  3.968607  -0.005
C  C99  1  0.51826414  0.07556587  0.89344123  1  0.743179  0.002594  0.144196  0.433037  0.001129  3.968605  0.005
N  N100  1  0.19012142  0.74292641  0.55686381  1  -1.183455  0.002528  -0.362403  -0.270326  0.00168  3.498387  0.002
N  N101  1  0.80989227  0.25707467  0.05685898  1  -1.183043  -0.002529  -0.36229  -0.270179  -0.001681  3.498116  -0.002
Cl  Cl102  1  0.88442224  0.15113396  0.45682579  1  -0.602976  0.121889  -0.313474  -0.511037  0.081582  1.196911  0.093
Cl  Cl103  1  0.11558893  0.84886677  0.95683157  1  -0.602891  -0.121882  -0.313452  -0.511029  -0.081576  1.196955  -0.093
Cl  Cl104  1  0.79765548  0.80789841  0.25772177  1  -0.619209  0.108307  -0.323296  -0.525312  0.07304  1.172531  0.082
Cl  Cl105  1  0.20233362  0.19209444  0.75771676  1  -0.619185  -0.108302  -0.323303  -0.52531  -0.073036  1.17252  -0.082
O  O106  1  0.04702516  0.88174714  0.42599465  1  -1.105035  0.094029  -0.298513  -0.468924  0.063958  2.454547  0.087
O  O107  1  0.95297697  0.11825098  0.92599388  1  -1.104961  -0.094054  -0.298585  -0.469009  -0.063974  2.454256  -0.087
O  O108  1  0.60793308  0.89328338  0.43552773  1  -1.080948  0.115024  -0.288261  -0.442495  0.07811  2.439644  0.105
O  O109  1  0.39206971  0.10671880  0.93552406  1  -1.081143  -0.114984  -0.288228  -0.442482  -0.078084  2.439894  -0.105
