# generated using pymatgen
data_CuH16C17NO4
_symmetry_space_group_name_H-M   'P 1'
_cell_length_a   9.65679723
_cell_length_b   10.12534944
_cell_length_c   10.55261773
_cell_angle_alpha   71.99677552
_cell_angle_beta   63.88091678
_cell_angle_gamma   63.06835050
_symmetry_Int_Tables_number   1
_chemical_formula_structural   CuH16C17NO4
_chemical_formula_sum   'Cu2 H32 C34 N2 O8'
_cell_volume   818.18553373
_cell_formula_units_Z   2
loop_
 _symmetry_equiv_pos_site_id
 _symmetry_equiv_pos_as_xyz
  1  'x, y, z'
loop_
 _atom_site_type_symbol
 _atom_site_label
 _atom_site_symmetry_multiplicity
 _atom_site_fract_x
 _atom_site_fract_y
 _atom_site_fract_z
 _atom_site_occupancy
 _atom_site_pbe_cm5_charge
 _atom_site_pbe_ddec_charge
 _atom_site_pbe_ddec_spin_density
 _atom_site_pbe_ddec_sum_bond_order
 _atom_site_pbe_magmom
Cu  Cu0  1  0.37122503  0.48770835  0.50530962  1  0.687045  0.753683  -0.705889  2.421543  -0.546
Cu  Cu1  1  0.62879102  0.51229142  0.49470051  1  0.687049  0.753781  0.705897  2.421338  0.546
H  H2  1  0.39125576  0.65325688  0.07228519  1  0.104053  0.105922  -0.000273  1.01933  0.0
H  H3  1  0.60872746  0.34674408  0.92774327  1  0.104035  0.105908  0.000273  1.019314  0.0
H  H4  1  0.42137233  0.79137558  0.82696473  1  0.098755  0.097558  0.000131  1.036727  0.0
H  H5  1  0.57860365  0.20860962  0.17305996  1  0.09874  0.097569  -0.000131  1.036783  0.0
H  H6  1  0.61361692  0.93087447  0.71208615  1  0.100157  0.097312  3e-06  1.004107  0.0
H  H7  1  0.38638203  0.06909480  0.28790770  1  0.100154  0.097298  -3e-06  1.004014  0.0
H  H8  1  0.77784271  0.92652115  0.84206364  1  0.099379  0.094536  -9.9e-05  1.044319  0.0
H  H9  1  0.22214031  0.07347835  0.15793027  1  0.099316  0.094473  9.9e-05  1.044321  0.0
H  H10  1  0.75062628  0.78421798  0.08420829  1  0.104055  0.10346  0.000255  1.02411  0.0
H  H11  1  0.24936701  0.21579277  0.91578669  1  0.104048  0.103534  -0.000255  1.024001  0.0
H  H12  1  0.99927733  0.90649712  0.62986376  1  0.102346  0.102013  -0.000276  1.027968  0.0
H  H13  1  0.00073235  0.09351587  0.37012408  1  0.10234  0.102007  0.000276  1.028097  0.0
H  H14  1  0.81951428  0.15935864  0.71108020  1  0.09958  0.105966  0.000117  1.018083  0.0
H  H15  1  0.18048765  0.84064773  0.28892122  1  0.099583  0.105973  -0.000117  1.018077  0.0
H  H16  1  0.94383900  0.30054633  0.75312394  1  0.098018  0.090113  7e-06  1.030012  0.0
H  H17  1  0.05615174  0.69945900  0.24689075  1  0.098031  0.090109  -7e-06  1.030064  0.0
H  H18  1  0.24969872  0.20328560  0.69699880  1  0.100934  0.10873  -0.000109  1.028701  0.0
H  H19  1  0.75029211  0.79673086  0.30300682  1  0.100952  0.108744  0.000109  1.028803  0.0
H  H20  1  0.42687199  0.95376955  0.61282989  1  0.102004  0.099431  0.000315  1.039046  0.0
H  H21  1  0.57312843  0.04626024  0.38715939  1  0.102012  0.099426  -0.000315  1.039202  0.0
H  H22  1  0.27266010  0.36397828  0.34002635  1  0.121969  0.097743  5.1e-05  1.016128  0.0
H  H23  1  0.72736982  0.63602387  0.65999275  1  0.121944  0.097616  -5.1e-05  1.016281  0.0
H  H24  1  0.00816883  0.38118026  0.32715757  1  0.125688  0.103081  -3.5e-05  0.988556  0.0
H  H25  1  0.99186236  0.61882740  0.67285083  1  0.125693  0.103083  3.5e-05  0.988357  0.0
H  H26  1  0.93945451  0.40673688  0.93690745  1  0.080032  0.151992  -1.6e-05  1.032986  0.0
H  H27  1  0.06051782  0.59325006  0.06306699  1  0.079985  0.151926  1.6e-05  1.032921  0.0
H  H28  1  0.93967529  0.22688604  0.03462530  1  0.081133  0.156606  1e-06  1.022409  0.0
H  H29  1  0.06029893  0.77309639  0.96534595  1  0.081203  0.156648  -1e-06  1.022462  0.0
H  H30  1  0.74756650  0.38339355  0.05162449  1  0.079772  0.153515  7e-06  1.038388  0.0
H  H31  1  0.25240960  0.61659237  0.94835919  1  0.07973  0.153348  -8e-06  1.038331  0.0
H  H32  1  0.88560074  0.37589700  0.12574740  1  0.080482  0.162794  -5e-06  1.028966  0.0
H  H33  1  0.11438447  0.62408101  0.87422652  1  0.080502  0.162653  5e-06  1.02889  0.0
C  C34  1  0.54882139  0.62854128  0.24052106  1  0.210501  0.564787  -0.000164  4.170724  0.0
C  C35  1  0.45118949  0.37144609  0.75948442  1  0.210489  0.564662  0.000163  4.170744  0.0
C  C36  1  0.56875398  0.71079453  0.09299409  1  -0.016974  -0.032774  -5.3e-05  3.972825  0.0
C  C37  1  0.43124909  0.28919507  0.90701192  1  -0.016976  -0.032745  5.4e-05  3.972669  0.0
C  C38  1  0.47589065  0.71324623  0.02026474  1  -0.083906  -0.097796  0.000677  3.969733  0.001
C  C39  1  0.52409851  0.28674902  0.97975077  1  -0.083921  -0.097794  -0.000677  3.969783  -0.001
C  C40  1  0.49294698  0.79092767  0.88326056  1  -0.094075  -0.093217  0.000487  4.012607  0.001
C  C41  1  0.50703925  0.20906081  0.11675245  1  -0.094001  -0.09327  -0.000487  4.01273  -0.001
C  C42  1  0.60134120  0.86829457  0.81876673  1  -0.087925  -0.076739  0.000103  3.998462  0.0
C  C43  1  0.39865213  0.13168820  0.18123192  1  -0.088021  -0.076712  -0.000103  3.99858  0.0
C  C44  1  0.69404911  0.86588358  0.89100993  1  -0.091684  -0.087335  -0.000503  4.008056  -0.001
C  C45  1  0.30594283  0.13410814  0.10898753  1  -0.091532  -0.087208  0.000503  4.008111  0.001
C  C46  1  0.67868647  0.78679311  0.02735112  1  -0.078256  -0.080246  -0.000602  3.94638  -0.001
C  C47  1  0.32130979  0.21320201  0.97264835  1  -0.078273  -0.080368  0.000601  3.946187  0.001
C  C48  1  0.32718096  0.76108159  0.57843070  1  0.212428  0.57037  -0.000322  4.163323  -0.001
C  C49  1  0.67282883  0.23892812  0.42156565  1  0.212458  0.570463  0.000322  4.16317  0.001
C  C50  1  0.22235064  0.91402316  0.62071922  1  -0.023855  -0.04257  0.000144  3.981371  0.0
C  C51  1  0.77765605  0.08599430  0.37926750  1  -0.023917  -0.042559  -0.000143  3.981383  0.0
C  C52  1  0.05151010  0.97232398  0.64657637  1  -0.083862  -0.095446  0.000627  3.977441  0.001
C  C53  1  0.94849750  0.02769125  0.35341161  1  -0.083809  -0.095445  -0.000627  3.977341  -0.001
C  C54  1  0.95202829  0.11194450  0.69265735  1  -0.091002  -0.086326  0.000482  3.994887  0.001
C  C55  1  0.04797300  0.88806631  0.30734014  1  -0.091059  -0.086432  -0.000482  3.994852  -0.001
C  C56  1  0.02281726  0.19288902  0.71427056  1  -0.088631  -0.069179  -1.3e-05  3.99537  0.0
C  C57  1  0.97717818  0.80712185  0.28573492  1  -0.088575  -0.069073  1.3e-05  3.995312  0.0
C  C58  1  0.19375388  0.13768119  0.68472171  1  -0.093713  -0.090262  -0.000497  3.993287  -0.001
C  C59  1  0.80624162  0.86233523  0.31527829  1  -0.093725  -0.090165  0.000497  3.993492  0.001
C  C60  1  0.29337173  0.99869862  0.63723695  1  -0.083177  -0.096328  -0.000657  3.978898  -0.001
C  C61  1  0.70663080  0.00132332  0.36275102  1  -0.083232  -0.096501  0.000656  3.97932  0.001
C  C62  1  0.15019865  0.42468767  0.41154112  1  0.061091  0.054149  0.000699  3.915438  0.001
C  C63  1  0.84982675  0.57532000  0.58847147  1  0.061215  0.054381  -0.000698  3.915179  -0.001
C  C64  1  0.00525597  0.43469308  0.40401324  1  0.06484  0.057167  -0.000681  3.905675  -0.001
C  C65  1  0.99477102  0.56531348  0.59599999  1  0.064943  0.057255  0.000681  3.90512  0.001
C  C66  1  0.87840442  0.34783785  0.03715259  1  -0.339227  -0.612628  -2.3e-05  3.851603  0.0
C  C67  1  0.12157388  0.65214575  0.96282239  1  -0.339232  -0.612299  2.3e-05  3.851499  0.0
N  N68  1  0.14449853  0.48985243  0.50759690  1  -0.315237  -0.194642  0.000294  3.505774  -0.001
N  N69  1  0.85552593  0.51015190  0.49241801  1  -0.315218  -0.194678  -0.000293  3.505799  0.001
O  O70  1  0.42776111  0.58334014  0.30210235  1  -0.309497  -0.517215  -0.055617  2.372971  -0.077
O  O71  1  0.57224927  0.41664838  0.69790582  1  -0.309581  -0.517249  0.055614  2.372941  0.077
O  O72  1  0.65269696  0.61098740  0.29403068  1  -0.310364  -0.520021  0.055741  2.37101  0.077
O  O73  1  0.34731880  0.38899659  0.70597104  1  -0.310276  -0.519828  -0.055742  2.371005  -0.077
O  O74  1  0.25353515  0.69013273  0.56689182  1  -0.310886  -0.525775  -0.054337  2.400906  -0.075
O  O75  1  0.74647290  0.30987259  0.43311508  1  -0.310776  -0.525735  0.054343  2.400927  0.075
O  O76  1  0.48168179  0.71277479  0.55807955  1  -0.312099  -0.512577  0.058245  2.359991  0.081
O  O77  1  0.51832848  0.28723379  0.44191601  1  -0.312191  -0.512649  -0.058257  2.359926  -0.081
