# generated using pymatgen
data_ZnMoH8C12(NO2)2
_symmetry_space_group_name_H-M   'P 1'
_cell_length_a   6.42224191
_cell_length_b   8.73294523
_cell_length_c   10.65832882
_cell_angle_alpha   100.55871497
_cell_angle_beta   89.99976266
_cell_angle_gamma   90.00041102
_symmetry_Int_Tables_number   1
_chemical_formula_structural   ZnMoH8C12(NO2)2
_chemical_formula_sum   'Zn2 Mo2 H16 C24 N4 O8'
_cell_volume   587.65158625
_cell_formula_units_Z   2
loop_
 _symmetry_equiv_pos_site_id
 _symmetry_equiv_pos_as_xyz
  1  'x, y, z'
loop_
 _atom_site_type_symbol
 _atom_site_label
 _atom_site_symmetry_multiplicity
 _atom_site_fract_x
 _atom_site_fract_y
 _atom_site_fract_z
 _atom_site_occupancy
 _atom_site_hle17_bader_spin_density
 _atom_site_hle17_ddec_charge
 _atom_site_hle17_ddec_spin_density
 _atom_site_hle17_ddec_sum_bond_order
 _atom_site_hle17_magmom
 _atom_site_hse06_10hf_bader_spin_density
 _atom_site_hse06_10hf_ddec_charge
 _atom_site_hse06_10hf_ddec_spin_density
 _atom_site_hse06_10hf_ddec_sum_bond_order
 _atom_site_hse06_10hf_magmom
 _atom_site_hse06_bader_spin_density
 _atom_site_hse06_ddec_charge
 _atom_site_hse06_ddec_spin_density
 _atom_site_hse06_ddec_sum_bond_order
 _atom_site_hse06_magmom
 _atom_site_pbe_bader_spin_density
 _atom_site_pbe_cm5_charge
 _atom_site_pbe_ddec_charge
 _atom_site_pbe_ddec_spin_density
 _atom_site_pbe_ddec_sum_bond_order
 _atom_site_pbe_magmom
Zn  Zn0  1  0.24999697  0.29205156  0.82770778  1  0  1.168301  0  1.859807  0  0  1.018279  0  2.337158  0  0  1.06774  0  2.272362  0  0  0.681588  0.984267  0  2.381065  0
Zn  Zn1  1  0.75000110  0.70794873  0.17228696  1  0  1.168271  0  1.85982  0  0  1.018216  0  2.337197  0  0  1.067672  0  2.272409  0  0  0.681536  0.984202  0  2.381107  0
Mo  Mo2  1  0.24999709  0.49512451  0.17515413  1  0  2.157677  0  4.311607  0  0  2.132101  0  4.911621  0  0  2.234683  0  4.87014  0  0  1.478883  2.062413  0  4.939046  0
Mo  Mo3  1  0.75000099  0.50487462  0.82483668  1  0  2.15777  0  4.311514  0  0  2.132177  0  4.911539  0  0  2.234755  0  4.870062  0  0  1.478903  2.062493  0  4.938968  0
H  H4  1  0.24999499  0.31246296  0.52706499  1  0  0.086626  0  0.91582  0  0  0.100298  0  0.970668  0  0  0.102384  0  0.968831  0  0  0.122564  0.098852  0  0.97175  0
H  H5  1  0.75000776  0.68753266  0.47293373  1  0  0.08661  0  0.915785  0  0  0.100286  0  0.970645  0  0  0.102373  0  0.968806  0  0  0.122548  0.098837  0  0.971729  0
H  H6  1  0.24999877  0.13220345  0.07272062  1  0  0.083815  0  0.955934  0  0  0.089522  0  1.025396  0  0  0.092161  0  1.023334  0  0  0.115987  0.087635  0  1.02702  0
H  H7  1  0.75000398  0.86780615  0.92727834  1  0  0.083902  0  0.956012  0  0  0.0896  0  1.025466  0  0  0.092258  0  1.023363  0  0  0.116011  0.087713  0  1.027086  0
H  H8  1  0.25000063  0.85515663  0.10995081  1  0  0.10731  0  0.949452  0  0  0.117324  0  1.010419  0  0  0.120509  0  1.009448  0  0  0.108933  0.114518  0  1.012394  0
H  H9  1  0.74999900  0.14485646  0.89005431  1  0  0.107326  0  0.949498  0  0  0.117367  0  1.010428  0  0  0.120553  0  1.009458  0  0  0.108962  0.11456  0  1.012401  0
H  H10  1  0.24999942  0.12377743  0.32528796  1  0  0.125393  0  0.955547  0  0  0.13957  0  1.007837  0  0  0.143024  0  1.006595  0  0  0.106228  0.136496  0  1.010067  0
H  H11  1  0.75000488  0.87621935  0.67471376  1  0  0.125368  0  0.955597  0  0  0.139549  0  1.007883  0  0  0.143004  0  1.006638  0  0  0.106203  0.136475  0  1.010106  0
H  H12  1  0.25000301  0.63681867  0.92266176  1  0  0.104096  0  0.971911  0  0  0.110321  0  1.043463  0  0  0.113565  0  1.040731  0  0  0.110099  0.107953  0  1.045542  0
H  H13  1  0.74999507  0.36319207  0.07735052  1  0  0.104005  0  0.971927  0  0  0.110245  0  1.04346  0  0  0.113481  0  1.040731  0  0  0.110077  0.107878  0  1.045534  0
H  H14  1  0.25000342  0.55294825  0.68243770  1  0  0.102223  0  0.96306  0  0  0.112771  0  1.025949  0  0  0.115762  0  1.024095  0  0  0.106079  0.110552  0  1.02752  0
H  H15  1  0.74999310  0.44705085  0.31756812  1  0  0.102248  0  0.963085  0  0  0.112821  0  1.025932  0  0  0.115813  0  1.024079  0  0  0.106114  0.110605  0  1.027493  0
H  H16  1  0.24999977  0.83337288  0.33200552  1  0  0.102098  0  0.962094  0  0  0.11007  0  1.030924  0  0  0.113064  0  1.028332  0  0  0.104405  0.107901  0  1.033039  0
H  H17  1  0.75000298  0.16662623  0.66799373  1  0  0.10205  0  0.962152  0  0  0.110095  0  1.030901  0  0  0.113089  0  1.028307  0  0  0.104414  0.107927  0  1.033014  0
H  H18  1  0.25000139  0.62350706  0.46732154  1  0  0.100185  0  0.95457  0  0  0.107392  0  1.021651  0  0  0.110331  0  1.020622  0  0  0.106336  0.105261  0  1.022461  0
H  H19  1  0.74999980  0.37649087  0.53268505  1  0  0.100237  0  0.954747  0  0  0.107411  0  1.021826  0  0  0.110352  0  1.020796  0  0  0.10644  0.105281  0  1.022635  0
C  C20  1  0.24999981  0.03350947  0.99325526  1  0  0.144206  0  3.696456  0  0  0.113665  0  3.948109  0  0  0.12207  0  3.965597  0  0  0.053804  0.108622  0  3.936608  0
C  C21  1  0.74999827  0.96649431  0.00674283  1  0  0.144115  0  3.696288  0  0  0.113585  0  3.94794  0  0  0.121992  0  3.965431  0  0  0.053834  0.108537  0  3.936443  0
C  C22  1  0.25000264  0.87879796  0.01310073  1  0  -0.114384  0  3.720276  0  0  -0.128926  0  3.978054  0  0  -0.136274  0  3.999367  0  0  -0.082742  -0.124209  0  3.964994  0
C  C23  1  0.74999700  0.12121047  0.98689900  1  0  -0.114407  0  3.71978  0  0  -0.128994  0  3.977568  0  0  -0.136343  0  3.998871  0  0  -0.082796  -0.124278  0  3.964509  0
C  C24  1  0.25000365  0.75774740  0.90917027  1  0  -0.035544  0  3.654178  0  0  -0.064856  0  3.910949  0  0  -0.06245  0  3.929061  0  0  -0.053222  -0.067057  0  3.898975  0
C  C25  1  0.74999131  0.24225869  0.09083661  1  0  -0.035428  0  3.653975  0  0  -0.064681  0  3.910774  0  0  -0.062265  0  3.928878  0  0  -0.053161  -0.066877  0  3.898788  0
C  C26  1  0.25000113  0.79157131  0.78453016  1  0  0.032872  0  3.770981  0  0  0.049113  0  4.001903  0  0  0.046382  0  4.02595  0  0  0.005874  0.051253  0  3.985509  0
C  C27  1  0.74999539  0.20843245  0.21547543  1  0  0.03283  0  3.770864  0  0  0.048909  0  4.001956  0  0  0.046177  0  4.026001  0  0  0.005834  0.051052  0  3.98556  0
C  C28  1  0.24999883  0.95087769  0.77328115  1  0  0.133785  0  3.747464  0  0  0.128408  0  3.980605  0  0  0.133192  0  4.002683  0  0  0.117137  0.125336  0  3.966352  0
C  C29  1  0.74999613  0.04912375  0.22672127  1  0  0.133783  0  3.747337  0  0  0.128514  0  3.980373  0  0  0.133296  0  4.002455  0  0  0.117142  0.125442  0  3.966122  0
C  C30  1  0.25000094  0.67441157  0.67123301  1  0  -0.065343  0  3.708313  0  0  -0.088263  0  3.959067  0  0  -0.090318  0  3.980915  0  0  -0.070962  -0.08729  0  3.944462  0
C  C31  1  0.74999402  0.32558869  0.32877580  1  0  -0.065427  0  3.708175  0  0  -0.08834  0  3.959005  0  0  -0.090398  0  3.980856  0  0  -0.071068  -0.087365  0  3.944397  0
C  C32  1  0.24999998  0.71370411  0.55294305  1  0  -0.093421  0  3.706859  0  0  -0.113106  0  3.955993  0  0  -0.11708  0  3.978707  0  0  -0.078042  -0.110241  0  3.940724  0
C  C33  1  0.74999810  0.28629382  0.44706447  1  0  -0.09345  0  3.707037  0  0  -0.113068  0  3.956216  0  0  -0.117041  0  3.978927  0  0  -0.078115  -0.110202  0  3.940949  0
C  C34  1  0.25000393  0.87350572  0.53841208  1  0  0.028035  0  3.799596  0  0  0.046974  0  4.024897  0  0  0.044802  0  4.050521  0  0  0.001672  0.047812  0  4.008432  0
C  C35  1  0.75000038  0.12649339  0.46159092  1  0  0.028186  0  3.799699  0  0  0.046998  0  4.025135  0  0  0.044826  0  4.05076  0  0  0.001691  0.047835  0  4.008671  0
C  C36  1  0.24999946  0.99225800  0.64856634  1  0  0.116598  0  3.794446  0  0  0.110075  0  4.02949  0  0  0.1126  0  4.053473  0  0  0.114065  0.108071  0  4.014101  0
C  C37  1  0.75000017  0.00773762  0.35143521  1  0  0.116507  0  3.794563  0  0  0.11003  0  4.029516  0  0  0.112555  0  4.053503  0  0  0.11408  0.108027  0  4.01413  0
C  C38  1  0.24999990  0.92172418  0.41875659  1  0  -0.032553  0  3.65082  0  0  -0.060921  0  3.905319  0  0  -0.058616  0  3.922951  0  0  -0.061881  -0.062543  0  3.894251  0
C  C39  1  0.75000129  0.07826910  0.58124179  1  0  -0.032652  0  3.65097  0  0  -0.061027  0  3.90546  0  0  -0.058726  0  3.9231  0  0  -0.061938  -0.062646  0  3.894388  0
C  C40  1  0.25000045  0.07878594  0.41416107  1  0  -0.115813  0  3.704202  0  0  -0.133123  0  3.96214  0  0  -0.139264  0  3.982051  0  0  -0.083754  -0.128777  0  3.949428  0
C  C41  1  0.75000229  0.92121084  0.58583877  1  0  -0.115686  0  3.704214  0  0  -0.133005  0  3.962169  0  0  -0.139147  0  3.982079  0  0  -0.083679  -0.12866  0  3.949452  0
C  C42  1  0.24999748  0.18804045  0.52882549  1  0  0.165831  0  3.671394  0  0  0.131484  0  3.930013  0  0  0.14052  0  3.944753  0  0  0.063358  0.126363  0  3.918621  0
C  C43  1  0.75000526  0.81195750  0.47117547  1  0  0.165941  0  3.671403  0  0  0.131553  0  3.930041  0  0  0.140589  0  3.944781  0  0  0.063417  0.126431  0  3.918651  0
N  N44  1  0.24999882  0.06812763  0.87643465  1  0  -0.373956  0  3.289934  0  0  -0.301413  0  3.560652  0  0  -0.3203  0  3.574816  0  0  -0.321753  -0.288892  0  3.551634  0
N  N45  1  0.74999926  0.93187615  0.12356532  1  0  -0.373887  0  3.289666  0  0  -0.301373  0  3.560331  0  0  -0.320261  0  3.574501  0  0  -0.321759  -0.28885  0  3.551317  0
N  N46  1  0.24999844  0.14570182  0.64234738  1  0  -0.360412  0  3.297002  0  0  -0.290549  0  3.563507  0  0  -0.308514  0  3.578575  0  0  -0.320506  -0.277695  0  3.552466  0
N  N47  1  0.75000430  0.85429613  0.35765451  1  0  -0.360556  0  3.297216  0  0  -0.290632  0  3.56363  0  0  -0.308597  0  3.578699  0  0  -0.320539  -0.277776  0  3.552583  0
O  O48  1  0.47791173  0.61439815  0.21120838  1  0  -0.930498  0  1.660332  0  0  -0.891073  0  1.991047  0  0  -0.928372  0  1.968266  0  0  -0.589205  -0.865158  0  2.005891  0
O  O49  1  0.97790692  0.38559627  0.78877646  1  0  -0.930573  0  1.660431  0  0  -0.891117  0  1.991078  0  0  -0.928412  0  1.968298  0  0  -0.589227  -0.865217  0  2.005944  0
O  O50  1  0.52208791  0.38560098  0.78878150  1  0  -0.930574  0  1.660461  0  0  -0.891122  0  1.991122  0  0  -0.928419  0  1.968344  0  0  -0.589234  -0.865211  0  2.005966  0
O  O51  1  0.02208804  0.61439820  0.21121271  1  0  -0.930507  0  1.660374  0  0  -0.891057  0  1.991049  0  0  -0.928354  0  1.968266  0  0  -0.589212  -0.865149  0  2.005906  0
O  O52  1  0.24999917  0.35148083  0.26857240  1  0  -0.803025  0  1.452801  0  0  -0.790103  0  1.715745  0  0  -0.820917  0  1.706718  0  0  -0.568406  -0.768954  0  1.722071  0
O  O53  1  0.75000513  0.64850899  0.73141231  1  0  -0.803088  0  1.452806  0  0  -0.790183  0  1.715748  0  0  -0.821012  0  1.706741  0  0  -0.568449  -0.769006  0  1.721998  0
O  O54  1  0.24999564  0.40365878  0.01205704  1  0  -0.903519  0  1.699859  0  0  -0.863928  0  2.027136  0  0  -0.902281  0  2.008225  0  0  -0.577322  -0.837304  0  2.039338  0
O  O55  1  0.75000867  0.59633919  0.98793454  1  0  -0.903494  0  1.699784  0  0  -0.863862  0  2.027027  0  0  -0.90221  0  2.008109  0  0  -0.577247  -0.837244  0  2.039234  0
