# generated using pymatgen
data_MgH9C3SNO7
_symmetry_space_group_name_H-M   'P 1'
_cell_length_a   6.02368659
_cell_length_b   11.23230120
_cell_length_c   13.17516188
_cell_angle_alpha   90.00013390
_cell_angle_beta   89.99982083
_cell_angle_gamma   90.00008570
_symmetry_Int_Tables_number   1
_chemical_formula_structural   MgH9C3SNO7
_chemical_formula_sum   'Mg4 H36 C12 S4 N4 O28'
_cell_volume   891.42963641
_cell_formula_units_Z   4
loop_
 _symmetry_equiv_pos_site_id
 _symmetry_equiv_pos_as_xyz
  1  'x, y, z'
loop_
 _atom_site_type_symbol
 _atom_site_label
 _atom_site_symmetry_multiplicity
 _atom_site_fract_x
 _atom_site_fract_y
 _atom_site_fract_z
 _atom_site_occupancy
 _atom_site_hle17_bader_spin_density
 _atom_site_hle17_ddec_charge
 _atom_site_hle17_ddec_spin_density
 _atom_site_hle17_ddec_sum_bond_order
 _atom_site_hle17_magmom
 _atom_site_hse06_10hf_bader_spin_density
 _atom_site_hse06_10hf_ddec_charge
 _atom_site_hse06_10hf_ddec_spin_density
 _atom_site_hse06_10hf_ddec_sum_bond_order
 _atom_site_hse06_10hf_magmom
 _atom_site_hse06_bader_spin_density
 _atom_site_hse06_ddec_charge
 _atom_site_hse06_ddec_spin_density
 _atom_site_hse06_ddec_sum_bond_order
 _atom_site_hse06_magmom
 _atom_site_pbe_bader_spin_density
 _atom_site_pbe_cm5_charge
 _atom_site_pbe_ddec_charge
 _atom_site_pbe_ddec_spin_density
 _atom_site_pbe_ddec_sum_bond_order
 _atom_site_pbe_magmom
Mg  Mg0  1  0.52868407  0.83557297  0.96066113  1  0  1.503312  0  1.110716  0  0  1.390673  0  1.37114  0  0  1.413818  0  1.335469  0  0  0.831964  1.374283  0  1.396129  0
Mg  Mg1  1  0.97131081  0.16442682  0.46065946  1  0  1.503334  0  1.110637  0  0  1.390668  0  1.371132  0  0  1.41381  0  1.335466  0  0  0.831989  1.37428  0  1.396118  0
Mg  Mg2  1  0.47131132  0.33557331  0.53933910  1  0  1.50333  0  1.110699  0  0  1.390658  0  1.37121  0  0  1.413797  0  1.335552  0  0  0.831982  1.374272  0  1.396194  0
Mg  Mg3  1  0.02868920  0.66442491  0.03934133  1  0  1.503348  0  1.110684  0  0  1.390726  0  1.371119  0  0  1.413867  0  1.335455  0  0  0.832008  1.374341  0  1.3961  0
H  H4  1  0.42471009  0.75804180  0.76934659  1  0  0.442395  0  0.852587  0  0  0.411171  0  0.915258  0  0  0.421349  0  0.900218  0  0  0.297414  0.403991  0  0.925866  0
H  H5  1  0.07528720  0.24195883  0.26934716  1  0  0.442334  0  0.852653  0  0  0.411104  0  0.915338  0  0  0.421282  0  0.900298  0  0  0.297398  0.403924  0  0.925947  0
H  H6  1  0.57528841  0.25804186  0.73065349  1  0  0.442411  0  0.852564  0  0  0.411191  0  0.915228  0  0  0.42137  0  0.900186  0  0  0.297431  0.404011  0  0.925836  0
H  H7  1  0.92471136  0.74195907  0.23065151  1  0  0.442179  0  0.852881  0  0  0.411014  0  0.915433  0  0  0.421191  0  0.900398  0  0  0.297377  0.403833  0  0.926041  0
H  H8  1  0.68068945  0.74121724  0.78859549  1  0  0.441324  0  0.856471  0  0  0.408484  0  0.921467  0  0  0.418689  0  0.906417  0  0  0.297859  0.401298  0  0.932058  0
H  H9  1  0.81930827  0.25878296  0.28859499  1  0  0.441284  0  0.856526  0  0  0.408442  0  0.921526  0  0  0.418647  0  0.906475  0  0  0.297851  0.401256  0  0.932117  0
H  H10  1  0.31930900  0.24121793  0.71140531  1  0  0.441253  0  0.856573  0  0  0.408432  0  0.92154  0  0  0.418637  0  0.90649  0  0  0.297848  0.401249  0  0.932127  0
H  H11  1  0.18069200  0.75878433  0.21140524  1  0  0.441267  0  0.85655  0  0  0.408424  0  0.92155  0  0  0.418628  0  0.906501  0  0  0.297845  0.401239  0  0.93214  0
H  H12  1  0.51304526  0.86913845  0.16410626  1  0  0.443877  0  0.853549  0  0  0.410286  0  0.920116  0  0  0.420543  0  0.904933  0  0  0.299964  0.403077  0  0.930781  0
H  H13  1  0.98695331  0.13086230  0.66410663  1  0  0.443859  0  0.853567  0  0  0.41026  0  0.920146  0  0  0.420519  0  0.90496  0  0  0.299955  0.403055  0  0.930804  0
H  H14  1  0.48695365  0.36913873  0.33589342  1  0  0.443821  0  0.853624  0  0  0.41022  0  0.92021  0  0  0.420478  0  0.905025  0  0  0.299932  0.40301  0  0.930875  0
H  H15  1  0.01304650  0.63086120  0.83589395  1  0  0.443838  0  0.853604  0  0  0.410237  0  0.920192  0  0  0.420498  0  0.905004  0  0  0.299943  0.403029  0  0.930855  0
H  H16  1  0.53923390  0.99933522  0.11087894  1  0  0.439196  0  0.857113  0  0  0.406095  0  0.923072  0  0  0.416272  0  0.907908  0  0  0.297761  0.398945  0  0.933719  0
H  H17  1  0.96076337  0.00066628  0.61087758  1  0  0.439194  0  0.857114  0  0  0.406115  0  0.92303  0  0  0.416291  0  0.907867  0  0  0.297786  0.398966  0  0.933675  0
H  H18  1  0.46076536  0.49933473  0.38912176  1  0  0.439232  0  0.857069  0  0  0.40615  0  0.922986  0  0  0.416326  0  0.907824  0  0  0.297818  0.399002  0  0.933632  0
H  H19  1  0.03923774  0.50066534  0.88912275  1  0  0.439235  0  0.857066  0  0  0.406154  0  0.922982  0  0  0.416332  0  0.907818  0  0  0.297813  0.399007  0  0.933627  0
H  H20  1  0.58073459  0.01598296  0.82512950  1  0  0.312138  0  0.876056  0  0  0.308817  0  0.919817  0  0  0.314387  0  0.915401  0  0  0.311254  0.304785  0  0.923196  0
H  H21  1  0.91926620  0.98401824  0.32512953  1  0  0.312105  0  0.876096  0  0  0.308781  0  0.919857  0  0  0.314352  0  0.915439  0  0  0.311263  0.30475  0  0.923235  0
H  H22  1  0.41925993  0.51598352  0.67487086  1  0  0.312136  0  0.876013  0  0  0.308815  0  0.919779  0  0  0.314387  0  0.91536  0  0  0.311273  0.304784  0  0.923157  0
H  H23  1  0.08073800  0.48401774  0.17487038  1  0  0.312127  0  0.87606  0  0  0.308803  0  0.919824  0  0  0.314374  0  0.915407  0  0  0.311269  0.304773  0  0.923203  0
H  H24  1  0.59357359  0.07175531  0.93938393  1  0  0.312787  0  0.910234  0  0  0.300947  0  0.970793  0  0  0.306751  0  0.966366  0  0  0.297228  0.296787  0  0.974094  0
H  H25  1  0.90642808  0.92824442  0.43938311  1  0  0.312735  0  0.910275  0  0  0.300882  0  0.970865  0  0  0.306685  0  0.966437  0  0  0.297177  0.296722  0  0.974168  0
H  H26  1  0.40642440  0.57175644  0.56061654  1  0  0.312728  0  0.910319  0  0  0.300867  0  0.970925  0  0  0.306668  0  0.966499  0  0  0.297161  0.296706  0  0.974228  0
H  H27  1  0.09357597  0.42824451  0.06061745  1  0  0.312752  0  0.910283  0  0  0.300887  0  0.970894  0  0  0.30669  0  0.966465  0  0  0.297179  0.296727  0  0.974197  0
H  H28  1  0.94509124  0.00755204  0.80768201  1  0  0.069076  0  0.910026  0  0  0.082558  0  0.965813  0  0  0.084203  0  0.96488  0  0  0.121882  0.081261  0  0.966689  0
H  H29  1  0.55491299  0.99244376  0.30768030  1  0  0.069113  0  0.910066  0  0  0.082561  0  0.965873  0  0  0.084252  0  0.964886  0  0  0.12193  0.081277  0  0.966746  0
H  H30  1  0.05490491  0.50755325  0.69231833  1  0  0.069109  0  0.910113  0  0  0.082595  0  0.965856  0  0  0.084231  0  0.964936  0  0  0.121912  0.081304  0  0.966733  0
H  H31  1  0.44509290  0.49244361  0.19231887  1  0  0.069118  0  0.910082  0  0  0.082555  0  0.965875  0  0  0.084238  0  0.964899  0  0  0.121928  0.081269  0  0.966749  0
H  H32  1  0.17010869  0.11435283  0.94737127  1  0  0.148891  0  0.922028  0  0  0.15789  0  0.98201  0  0  0.161536  0  0.979925  0  0  0.117078  0.155233  0  0.983616  0
H  H33  1  0.32989070  0.88564741  0.44737048  1  0  0.14887  0  0.922019  0  0  0.157872  0  0.982015  0  0  0.161518  0  0.97993  0  0  0.117072  0.155217  0  0.98362  0
H  H34  1  0.82989107  0.61435428  0.55262700  1  0  0.148881  0  0.921987  0  0  0.15788  0  0.98198  0  0  0.161526  0  0.979894  0  0  0.117062  0.155223  0  0.983586  0
H  H35  1  0.67010992  0.38564527  0.05262696  1  0  0.148863  0  0.921983  0  0  0.157903  0  0.981934  0  0  0.161551  0  0.979846  0  0  0.117072  0.155247  0  0.983537  0
H  H36  1  0.91290622  0.14213243  0.00991360  1  0  0.157044  0  0.923687  0  0  0.16759  0  0.980268  0  0  0.171213  0  0.978292  0  0  0.116065  0.164904  0  0.981875  0
H  H37  1  0.58709340  0.85786789  0.50991371  1  0  0.157047  0  0.923659  0  0  0.1676  0  0.980248  0  0  0.171223  0  0.978273  0  0  0.116071  0.164913  0  0.981856  0
H  H38  1  0.08709538  0.64213271  0.49008639  1  0  0.157023  0  0.92368  0  0  0.167576  0  0.980265  0  0  0.171202  0  0.978292  0  0  0.116053  0.164896  0  0.981864  0
H  H39  1  0.41290704  0.35786765  0.99008505  1  0  0.157019  0  0.923685  0  0  0.167582  0  0.980265  0  0  0.171195  0  0.978301  0  0  0.116062  0.164879  0  0.981895  0
C  C40  1  0.00925484  0.89960769  0.93346418  1  0  0.716603  0  3.784392  0  0  0.662504  0  4.085881  0  0  0.695934  0  4.076138  0  0  0.24569  0.639829  0  4.091948  0
C  C41  1  0.49074630  0.10039073  0.43345932  1  0  0.716338  0  3.784409  0  0  0.662228  0  4.08594  0  0  0.695679  0  4.076179  0  0  0.245595  0.639527  0  4.092043  0
C  C42  1  0.99074737  0.39960941  0.56653694  1  0  0.71639  0  3.784295  0  0  0.662206  0  4.085906  0  0  0.695638  0  4.076161  0  0  0.245544  0.639529  0  4.091973  0
C  C43  1  0.50926017  0.60039107  0.06654211  1  0  0.716319  0  3.784566  0  0  0.662209  0  4.086078  0  0  0.695639  0  4.076343  0  0  0.245579  0.639508  0  4.092179  0
C  C44  1  0.89452891  0.01017225  0.88800668  1  0  0.112981  0  3.614698  0  0  0.091225  0  3.8638  0  0  0.091363  0  3.87579  0  0  0.010314  0.091108  0  3.855546  0
C  C45  1  0.60546979  0.98982644  0.38800489  1  0  0.112909  0  3.614799  0  0  0.091175  0  3.863942  0  0  0.091279  0  3.875931  0  0  0.010233  0.091052  0  3.855714  0
C  C46  1  0.10546559  0.51017328  0.61199367  1  0  0.112894  0  3.614911  0  0  0.091217  0  3.863932  0  0  0.09136  0  3.875916  0  0  0.010317  0.091093  0  3.855689  0
C  C47  1  0.39453277  0.48982425  0.11199503  1  0  0.112847  0  3.614966  0  0  0.091188  0  3.863981  0  0  0.091305  0  3.875972  0  0  0.010233  0.091069  0  3.855745  0
C  C48  1  0.99060129  0.12289280  0.93628924  1  0  -0.361613  0  3.587901  0  0  -0.401377  0  3.847394  0  0  -0.407432  0  3.852848  0  0  -0.154081  -0.397063  0  3.843643  0
C  C49  1  0.50939707  0.87710692  0.43628888  1  0  -0.361545  0  3.587843  0  0  -0.40135  0  3.847393  0  0  -0.407408  0  3.852864  0  0  -0.15406  -0.397039  0  3.843647  0
C  C50  1  0.00939683  0.62289451  0.56371057  1  0  -0.36152  0  3.58773  0  0  -0.401314  0  3.84723  0  0  -0.407373  0  3.85269  0  0  -0.154064  -0.397006  0  3.843475  0
C  C51  1  0.49060352  0.37710645  0.06370930  1  0  -0.361454  0  3.587764  0  0  -0.401294  0  3.847264  0  0  -0.407343  0  3.85273  0  0  -0.154034  -0.396971  0  3.843525  0
S  S52  1  0.95079555  0.25148343  0.85829566  1  0  1.363209  0  5.56727  0  0  1.257088  0  6.108688  0  0  1.302964  0  6.086829  0  0  0.519267  1.225552  0  6.122651  0
S  S53  1  0.54920833  0.74851608  0.35829652  1  0  1.363306  0  5.567255  0  0  1.257198  0  6.108687  0  0  1.30307  0  6.086832  0  0  0.519372  1.225654  0  6.122652  0
S  S54  1  0.04920459  0.75148449  0.64170440  1  0  1.363164  0  5.56715  0  0  1.257072  0  6.108554  0  0  1.302944  0  6.086694  0  0  0.519324  1.225528  0  6.122521  0
S  S55  1  0.45079689  0.24851668  0.14170293  1  0  1.363341  0  5.567162  0  0  1.257245  0  6.108596  0  0  1.303118  0  6.086737  0  0  0.519358  1.225699  0  6.122564  0
N  N56  1  0.65079442  0.00351458  0.89483257  1  0  -0.734361  0  3.04681  0  0  -0.704413  0  3.282165  0  0  -0.717046  0  3.277623  0  0  -0.662633  -0.695558  0  3.285343  0
N  N57  1  0.84920424  0.99648414  0.39483196  1  0  -0.734254  0  3.046777  0  0  -0.704286  0  3.282118  0  0  -0.716921  0  3.277594  0  0  -0.662596  -0.695432  0  3.285293  0
N  N58  1  0.34920006  0.50351668  0.60516777  1  0  -0.734306  0  3.046874  0  0  -0.704368  0  3.282213  0  0  -0.716999  0  3.277673  0  0  -0.662616  -0.695515  0  3.285389  0
N  N59  1  0.15079835  0.49648440  0.10516797  1  0  -0.734287  0  3.04686  0  0  -0.704338  0  3.282161  0  0  -0.716972  0  3.277632  0  0  -0.662618  -0.695486  0  3.285338  0
O  O60  1  0.88797729  0.81425781  0.96619323  1  0  -0.760638  0  2.067933  0  0  -0.687673  0  2.306344  0  0  -0.711622  0  2.292769  0  0  -0.347298  -0.671191  0  2.315398  0
O  O61  1  0.61201922  0.18574021  0.46618833  1  0  -0.760528  0  2.067981  0  0  -0.687538  0  2.306372  0  0  -0.7115  0  2.292798  0  0  -0.347255  -0.671049  0  2.31544  0
O  O62  1  0.11202137  0.31425963  0.53380923  1  0  -0.760525  0  2.067878  0  0  -0.687543  0  2.306347  0  0  -0.71149  0  2.292773  0  0  -0.347263  -0.671061  0  2.315403  0
O  O63  1  0.38798251  0.68574125  0.03381327  1  0  -0.7605  0  2.067963  0  0  -0.687549  0  2.306386  0  0  -0.711504  0  2.292817  0  0  -0.347255  -0.671059  0  2.315452  0
O  O64  1  0.21735830  0.89955257  0.93226556  1  0  -0.699057  0  2.025381  0  0  -0.646533  0  2.272402  0  0  -0.669675  0  2.259584  0  0  -0.341331  -0.630539  0  2.280854  0
O  O65  1  0.28263123  0.10044495  0.43226024  1  0  -0.69892  0  2.02523  0  0  -0.646361  0  2.272222  0  0  -0.669512  0  2.259403  0  0  -0.341275  -0.630357  0  2.280684  0
O  O66  1  0.78263229  0.39955413  0.56773556  1  0  -0.698934  0  2.0252  0  0  -0.646359  0  2.272232  0  0  -0.669503  0  2.259418  0  0  -0.341219  -0.630364  0  2.28068  0
O  O67  1  0.71736860  0.60044903  0.06773967  1  0  -0.698924  0  2.02544  0  0  -0.646399  0  2.272451  0  0  -0.669543  0  2.259638  0  0  -0.341262  -0.630396  0  2.280911  0
O  O68  1  0.06119445  0.22387862  0.76029975  1  0  -0.710681  0  2.022937  0  0  -0.640577  0  2.266209  0  0  -0.663023  0  2.250766  0  0  -0.335351  -0.624895  0  2.276415  0
O  O69  1  0.43880455  0.77611843  0.26030086  1  0  -0.710761  0  2.022793  0  0  -0.640694  0  2.266098  0  0  -0.66314  0  2.250661  0  0  -0.335463  -0.624993  0  2.2763  0
O  O70  1  0.93880395  0.72387978  0.73970026  1  0  -0.710692  0  2.022883  0  0  -0.640618  0  2.266179  0  0  -0.663066  0  2.250736  0  0  -0.33537  -0.624923  0  2.276381  0
O  O71  1  0.56119410  0.27612118  0.23969939  1  0  -0.710764  0  2.022975  0  0  -0.640682  0  2.266263  0  0  -0.66313  0  2.250824  0  0  -0.335418  -0.624973  0  2.276461  0
O  O72  1  0.71112844  0.26942443  0.84559696  1  0  -0.671323  0  1.94132  0  0  -0.616708  0  2.183872  0  0  -0.637486  0  2.168894  0  0  -0.339576  -0.602141  0  2.193747  0
O  O73  1  0.78887387  0.73057504  0.34559591  1  0  -0.671256  0  1.941453  0  0  -0.616647  0  2.183972  0  0  -0.637415  0  2.168996  0  0  -0.339532  -0.602079  0  2.193852  0
O  O74  1  0.28887010  0.76942750  0.65440314  1  0  -0.6713  0  1.941299  0  0  -0.616683  0  2.183856  0  0  -0.637447  0  2.168862  0  0  -0.339568  -0.602117  0  2.193736  0
O  O75  1  0.21112797  0.23057460  0.15440349  1  0  -0.671357  0  1.941242  0  0  -0.61674  0  2.183797  0  0  -0.637515  0  2.168819  0  0  -0.339585  -0.602173  0  2.19368  0
O  O76  1  0.06163404  0.34983699  0.91195722  1  0  -0.682198  0  1.983214  0  0  -0.621341  0  2.23032  0  0  -0.64271  0  2.214811  0  0  -0.332886  -0.606384  0  2.240597  0
O  O77  1  0.43837223  0.65016137  0.41195884  1  0  -0.682262  0  1.983249  0  0  -0.62139  0  2.230339  0  0  -0.64276  0  2.214833  0  0  -0.33293  -0.606436  0  2.240629  0
O  O78  1  0.93836306  0.84983773  0.58804380  1  0  -0.682192  0  1.983157  0  0  -0.621327  0  2.230242  0  0  -0.642696  0  2.214741  0  0  -0.332943  -0.606369  0  2.240522  0
O  O79  1  0.56163271  0.15016281  0.08804193  1  0  -0.682253  0  1.983238  0  0  -0.621384  0  2.230338  0  0  -0.642752  0  2.214831  0  0  -0.332906  -0.606427  0  2.24062  0
O  O80  1  0.53626284  0.74825764  0.82398113  1  0  -0.92022  0  1.807339  0  0  -0.867791  0  1.986695  0  0  -0.884337  0  1.953863  0  0  -0.624547  -0.856185  0  2.009598  0
O  O81  1  0.96373298  0.25174355  0.32398116  1  0  -0.920136  0  1.807433  0  0  -0.867703  0  1.986789  0  0  -0.884249  0  1.953962  0  0  -0.624534  -0.856097  0  2.009689  0
O  O82  1  0.46373398  0.24825924  0.67601893  1  0  -0.920179  0  1.807422  0  0  -0.867769  0  1.98676  0  0  -0.884313  0  1.953929  0  0  -0.624553  -0.856163  0  2.009659  0
O  O83  1  0.03626892  0.75174203  0.17601829  1  0  -0.919989  0  1.807677  0  0  -0.86759  0  1.987025  0  0  -0.884136  0  1.954196  0  0  -0.624505  -0.855983  0  2.009927  0
O  O84  1  0.55088947  0.91238241  0.10112792  1  0  -0.922743  0  1.832761  0  0  -0.868924  0  2.017777  0  0  -0.885704  0  1.985273  0  0  -0.626039  -0.857115  0  2.040363  0
O  O85  1  0.94911285  0.08761905  0.60112675  1  0  -0.922732  0  1.832777  0  0  -0.868922  0  2.017804  0  0  -0.8857  0  1.985297  0  0  -0.62605  -0.857113  0  2.040381  0
O  O86  1  0.44911122  0.41238284  0.39887261  1  0  -0.922729  0  1.832768  0  0  -0.868899  0  2.017764  0  0  -0.885677  0  1.98526  0  0  -0.626071  -0.857092  0  2.040349  0
O  O87  1  0.05089182  0.58761727  0.89887299  1  0  -0.922756  0  1.83276  0  0  -0.868935  0  2.017754  0  0  -0.885715  0  1.985243  0  0  -0.626069  -0.857129  0  2.040334  0
