# generated using pymatgen
data_Zn2H11C24N5O14
_symmetry_space_group_name_H-M   'P 1'
_cell_length_a   9.72380672
_cell_length_b   11.05757542
_cell_length_c   14.09659968
_cell_angle_alpha   91.58950987
_cell_angle_beta   95.75631500
_cell_angle_gamma   90.22719953
_symmetry_Int_Tables_number   1
_chemical_formula_structural   Zn2H11C24N5O14
_chemical_formula_sum   'Zn2 H11 C24 N5 O14'
_cell_volume   1507.43284065
_cell_formula_units_Z   1
loop_
 _symmetry_equiv_pos_site_id
 _symmetry_equiv_pos_as_xyz
  1  'x, y, z'
loop_
 _atom_site_type_symbol
 _atom_site_label
 _atom_site_symmetry_multiplicity
 _atom_site_fract_x
 _atom_site_fract_y
 _atom_site_fract_z
 _atom_site_occupancy
 _atom_site_pbe_bader_charge
 _atom_site_pbe_bader_spin_density
 _atom_site_pbe_cm5_charge
 _atom_site_pbe_ddec_charge
 _atom_site_pbe_ddec_spin_density
 _atom_site_pbe_ddec_sum_bond_order
 _atom_site_pbe_magmom
Zn  Zn0  1  0.62598211  0.49037202  0.51715329  1  1.288297  0  0.669205  0.8119  0  2.427281  0
Zn  Zn1  1  0.33979305  0.48932164  0.51034883  1  1.28692  0  0.673904  0.815691  0  2.442888  0
H  H2  1  0.61109651  0.57426357  0.02705350  1  0.118905  0  0.125678  0.129509  0  0.950014  0
H  H3  1  0.35352950  0.40710187  0.99958933  1  0.13428  0  0.121408  0.125407  0  0.957111  0
H  H4  1  0.26024209  0.10016060  0.53702341  1  0.148354  0  0.110562  0.120476  0  0.996236  0
H  H5  1  0.25970361  0.87544163  0.52578854  1  0.14758  0  0.113142  0.122926  0  0.986498  0
H  H6  1  0.76870647  0.88590936  0.42017236  1  0.144383  0  0.132447  0.118169  0  0.94447  0
H  H7  1  0.77613399  0.11100573  0.43885752  1  0.135016  0  0.137232  0.127173  0  0.931708  0
H  H8  1  0.08636539  0.54684952  0.37286739  1  0.158819  0  0.143503  0.124185  0  0.950583  0
H  H9  1  0.82767091  0.54701297  0.37855415  1  0.169775  0  0.138101  0.123776  0  0.974037  0
H  H10  1  0.88629377  0.32998977  0.70464376  1  0.209651  0  0.130139  0.125023  0  1.001398  0
H  H11  1  0.15954926  0.47582133  0.73833135  1  0.112721  0  0.122319  0.158392  0  0.9576  0
H  H12  1  0.14370014  0.32240218  0.69235963  1  0.124888  0  0.123234  0.159081  0  0.948342  0
C  C13  1  0.47938006  0.25553909  0.52512898  1  1.569856  0  0.217194  0.59667  0  4.17775  0
C  C14  1  0.50643719  0.51024152  0.69919962  1  1.678408  0  0.22325  0.664686  0  4.243315  0
C  C15  1  0.47705519  0.72414283  0.50546757  1  1.531255  0  0.217715  0.596931  0  4.186044  0
C  C16  1  0.46455291  0.46985242  0.32794540  1  1.696865  0  0.216591  0.666487  0  4.246502  0
C  C17  1  0.45332523  0.46409166  0.22527808  1  0.113513  0  -0.047337  -0.198519  0  3.95645  0
C  C18  1  0.43732315  0.46019705  0.03834771  1  0.014254  0  -0.06382  -0.059781  0  4.061761  0
C  C19  1  0.52728332  0.52112851  0.98838826  1  0.090852  0  -0.055276  -0.042952  0  4.045081  0
C  C20  1  0.51922170  0.51861986  0.88861803  1  -0.388863  0  -0.02025  0.016145  0  4.131478  0
C  C21  1  0.44664205  0.46235333  0.13828598  1  -0.40698  0  -0.029866  0.004757  0  4.159322  0
C  C22  1  0.51485290  0.51622358  0.80177936  1  0.120227  0  -0.033269  -0.178316  0  3.925165  0
C  C23  1  0.59696316  0.05326114  0.51594268  1  0.03525  0  -0.004481  0.017635  0  3.943717  0
C  C24  1  0.47777875  0.12056378  0.52454660  1  0.008558  0  -1e-05  -0.039685  0  3.932142  0
C  C25  1  0.35643082  0.05230844  0.52916778  1  -0.004918  0  -0.065389  -0.075237  0  3.909618  0
C  C26  1  0.35597472  0.92550394  0.52267627  1  -0.077164  0  -0.064178  -0.073323  0  3.903843  0
C  C27  1  0.47672489  0.85901265  0.51184124  1  0.06607  0  0.001231  -0.039001  0  3.932082  0
C  C28  1  0.59679366  0.92780446  0.50986192  1  -0.042642  0  -7.7e-05  0.02556  0  3.913377  0
C  C29  1  0.74671533  0.92023025  0.49059248  1  0.209463  0  0.02713  -0.063055  0  3.713913  0
C  C30  1  0.74716278  0.06420188  0.50149656  1  0.197267  0  0.027839  -0.060533  0  3.73351  0
C  C31  1  0.06882137  0.45910258  0.58850836  1  0.570563  0  0.155324  0.220008  0  3.86131  0
C  C32  1  0.04071700  0.52152472  0.43703792  1  0.479691  0  0.082784  0.076158  0  3.825142  0
C  C33  1  0.89753880  0.52256785  0.44030201  1  0.481565  0  0.073344  0.05705  0  3.83766  0
C  C34  1  0.92671649  0.46217842  0.59225248  1  0.587817  0  0.146145  0.149495  0  3.866675  0
C  C35  1  0.93634988  0.41646609  0.69304624  1  0.20939  0  0.02487  -0.059561  0  3.690411  0
C  C36  1  0.09947748  0.41341614  0.68825653  1  -0.029751  0  -0.126617  -0.264216  0  3.760498  0
N  N37  1  0.12951839  0.48797225  0.51181298  1  -1.216794  0  -0.284592  -0.175874  0  3.448132  0
N  N38  1  0.83742914  0.49153275  0.51903089  1  -1.216617  0  -0.283178  -0.163656  0  3.459097  0
N  N39  1  0.89810316  0.50655897  0.76875546  1  0.458367  0  0.056181  0.536733  0  4.198869  0
N  N40  1  0.84565696  0.85445219  0.56163199  1  0.481157  0  0.056485  0.532085  0  4.185168  0
N  N41  1  0.84195476  0.11751203  0.58450438  1  0.465547  0  0.056199  0.526299  0  4.187562  0
O  O42  1  0.59310065  0.30513004  0.50900717  1  -1.156548  0  -0.316576  -0.547783  0  2.311157  0
O  O43  1  0.36812370  0.30987065  0.53973169  1  -1.155505  0  -0.313041  -0.537753  0  2.309449  0
O  O44  1  0.61778358  0.48698517  0.66179778  1  -1.133865  0  -0.305201  -0.525264  0  2.282957  0
O  O45  1  0.38784398  0.52806193  0.65493085  1  -1.14633  0  -0.305579  -0.536297  0  2.272426  0
O  O46  1  0.59547847  0.67469237  0.51849418  1  -1.148742  0  -0.312398  -0.536561  0  2.304341  0
O  O47  1  0.36114601  0.67042783  0.48842617  1  -1.157555  0  -0.313493  -0.537638  0  2.313966  0
O  O48  1  0.58478902  0.49174104  0.37019701  1  -1.152954  0  -0.314334  -0.550024  0  2.279339  0
O  O49  1  0.35394194  0.45304624  0.36763732  1  -1.144832  0  -0.315464  -0.545043  0  2.255401  0
O  O50  1  0.89962283  0.61466780  0.74948985  1  -0.437609  0  -0.124626  -0.320898  0  1.910015  0
O  O51  1  0.87493531  0.46401863  0.84561410  1  -0.429195  0  -0.134158  -0.330891  0  1.869869  0
O  O52  1  0.93269712  0.78904741  0.52754574  1  -0.465934  0  -0.142064  -0.355524  0  1.910557  0
O  O53  1  0.83337286  0.87203954  0.64686671  1  -0.432323  0  -0.108512  -0.292597  0  1.90534  0
O  O54  1  0.96617496  0.12444086  0.57169038  1  -0.475037  0  -0.143875  -0.352165  0  1.878913  0
O  O55  1  0.79049214  0.15219998  0.65663878  1  -0.425365  0  -0.095496  -0.286256  0  1.942833  0
