# generated using pymatgen
data_Zn2H14C10N2O9
_symmetry_space_group_name_H-M   'P 1'
_cell_length_a   9.40862723
_cell_length_b   11.31231461
_cell_length_c   12.75227502
_cell_angle_alpha   90.00003625
_cell_angle_beta   90.00002028
_cell_angle_gamma   90.00003395
_symmetry_Int_Tables_number   1
_chemical_formula_structural   Zn2H14C10N2O9
_chemical_formula_sum   'Zn8 H56 C40 N8 O36'
_cell_volume   1357.26736629
_cell_formula_units_Z   4
loop_
 _symmetry_equiv_pos_site_id
 _symmetry_equiv_pos_as_xyz
  1  'x, y, z'
loop_
 _atom_site_type_symbol
 _atom_site_label
 _atom_site_symmetry_multiplicity
 _atom_site_fract_x
 _atom_site_fract_y
 _atom_site_fract_z
 _atom_site_occupancy
 _atom_site_hle17_bader_spin_density
 _atom_site_hle17_ddec_charge
 _atom_site_hle17_ddec_spin_density
 _atom_site_hle17_ddec_sum_bond_order
 _atom_site_hle17_magmom
 _atom_site_hse06_10hf_bader_spin_density
 _atom_site_hse06_10hf_ddec_charge
 _atom_site_hse06_10hf_ddec_spin_density
 _atom_site_hse06_10hf_ddec_sum_bond_order
 _atom_site_hse06_10hf_magmom
 _atom_site_hse06_bader_spin_density
 _atom_site_hse06_ddec_charge
 _atom_site_hse06_ddec_spin_density
 _atom_site_hse06_ddec_sum_bond_order
 _atom_site_hse06_magmom
 _atom_site_pbe_bader_spin_density
 _atom_site_pbe_cm5_charge
 _atom_site_pbe_ddec_charge
 _atom_site_pbe_ddec_spin_density
 _atom_site_pbe_ddec_sum_bond_order
 _atom_site_pbe_magmom
Zn  Zn0  1  0.39165459  0.32171071  0.42142377  1  0  1.007342  0  1.807933  0  0  0.835422  0  2.227839  0  0  0.881159  0  2.180325  0  0  0.674985  0.802735  0  2.26079  0
Zn  Zn1  1  0.89165543  0.67828955  0.57857550  1  0  1.007324  0  1.807912  0  0  0.835398  0  2.227837  0  0  0.881138  0  2.180316  0  0  0.674979  0.802709  0  2.260787  0
Zn  Zn2  1  0.39165466  0.17828931  0.92142392  1  0  1.007333  0  1.807936  0  0  0.835411  0  2.227828  0  0  0.881147  0  2.180315  0  0  0.674971  0.802722  0  2.260779  0
Zn  Zn3  1  0.89165430  0.82171095  0.07857535  1  0  1.007337  0  1.807934  0  0  0.835406  0  2.22783  0  0  0.881141  0  2.180319  0  0  0.674978  0.802717  0  2.26078  0
Zn  Zn4  1  0.90425541  0.09833934  0.75635068  1  0  1.165154  0  1.68079  0  0  0.981801  0  2.166904  0  0  1.035088  0  2.099027  0  0  0.690493  0.944036  0  2.214061  0
Zn  Zn5  1  0.40425489  0.90166005  0.24364938  1  0  1.165169  0  1.680791  0  0  0.981798  0  2.16691  0  0  1.035086  0  2.099032  0  0  0.690486  0.944031  0  2.214065  0
Zn  Zn6  1  0.90425433  0.40166082  0.25635057  1  0  1.165162  0  1.680768  0  0  0.981827  0  2.166868  0  0  1.035113  0  2.098992  0  0  0.690503  0.944064  0  2.214025  0
Zn  Zn7  1  0.40425490  0.59834034  0.74364871  1  0  1.165149  0  1.680788  0  0  0.981809  0  2.166896  0  0  1.035093  0  2.099017  0  0  0.690491  0.944042  0  2.214049  0
H  H8  1  0.48190902  0.24096254  0.66032701  1  0  0.085789  0  0.941962  0  0  0.101337  0  1.004057  0  0  0.10173  0  1.005274  0  0  0.109654  0.101046  0  1.003161  0
H  H9  1  0.98190874  0.75903778  0.33967385  1  0  0.085799  0  0.941988  0  0  0.101362  0  1.004047  0  0  0.101755  0  1.005263  0  0  0.109655  0.101071  0  1.003149  0
H  H10  1  0.48190784  0.25903735  0.16032682  1  0  0.085824  0  0.941966  0  0  0.101374  0  1.004057  0  0  0.101767  0  1.005274  0  0  0.10966  0.101082  0  1.003159  0
H  H11  1  0.98190779  0.74096208  0.83967247  1  0  0.085822  0  0.941936  0  0  0.101381  0  1.003996  0  0  0.101774  0  1.005214  0  0  0.109666  0.101088  0  1.003098  0
H  H12  1  0.55624818  0.10261862  0.62900943  1  0  0.081883  0  0.945271  0  0  0.097116  0  1.006481  0  0  0.098673  0  1.005409  0  0  0.105509  0.095973  0  1.007271  0
H  H13  1  0.05624878  0.89738148  0.37099210  1  0  0.081886  0  0.945241  0  0  0.097114  0  1.006459  0  0  0.098671  0  1.005385  0  0  0.105506  0.095971  0  1.00725  0
H  H14  1  0.55624923  0.39738128  0.12900854  1  0  0.081888  0  0.945255  0  0  0.097121  0  1.006476  0  0  0.098677  0  1.005403  0  0  0.105512  0.095978  0  1.007265  0
H  H15  1  0.05624774  0.60261882  0.87099065  1  0  0.081881  0  0.945284  0  0  0.097111  0  1.006496  0  0  0.098667  0  1.005426  0  0  0.105507  0.095967  0  1.007286  0
H  H16  1  0.35281888  0.06072966  0.50739580  1  0  0.073194  0  0.939125  0  0  0.091358  0  0.999191  0  0  0.091709  0  0.999398  0  0  0.108479  0.09086  0  0.999585  0
H  H17  1  0.85281881  0.93927059  0.49260424  1  0  0.073233  0  0.939183  0  0  0.091353  0  0.999258  0  0  0.091717  0  0.999443  0  0  0.108486  0.090856  0  0.999652  0
H  H18  1  0.35281890  0.43927005  0.00739650  1  0  0.073222  0  0.939122  0  0  0.091376  0  0.999179  0  0  0.091727  0  0.999385  0  0  0.108491  0.090877  0  0.999575  0
H  H19  1  0.85281879  0.56072931  0.99260355  1  0  0.073216  0  0.939104  0  0  0.091365  0  0.999194  0  0  0.09173  0  0.999382  0  0  0.108488  0.090867  0  0.999588  0
H  H20  1  0.30072950  0.08476545  0.63956438  1  0  0.096208  0  0.917177  0  0  0.112058  0  0.977133  0  0  0.11372  0  0.976102  0  0  0.110426  0.110774  0  0.978146  0
H  H21  1  0.80073040  0.91523477  0.36043644  1  0  0.09625  0  0.917149  0  0  0.112062  0  0.977109  0  0  0.113722  0  0.976078  0  0  0.110408  0.110778  0  0.978125  0
H  H22  1  0.30072949  0.41523522  0.13956427  1  0  0.096211  0  0.917191  0  0  0.11205  0  0.977141  0  0  0.113712  0  0.97611  0  0  0.110423  0.110768  0  0.978155  0
H  H23  1  0.80072934  0.58476589  0.86043576  1  0  0.096189  0  0.917181  0  0  0.112047  0  0.977134  0  0  0.113709  0  0.976107  0  0  0.110429  0.110763  0  0.97815  0
H  H24  1  0.61915330  0.39164700  0.58555924  1  0  0.11936  0  0.93132  0  0  0.130209  0  0.994474  0  0  0.132554  0  0.993242  0  0  0.116071  0.128464  0  0.995573  0
H  H25  1  0.11915372  0.60835401  0.41444075  1  0  0.11937  0  0.931337  0  0  0.130209  0  0.994488  0  0  0.132552  0  0.993256  0  0  0.116071  0.128464  0  0.995587  0
H  H26  1  0.61915415  0.10835378  0.08555896  1  0  0.119366  0  0.931324  0  0  0.130212  0  0.994476  0  0  0.132556  0  0.993244  0  0  0.116073  0.128466  0  0.995576  0
H  H27  1  0.11915288  0.89164635  0.91444024  1  0  0.119364  0  0.931305  0  0  0.130211  0  0.994461  0  0  0.132555  0  0.993229  0  0  0.116074  0.128468  0  0.995562  0
H  H28  1  0.73078273  0.35663382  0.47876496  1  0  0.112836  0  0.944702  0  0  0.122901  0  1.01217  0  0  0.125011  0  1.011338  0  0  0.114778  0.121658  0  1.012598  0
H  H29  1  0.23078322  0.64336637  0.52123505  1  0  0.112846  0  0.944698  0  0  0.122894  0  1.012175  0  0  0.125001  0  1.01134  0  0  0.114774  0.121652  0  1.012604  0
H  H30  1  0.73078277  0.14336641  0.97876432  1  0  0.112838  0  0.944698  0  0  0.122886  0  1.012184  0  0  0.124994  0  1.011351  0  0  0.114779  0.121644  0  1.012611  0
H  H31  1  0.23078318  0.85663377  0.02123491  1  0  0.112835  0  0.944694  0  0  0.122897  0  1.012167  0  0  0.125006  0  1.011335  0  0  0.114778  0.121657  0  1.012596  0
H  H32  1  0.67125641  0.06835770  0.47940790  1  0  0.098355  0  0.955352  0  0  0.105683  0  1.02853  0  0  0.108179  0  1.027029  0  0  0.108067  0.103854  0  1.030002  0
H  H33  1  0.17125923  0.93164246  0.52059288  1  0  0.098345  0  0.955359  0  0  0.105677  0  1.028542  0  0  0.108175  0  1.02704  0  0  0.108072  0.103851  0  1.03001  0
H  H34  1  0.67125665  0.43164251  0.97940741  1  0  0.098302  0  0.955373  0  0  0.105668  0  1.028519  0  0  0.108165  0  1.027018  0  0  0.108067  0.103841  0  1.029993  0
H  H35  1  0.17125686  0.56835765  0.02059259  1  0  0.098294  0  0.955391  0  0  0.105665  0  1.028541  0  0  0.10816  0  1.027041  0  0  0.108068  0.103841  0  1.030014  0
H  H36  1  0.72002656  0.18395913  0.39417844  1  0  0.128473  0  0.909026  0  0  0.1452  0  0.961606  0  0  0.147728  0  0.960293  0  0  0.123495  0.143337  0  0.962861  0
H  H37  1  0.22002509  0.81604105  0.60582236  1  0  0.128449  0  0.909057  0  0  0.145235  0  0.961578  0  0  0.147767  0  0.960258  0  0  0.123486  0.143373  0  0.962832  0
H  H38  1  0.72002460  0.31604192  0.89417710  1  0  0.128452  0  0.909045  0  0  0.145239  0  0.961568  0  0  0.14777  0  0.960248  0  0  0.123492  0.143378  0  0.962824  0
H  H39  1  0.22002493  0.68395826  0.10582212  1  0  0.128448  0  0.90904  0  0  0.14524  0  0.961564  0  0  0.147771  0  0.960245  0  0  0.123495  0.143381  0  0.962821  0
H  H40  1  0.22623730  0.26635693  0.69257143  1  0  0.128738  0  0.920605  0  0  0.141686  0  0.980353  0  0  0.144103  0  0.979406  0  0  0.122913  0.139999  0  0.981161  0
H  H41  1  0.72623699  0.73364325  0.30742858  1  0  0.128664  0  0.920668  0  0  0.141654  0  0.980382  0  0  0.14407  0  0.979436  0  0  0.122903  0.139973  0  0.981192  0
H  H42  1  0.22623717  0.23364285  0.19257201  1  0  0.128672  0  0.920676  0  0  0.141654  0  0.980382  0  0  0.144069  0  0.979437  0  0  0.122895  0.139968  0  0.981189  0
H  H43  1  0.72623712  0.76635734  0.80742879  1  0  0.128692  0  0.920678  0  0  0.141675  0  0.980384  0  0  0.14409  0  0.979438  0  0  0.122908  0.139989  0  0.981193  0
H  H44  1  0.09203281  0.32177789  0.61080955  1  0  0.121732  0  0.943811  0  0  0.134522  0  1.003037  0  0  0.137108  0  1.001951  0  0  0.119512  0.132334  0  1.004406  0
H  H45  1  0.59203357  0.67822223  0.38919122  1  0  0.121714  0  0.943801  0  0  0.134526  0  1.003019  0  0  0.137112  0  1.001932  0  0  0.119513  0.132342  0  1.004395  0
H  H46  1  0.09203477  0.17822265  0.11080853  1  0  0.121749  0  0.943789  0  0  0.134547  0  1.003011  0  0  0.137134  0  1.001924  0  0  0.11952  0.132359  0  1.004384  0
H  H47  1  0.59203374  0.82177747  0.88919145  1  0  0.121739  0  0.943806  0  0  0.134542  0  1.003021  0  0  0.137128  0  1.001934  0  0  0.119515  0.132353  0  1.004394  0
H  H48  1  0.03972967  0.15553689  0.51475291  1  0  0.106585  0  0.929483  0  0  0.117009  0  0.993265  0  0  0.119472  0  0.99214  0  0  0.108297  0.115148  0  0.994463  0
H  H49  1  0.53973059  0.84446321  0.48524706  1  0  0.106588  0  0.929481  0  0  0.117011  0  0.993262  0  0  0.119473  0  0.992138  0  0  0.108303  0.11515  0  0.99446  0
H  H50  1  0.03972962  0.34446356  0.01475433  1  0  0.106567  0  0.929473  0  0  0.116996  0  0.993247  0  0  0.119458  0  0.992121  0  0  0.108296  0.115134  0  0.994447  0
H  H51  1  0.53972958  0.65553653  0.98524720  1  0  0.10658  0  0.929497  0  0  0.117007  0  0.993268  0  0  0.11947  0  0.992142  0  0  0.108307  0.115145  0  0.994468  0
H  H52  1  0.16511030  0.11011470  0.41762514  1  0  0.116889  0  0.911948  0  0  0.132582  0  0.968544  0  0  0.135039  0  0.966754  0  0  0.122257  0.13073  0  0.970006  0
H  H53  1  0.66511024  0.88988545  0.58237407  1  0  0.116875  0  0.911955  0  0  0.132572  0  0.968545  0  0  0.135027  0  0.966757  0  0  0.122258  0.13072  0  0.970008  0
H  H54  1  0.16511052  0.38988433  0.91762698  1  0  0.116904  0  0.911919  0  0  0.132579  0  0.96854  0  0  0.135034  0  0.96675  0  0  0.122261  0.130725  0  0.970003  0
H  H55  1  0.66511002  0.61011494  0.08237458  1  0  0.116977  0  0.91184  0  0  0.1326  0  0.968515  0  0  0.135053  0  0.966725  0  0  0.122273  0.130747  0  0.969978  0
H  H56  1  0.41387679  0.52123042  0.32704773  1  0  0.442883  0  0.856522  0  0  0.409701  0  0.922232  0  0  0.421617  0  0.905045  0  0  0.2957  0.401313  0  0.934306  0
H  H57  1  0.91387648  0.47876986  0.67295233  1  0  0.442887  0  0.856517  0  0  0.409705  0  0.922229  0  0  0.421621  0  0.905043  0  0  0.295703  0.401317  0  0.934303  0
H  H58  1  0.41387601  0.97876914  0.82704727  1  0  0.442877  0  0.856533  0  0  0.409692  0  0.922252  0  0  0.421608  0  0.905065  0  0  0.295689  0.401303  0  0.934327  0
H  H59  1  0.91387620  0.02123025  0.17295201  1  0  0.442877  0  0.856532  0  0  0.409692  0  0.922248  0  0  0.421609  0  0.90506  0  0  0.295695  0.401304  0  0.934322  0
H  H60  1  0.56807780  0.46330508  0.31556743  1  0  0.424048  0  0.876447  0  0  0.39369  0  0.938329  0  0  0.403853  0  0.923708  0  0  0.295286  0.386554  0  0.948592  0
H  H61  1  0.06807830  0.53669502  0.68443254  1  0  0.42405  0  0.876445  0  0  0.39369  0  0.93833  0  0  0.403853  0  0.923708  0  0  0.295286  0.386555  0  0.948591  0
H  H62  1  0.56807883  0.03669495  0.81556750  1  0  0.424036  0  0.876462  0  0  0.393677  0  0.938346  0  0  0.40384  0  0.923724  0  0  0.295274  0.386541  0  0.948608  0
H  H63  1  0.06807833  0.96330515  0.18443247  1  0  0.424045  0  0.876455  0  0  0.393683  0  0.938343  0  0  0.403847  0  0.923721  0  0  0.295276  0.386547  0  0.948606  0
C  C64  1  0.49211132  0.17533227  0.59734843  1  0  -0.048319  0  3.629859  0  0  -0.105298  0  3.886979  0  0  -0.1034  0  3.900167  0  0  -0.081421  -0.106412  0  3.877595  0
C  C65  1  0.99211218  0.82466805  0.40265165  1  0  -0.048319  0  3.629941  0  0  -0.105334  0  3.88704  0  0  -0.103444  0  3.90024  0  0  -0.081432  -0.106444  0  3.877651  0
C  C66  1  0.49211231  0.32466758  0.09734906  1  0  -0.048345  0  3.629907  0  0  -0.10536  0  3.88704  0  0  -0.103463  0  3.90023  0  0  -0.081427  -0.106467  0  3.877647  0
C  C67  1  0.99211118  0.67533274  0.90265024  1  0  -0.048357  0  3.62987  0  0  -0.105342  0  3.887029  0  0  -0.103437  0  3.9002  0  0  -0.08143  -0.106446  0  3.87763  0
C  C68  1  0.34557769  0.12783796  0.56947651  1  0  -0.037835  0  3.625432  0  0  -0.099094  0  3.887185  0  0  -0.096032  0  3.898602  0  0  -0.072077  -0.101307  0  3.879598  0
C  C69  1  0.84557860  0.87216228  0.43052354  1  0  -0.038024  0  3.625676  0  0  -0.09914  0  3.887254  0  0  -0.096073  0  3.898653  0  0  -0.072083  -0.101355  0  3.879664  0
C  C70  1  0.34557872  0.37216179  0.06947716  1  0  -0.037892  0  3.625516  0  0  -0.099084  0  3.887188  0  0  -0.096017  0  3.898599  0  0  -0.072081  -0.101298  0  3.8796  0
C  C71  1  0.84557757  0.62783845  0.93052288  1  0  -0.037836  0  3.625422  0  0  -0.099099  0  3.887191  0  0  -0.096047  0  3.89861  0  0  -0.072077  -0.101314  0  3.879602  0
C  C72  1  0.67446102  0.31849663  0.54625800  1  0  -0.18295  0  3.632421  0  0  -0.238092  0  3.882709  0  0  -0.239636  0  3.889541  0  0  -0.073771  -0.236987  0  3.87793  0
C  C73  1  0.17446151  0.68150353  0.45374200  1  0  -0.183008  0  3.632486  0  0  -0.238104  0  3.882713  0  0  -0.239639  0  3.889535  0  0  -0.073766  -0.237003  0  3.877941  0
C  C74  1  0.67446085  0.18150327  0.04625777  1  0  -0.182947  0  3.632369  0  0  -0.23807  0  3.882657  0  0  -0.239609  0  3.889484  0  0  -0.073768  -0.236965  0  3.877879  0
C  C75  1  0.17446168  0.81849689  0.95374145  1  0  -0.182929  0  3.632391  0  0  -0.238065  0  3.882684  0  0  -0.239604  0  3.889511  0  0  -0.073762  -0.236977  0  3.877928  0
C  C76  1  0.78730213  0.27177946  0.62174728  1  0  0.6942  0  3.836381  0  0  0.643981  0  4.137642  0  0  0.677128  0  4.131223  0  0  0.213879  0.62139  0  4.141088  0
C  C77  1  0.28730156  0.72821987  0.37825197  1  0  0.69425  0  3.836346  0  0  0.644026  0  4.137592  0  0  0.677172  0  4.131169  0  0  0.2139  0.621435  0  4.141039  0
C  C78  1  0.78730094  0.22822055  0.12174707  1  0  0.694223  0  3.836323  0  0  0.643993  0  4.137597  0  0  0.677141  0  4.131174  0  0  0.213873  0.621401  0  4.141043  0
C  C79  1  0.28730170  0.77177966  0.87825217  1  0  0.694259  0  3.8363  0  0  0.644015  0  4.137597  0  0  0.677159  0  4.131178  0  0  0.213884  0.621427  0  4.141045  0
C  C80  1  0.62938103  0.14463826  0.43629169  1  0  -0.184953  0  3.64466  0  0  -0.237667  0  3.890324  0  0  -0.240216  0  3.898451  0  0  -0.07439  -0.236121  0  3.885071  0
C  C81  1  0.12938063  0.85536188  0.56370830  1  0  -0.184909  0  3.644707  0  0  -0.237691  0  3.890379  0  0  -0.240243  0  3.89851  0  0  -0.074395  -0.236146  0  3.88513  0
C  C82  1  0.62937909  0.35536189  0.93629116  1  0  -0.184845  0  3.644648  0  0  -0.237638  0  3.890316  0  0  -0.240188  0  3.898446  0  0  -0.074384  -0.236097  0  3.885071  0
C  C83  1  0.12937937  0.64463824  0.06370805  1  0  -0.184852  0  3.644605  0  0  -0.237672  0  3.890303  0  0  -0.240225  0  3.898437  0  0  -0.074418  -0.23614  0  3.885065  0
C  C84  1  0.52372158  0.10234005  0.35392832  1  0  0.687675  0  3.843366  0  0  0.635845  0  4.144979  0  0  0.669935  0  4.138327  0  0  0.215381  0.612732  0  4.148603  0
C  C85  1  0.02371807  0.89765915  0.64607086  1  0  0.687613  0  3.843467  0  0  0.635816  0  4.145053  0  0  0.669905  0  4.138405  0  0  0.215375  0.612703  0  4.148675  0
C  C86  1  0.52371755  0.39765911  0.85392860  1  0  0.687625  0  3.8435  0  0  0.635803  0  4.14513  0  0  0.669892  0  4.138481  0  0  0.215375  0.612693  0  4.148752  0
C  C87  1  0.02371784  0.60234098  0.14607058  1  0  0.68759  0  3.84349  0  0  0.635778  0  4.145113  0  0  0.669866  0  4.138467  0  0  0.215365  0.612669  0  4.148736  0
C  C88  1  0.20720583  0.30524903  0.61465671  1  0  -0.19679  0  3.620463  0  0  -0.244861  0  3.858078  0  0  -0.248115  0  3.866778  0  0  -0.071076  -0.242698  0  3.852545  0
C  C89  1  0.70720553  0.69475026  0.38534329  1  0  -0.196693  0  3.620379  0  0  -0.244845  0  3.858047  0  0  -0.248095  0  3.866743  0  0  -0.071064  -0.242716  0  3.852552  0
C  C90  1  0.20720673  0.19475069  0.11465727  1  0  -0.196757  0  3.620456  0  0  -0.244872  0  3.858104  0  0  -0.248124  0  3.866801  0  0  -0.071054  -0.242715  0  3.852571  0
C  C91  1  0.70720569  0.80524949  0.88534352  1  0  -0.196797  0  3.620459  0  0  -0.244901  0  3.858077  0  0  -0.248151  0  3.866776  0  0  -0.071056  -0.242741  0  3.852544  0
C  C92  1  0.28349543  0.42351220  0.61365066  1  0  0.698022  0  3.819221  0  0  0.640367  0  4.128162  0  0  0.674557  0  4.120115  0  0  0.21975  0.616944  0  4.133153  0
C  C93  1  0.78349611  0.57648801  0.38634937  1  0  0.698004  0  3.819298  0  0  0.64037  0  4.128219  0  0  0.674559  0  4.120172  0  0  0.219746  0.616958  0  4.133207  0
C  C94  1  0.28349518  0.07648755  0.11365115  1  0  0.698036  0  3.819193  0  0  0.640371  0  4.128146  0  0  0.67456  0  4.120098  0  0  0.219731  0.616952  0  4.133133  0
C  C95  1  0.78349529  0.92351266  0.88634888  1  0  0.698041  0  3.819133  0  0  0.640365  0  4.128106  0  0  0.674553  0  4.12006  0  0  0.219731  0.616945  0  4.133094  0
C  C96  1  0.13116384  0.18448411  0.46743039  1  0  -0.175523  0  3.64363  0  0  -0.230194  0  3.892041  0  0  -0.231974  0  3.899257  0  0  -0.068579  -0.229132  0  3.887217  0
C  C97  1  0.63116476  0.81551603  0.53256960  1  0  -0.175533  0  3.643614  0  0  -0.230194  0  3.892023  0  0  -0.231974  0  3.89924  0  0  -0.06858  -0.229134  0  3.887199  0
C  C98  1  0.13116294  0.31551494  0.96743141  1  0  -0.175476  0  3.6435  0  0  -0.230138  0  3.891931  0  0  -0.23191  0  3.899136  0  0  -0.068547  -0.229074  0  3.887109  0
C  C99  1  0.63116459  0.68448343  0.03257015  1  0  -0.17558  0  3.643537  0  0  -0.230204  0  3.89196  0  0  -0.231975  0  3.899167  0  0  -0.06858  -0.22914  0  3.88714  0
C  C100  1  0.08780897  0.28341166  0.39246732  1  0  0.685034  0  3.839505  0  0  0.633746  0  4.139682  0  0  0.667404  0  4.133757  0  0  0.214046  0.610933  0  4.142997  0
C  C101  1  0.58780879  0.71658846  0.60753266  1  0  0.685037  0  3.839491  0  0  0.633739  0  4.139681  0  0  0.667397  0  4.133754  0  0  0.214041  0.610929  0  4.142996  0
C  C102  1  0.08780906  0.21658820  0.89246828  1  0  0.685083  0  3.839566  0  0  0.633742  0  4.139798  0  0  0.667399  0  4.133871  0  0  0.213962  0.610928  0  4.143115  0
C  C103  1  0.58780869  0.78341192  0.10753248  1  0  0.685116  0  3.839536  0  0  0.633765  0  4.139768  0  0  0.667421  0  4.133842  0  0  0.213977  0.610949  0  4.143087  0
N  N104  1  0.56793747  0.23274314  0.50820044  1  0  -0.185811  0  3.286316  0  0  -0.093763  0  3.526615  0  0  -0.109565  0  3.546752  0  0  -0.334651  -0.082454  0  3.51257  0
N  N105  1  0.06793804  0.76725785  0.49179953  1  0  -0.18579  0  3.286347  0  0  -0.093748  0  3.526655  0  0  -0.109552  0  3.546791  0  0  -0.334649  -0.082439  0  3.51261  0
N  N106  1  0.56793736  0.26725756  0.00820026  1  0  -0.185863  0  3.286349  0  0  -0.093818  0  3.526681  0  0  -0.10962  0  3.546818  0  0  -0.33468  -0.082509  0  3.512639  0
N  N107  1  0.06793814  0.73274254  0.99179893  1  0  -0.185843  0  3.286278  0  0  -0.093794  0  3.526601  0  0  -0.109598  0  3.546741  0  0  -0.334664  -0.082477  0  3.512561  0
N  N108  1  0.25213263  0.22338248  0.53109200  1  0  -0.180753  0  3.332376  0  0  -0.089543  0  3.572569  0  0  -0.105569  0  3.593944  0  0  -0.341856  -0.077775  0  3.557227  0
N  N109  1  0.75213243  0.77661684  0.46890802  1  0  -0.180636  0  3.332235  0  0  -0.089463  0  3.572415  0  0  -0.105494  0  3.593787  0  0  -0.341858  -0.077684  0  3.557076  0
N  N110  1  0.25213253  0.27661632  0.03109260  1  0  -0.180708  0  3.332277  0  0  -0.089526  0  3.572484  0  0  -0.105556  0  3.593855  0  0  -0.341869  -0.077756  0  3.557142  0
N  N111  1  0.75213253  0.72338299  0.96890742  1  0  -0.180666  0  3.332171  0  0  -0.089455  0  3.572363  0  0  -0.105484  0  3.593736  0  0  -0.34187  -0.077687  0  3.557021  0
O  O112  1  0.79602494  0.15879374  0.63390351  1  0  -0.662977  0  2.04523  0  0  -0.586592  0  2.320584  0  0  -0.616654  0  2.305096  0  0  -0.326203  -0.565489  0  2.330673  0
O  O113  1  0.29602444  0.84120648  0.36609574  1  0  -0.662984  0  2.045213  0  0  -0.586601  0  2.320573  0  0  -0.616664  0  2.305084  0  0  -0.326206  -0.565498  0  2.33066  0
O  O114  1  0.79602489  0.34120628  0.13390415  1  0  -0.66299  0  2.04522  0  0  -0.586598  0  2.320568  0  0  -0.61666  0  2.30508  0  0  -0.326203  -0.565495  0  2.330657  0
O  O115  1  0.29602556  0.65879306  0.86609588  1  0  -0.663004  0  2.04518  0  0  -0.586594  0  2.320527  0  0  -0.616654  0  2.305036  0  0  -0.326191  -0.56549  0  2.330614  0
O  O116  1  0.86570149  0.34405825  0.66869344  1  0  -0.627237  0  1.991549  0  0  -0.572992  0  2.215651  0  0  -0.597953  0  2.205399  0  0  -0.313161  -0.555433  0  2.222466  0
O  O117  1  0.36570191  0.65594201  0.33130582  1  0  -0.627251  0  1.991518  0  0  -0.573017  0  2.215634  0  0  -0.597982  0  2.205381  0  0  -0.31317  -0.555457  0  2.222448  0
O  O118  1  0.86570131  0.15594183  0.16869398  1  0  -0.627253  0  1.991488  0  0  -0.573009  0  2.215605  0  0  -0.597974  0  2.20535  0  0  -0.313164  -0.555448  0  2.222418  0
O  O119  1  0.36570210  0.84405842  0.83130529  1  0  -0.627272  0  1.991511  0  0  -0.573022  0  2.215632  0  0  -0.597985  0  2.20538  0  0  -0.313159  -0.55546  0  2.222444  0
O  O120  1  0.42336902  0.16977980  0.32557652  1  0  -0.621308  0  2.045861  0  0  -0.556906  0  2.301676  0  0  -0.583952  0  2.291581  0  0  -0.30701  -0.538118  0  2.308033  0
O  O121  1  0.92336683  0.83022048  0.67442433  1  0  -0.621281  0  2.04593  0  0  -0.556886  0  2.301713  0  0  -0.583932  0  2.291621  0  0  -0.306996  -0.538099  0  2.308073  0
O  O122  1  0.42336601  0.33022018  0.82557676  1  0  -0.621293  0  2.045907  0  0  -0.556915  0  2.301746  0  0  -0.58396  0  2.291652  0  0  -0.307014  -0.538127  0  2.308106  0
O  O123  1  0.92336559  0.66978011  0.17442330  1  0  -0.621275  0  2.045883  0  0  -0.556908  0  2.301724  0  0  -0.583952  0  2.291631  0  0  -0.307015  -0.538119  0  2.308083  0
O  O124  1  0.54726412  0.99913264  0.31718689  1  0  -0.635708  0  2.053753  0  0  -0.566171  0  2.338288  0  0  -0.594876  0  2.320462  0  0  -0.316375  -0.546004  0  2.349957  0
O  O125  1  0.04726211  0.00086745  0.68281307  1  0  -0.635653  0  2.053736  0  0  -0.566143  0  2.338268  0  0  -0.594847  0  2.320444  0  0  -0.316354  -0.545984  0  2.349955  0
O  O126  1  0.54726087  0.50086698  0.81718695  1  0  -0.635644  0  2.053752  0  0  -0.566124  0  2.338293  0  0  -0.594828  0  2.32047  0  0  -0.316334  -0.545962  0  2.349974  0
O  O127  1  0.04726110  0.49913223  0.18281223  1  0  -0.635643  0  2.053784  0  0  -0.566102  0  2.338283  0  0  -0.594806  0  2.32046  0  0  -0.316321  -0.545946  0  2.349971  0
O  O128  1  0.37988461  0.44588163  0.54847329  1  0  -0.601428  0  2.045788  0  0  -0.54003  0  2.302666  0  0  -0.565686  0  2.291086  0  0  -0.295274  -0.522133  0  2.310298  0
O  O129  1  0.87988531  0.55411775  0.45152676  1  0  -0.601422  0  2.045847  0  0  -0.540026  0  2.302712  0  0  -0.565686  0  2.291139  0  0  -0.295262  -0.522131  0  2.31034  0
O  O130  1  0.37988542  0.05411812  0.04847298  1  0  -0.601428  0  2.045821  0  0  -0.540009  0  2.302682  0  0  -0.565667  0  2.291103  0  0  -0.295248  -0.522114  0  2.310314  0
O  O131  1  0.87988450  0.94588214  0.95152628  1  0  -0.601429  0  2.045771  0  0  -0.54001  0  2.302645  0  0  -0.565665  0  2.291064  0  0  -0.295262  -0.522113  0  2.310275  0
O  O132  1  0.24473849  0.49715586  0.68577977  1  0  -0.678815  0  2.069116  0  0  -0.600908  0  2.339294  0  0  -0.629915  0  2.32123  0  0  -0.323895  -0.580689  0  2.351223  0
O  O133  1  0.74473908  0.50284434  0.31422025  1  0  -0.678818  0  2.069134  0  0  -0.600919  0  2.339303  0  0  -0.62993  0  2.321244  0  0  -0.323893  -0.580698  0  2.351226  0
O  O134  1  0.24473819  0.00284393  0.18577943  1  0  -0.678833  0  2.0691  0  0  -0.60093  0  2.33929  0  0  -0.629939  0  2.321228  0  0  -0.323895  -0.58071  0  2.351217  0
O  O135  1  0.74473938  0.99715626  0.81422058  1  0  -0.678815  0  2.069064  0  0  -0.600918  0  2.339269  0  0  -0.62993  0  2.321214  0  0  -0.32389  -0.580698  0  2.351195  0
O  O136  1  0.18148577  0.35444046  0.36020644  1  0  -0.602384  0  2.001243  0  0  -0.535126  0  2.245556  0  0  -0.561304  0  2.234524  0  0  -0.301945  -0.517028  0  2.252597  0
O  O137  1  0.68148662  0.64555971  0.63979356  1  0  -0.602392  0  2.00125  0  0  -0.535128  0  2.245571  0  0  -0.561307  0  2.234539  0  0  -0.301938  -0.517032  0  2.252612  0
O  O138  1  0.18148582  0.14556031  0.86020658  1  0  -0.602465  0  2.00134  0  0  -0.535147  0  2.245631  0  0  -0.561329  0  2.234602  0  0  -0.3019  -0.517049  0  2.252672  0
O  O139  1  0.68148658  0.85444074  0.13979342  1  0  -0.602503  0  2.001313  0  0  -0.535168  0  2.245605  0  0  -0.561349  0  2.234574  0  0  -0.301918  -0.51707  0  2.252646  0
O  O140  1  0.95715789  0.28556085  0.36433206  1  0  -0.637806  0  2.055872  0  0  -0.568534  0  2.337364  0  0  -0.597957  0  2.320162  0  0  -0.314649  -0.54845  0  2.348995  0
O  O141  1  0.45715849  0.71443857  0.63566801  1  0  -0.637806  0  2.055894  0  0  -0.568536  0  2.337401  0  0  -0.597959  0  2.320196  0  0  -0.314649  -0.54845  0  2.349029  0
O  O142  1  0.95715798  0.21443853  0.86433224  1  0  -0.637857  0  2.055924  0  0  -0.56854  0  2.337409  0  0  -0.597965  0  2.320208  0  0  -0.314633  -0.548455  0  2.349039  0
O  O143  1  0.45715840  0.78556088  0.13566784  1  0  -0.637872  0  2.055949  0  0  -0.568547  0  2.337439  0  0  -0.597972  0  2.320238  0  0  -0.314634  -0.548463  0  2.34907  0
O  O144  1  0.46537950  0.44350098  0.31913383  1  0  -0.813796  0  1.913921  0  0  -0.74044  0  2.121363  0  0  -0.762956  0  2.086038  0  0  -0.572655  -0.724579  0  2.145704  0
O  O145  1  0.96537924  0.55649932  0.68086703  1  0  -0.813812  0  1.913918  0  0  -0.740461  0  2.121372  0  0  -0.762978  0  2.086045  0  0  -0.572657  -0.724593  0  2.145696  0
O  O146  1  0.46537948  0.05649901  0.81913313  1  0  -0.813791  0  1.913927  0  0  -0.740439  0  2.121374  0  0  -0.762954  0  2.086049  0  0  -0.572646  -0.724574  0  2.145708  0
O  O147  1  0.96537926  0.94350129  0.18086616  1  0  -0.813791  0  1.913932  0  0  -0.740432  0  2.121382  0  0  -0.762948  0  2.086056  0  0  -0.572646  -0.724572  0  2.145729  0
