# generated using pymatgen
data_MnH17C20N2O5
_symmetry_space_group_name_H-M   'P 1'
_cell_length_a   9.39280420
_cell_length_b   9.61865746
_cell_length_c   10.98545331
_cell_angle_alpha   94.17237995
_cell_angle_beta   101.15952530
_cell_angle_gamma   108.50841947
_symmetry_Int_Tables_number   1
_chemical_formula_structural   MnH17C20N2O5
_chemical_formula_sum   'Mn2 H34 C40 N4 O10'
_cell_volume   913.70729751
_cell_formula_units_Z   2
loop_
 _symmetry_equiv_pos_site_id
 _symmetry_equiv_pos_as_xyz
  1  'x, y, z'
loop_
 _atom_site_type_symbol
 _atom_site_label
 _atom_site_symmetry_multiplicity
 _atom_site_fract_x
 _atom_site_fract_y
 _atom_site_fract_z
 _atom_site_occupancy
 _atom_site_hle17_ddec_charge
 _atom_site_hle17_ddec_spin_density
 _atom_site_hle17_ddec_sum_bond_order
 _atom_site_hle17_magmom
 _atom_site_hse06_10hf_ddec_charge
 _atom_site_hse06_10hf_ddec_spin_density
 _atom_site_hse06_10hf_ddec_sum_bond_order
 _atom_site_hse06_10hf_magmom
 _atom_site_hse06_ddec_charge
 _atom_site_hse06_ddec_spin_density
 _atom_site_hse06_ddec_sum_bond_order
 _atom_site_hse06_magmom
 _atom_site_pbe_cm5_charge
 _atom_site_pbe_ddec_charge
 _atom_site_pbe_ddec_spin_density
 _atom_site_pbe_ddec_sum_bond_order
 _atom_site_pbe_magmom
Mn  Mn0  1  0.43279908  0.51706912  0.62038807  1  1.152009  4.796413  1.811769  4.644  0.986717  4.725417  2.339975  4.494  1.054688  4.770441  2.256033  4.564  0.608  0.933074  4.679054  2.402751  4.425
Mn  Mn1  1  0.56719908  0.48293111  0.37961676  1  1.152063  4.796426  1.811772  4.644  0.986763  4.725416  2.340011  4.494  1.05473  4.770447  2.256069  4.564  0.608015  0.933124  4.679043  2.402781  4.425
H  H2  1  0.94294291  0.35362999  0.40778974  1  0.110796  -0.000344  0.930128  0.0  0.122136  -0.00026  0.985943  0.0  0.125822  -0.000302  0.983264  0.0  0.112366  0.119512  -0.000178  0.987624  0.0
H  H3  1  0.05706447  0.64637464  0.59220508  1  0.11073  -0.000331  0.930136  0.0  0.122076  -0.00026  0.985947  0.0  0.125763  -0.000302  0.983266  0.0  0.11232  0.119457  -0.000178  0.987628  0.0
H  H4  1  0.68027691  0.21263070  0.27939793  1  0.105878  -0.000252  0.968763  0.0  0.112605  -9.9e-05  1.036776  0.0  0.115642  -0.000179  1.03566  0.0  0.105565  0.110214  6e-05  1.037963  0.0
H  H5  1  0.31972759  0.78737505  0.72059920  1  0.105992  -0.00027  0.968665  0.0  0.112689  -9.8e-05  1.036711  0.0  0.115726  -0.00018  1.035595  0.0  0.105594  0.110308  6e-05  1.03789  0.0
H  H6  1  0.64794538  0.02757328  0.09501445  1  0.077252  -9.4e-05  0.95873  0.0  0.091178  -2e-05  1.016643  0.0  0.093309  -3e-05  1.01585  0.0  0.097766  0.089295  -9e-06  1.018263  0.0
H  H7  1  0.35205382  0.97242361  0.90498580  1  0.077205  -8.4e-05  0.958731  0.0  0.091138  -2e-05  1.016649  0.0  0.09327  -3e-05  1.015855  0.0  0.097747  0.089257  -9e-06  1.018271  0.0
H  H8  1  0.87911828  0.97814862  0.04816299  1  0.115701  4.8e-05  0.969319  0.0  0.119934  2.5e-05  1.039112  0.0  0.124601  1.9e-05  1.035455  0.0  0.104094  0.11656  5.7e-05  1.04181  0.0
H  H9  1  0.12087984  0.02184826  0.95183344  1  0.115668  4.6e-05  0.969443  0.0  0.119929  2.5e-05  1.039196  0.0  0.124593  1.8e-05  1.035544  0.0  0.104083  0.116555  5.7e-05  1.041896  0.0
H  H10  1  0.10103997  0.00802309  0.38795387  1  0.112429  -4e-06  0.950008  0.0  0.125457  -1.1e-05  1.001898  0.0  0.128412  -2.5e-05  1.001733  0.0  0.107483  0.123306  6e-06  1.002229  0.0
H  H11  1  0.89895859  0.99197486  0.61203450  1  0.112404  -9e-06  0.950081  0.0  0.125417  -1.1e-05  1.001993  0.0  0.128374  -2.5e-05  1.001825  0.0  0.107465  0.123269  6e-06  1.002319  0.0
H  H12  1  0.22712832  0.84837554  0.50082628  1  0.094943  -0.000218  0.972465  0.0  0.104311  -0.000141  1.036728  0.0  0.106882  -0.000178  1.035387  0.0  0.102623  0.10255  -7.9e-05  1.037567  0.0
H  H13  1  0.77287376  0.15163574  0.49917258  1  0.094939  -0.000204  0.972428  0.0  0.104309  -0.000141  1.036692  0.0  0.106883  -0.000178  1.03535  0.0  0.102627  0.102549  -7.9e-05  1.037531  0.0
H  H14  1  0.50793378  0.86836888  0.23432627  1  0.09048  -0.000213  0.966778  0.0  0.10103  -0.000131  1.028809  0.0  0.104152  -0.000187  1.02626  0.0  0.10164  0.098591  -6.9e-05  1.03087  0.0
H  H15  1  0.49206789  0.13162581  0.76567700  1  0.090472  -0.00022  0.966821  0.0  0.101019  -0.000131  1.028845  0.0  0.104145  -0.000187  1.026295  0.0  0.101649  0.098582  -6.9e-05  1.030907  0.0
H  H16  1  0.38054642  0.02731689  0.11728706  1  0.096054  1.6e-05  0.97104  0.0  0.107445  3e-06  1.034885  0.0  0.11035  -6e-06  1.033802  0.0  0.100301  0.105304  1e-05  1.036229  0.0
H  H17  1  0.61945398  0.97266781  0.88270539  1  0.096066  1.8e-05  0.971015  0.0  0.107437  2e-06  1.034894  0.0  0.110344  -6e-06  1.033813  0.0  0.100291  0.105297  1e-05  1.036238  0.0
H  H18  1  0.57490965  0.73030653  0.89396234  1  0.103154  -5.4e-05  0.964715  0.0  0.112462  0.000233  1.026842  0.0  0.115071  0.000137  1.025382  0.0  0.118038  0.110694  0.000324  1.027683  0.0
H  H19  1  0.42508990  0.26969149  0.10604441  1  0.103073  -6.9e-05  0.964708  0.0  0.112496  0.000232  1.026715  0.0  0.115112  0.000138  1.025238  0.0  0.118033  0.110726  0.000324  1.027568  0.0
H  H20  1  0.43809581  0.67209858  0.09844918  1  0.11835  2.6e-05  0.962515  0.0  0.128786  7.8e-05  1.023662  0.0  0.13153  -1.7e-05  1.022171  0.0  0.124013  0.126828  0.000158  1.024568  0.0
H  H21  1  0.56190344  0.32790165  0.90155765  1  0.118407  2.9e-05  0.96252  0.0  0.128821  7.8e-05  1.023671  0.0  0.131563  -1.7e-05  1.022182  0.0  0.12407  0.126866  0.000158  1.024576  0.0
H  H22  1  0.15735616  0.30462730  0.66587220  1  0.155556  0.000274  0.956465  0.0  0.175409  0.000681  1.011533  0.0  0.178351  0.000501  1.009491  0.0  0.110383  0.173297  0.000856  1.012963  0.0
H  H23  1  0.84264140  0.69537734  0.33412915  1  0.155497  0.000249  0.956501  0.0  0.175341  0.000681  1.011587  0.0  0.178284  0.000499  1.009544  0.0  0.110374  0.173227  0.000856  1.013019  0.0
H  H24  1  0.02492048  0.32211780  0.75593208  1  0.125245  0.000156  0.955532  0.0  0.143039  0.000266  1.019703  0.0  0.144707  0.000229  1.020091  0.0  0.097415  0.142082  0.000324  1.018812  0.0
H  H25  1  0.97507375  0.67788351  0.24406850  1  0.125184  0.000147  0.955547  0.0  0.142958  0.000267  1.019755  0.0  0.144626  0.000228  1.020144  0.0  0.097388  0.141999  0.000324  1.018866  0.0
H  H26  1  0.14204569  0.21354918  0.80039834  1  0.120165  0.000127  0.957506  0.0  0.136744  0.000204  1.025019  0.0  0.138278  0.000166  1.025313  0.0  0.092809  0.135474  0.000233  1.025022  0.0
H  H27  1  0.85795257  0.78645436  0.19960306  1  0.120124  0.000116  0.957489  0.0  0.136697  0.000204  1.025012  0.0  0.138231  0.000165  1.025307  0.0  0.092792  0.135427  0.000233  1.025016  0.0
H  H28  1  0.24330160  0.41919717  0.12994924  1  0.093713  -0.000507  0.945535  0.0  0.104287  -0.000436  1.013868  0.0  0.105933  -0.000504  1.012845  0.0  0.113525  0.102988  -0.000306  1.014094  0.0
H  H29  1  0.75669300  0.58080526  0.87005420  1  0.093632  -0.000504  0.945572  0.0  0.104209  -0.000436  1.013894  0.0  0.105855  -0.000503  1.012872  0.0  0.113504  0.102911  -0.000306  1.014117  0.0
H  H30  1  0.10824315  0.30862455  0.99477100  1  0.07419  -5.5e-05  0.923488  0.0  0.092116  -3.6e-05  0.983921  0.0  0.092464  -3.6e-05  0.984315  0.0  0.110872  0.091897  -4.3e-05  0.983668  0.0
H  H31  1  0.89175083  0.69138231  0.00523260  1  0.0741  -6e-05  0.92358  0.0  0.092043  -3.6e-05  0.983976  0.0  0.092394  -3.6e-05  0.984365  0.0  0.110846  0.091821  -4.3e-05  0.983722  0.0
H  H32  1  0.99771713  0.44858108  0.12936782  1  0.075266  -7e-06  0.946987  0.0  0.09296  -7e-06  1.008548  0.0  0.09249  -1.5e-05  1.011477  0.0  0.093895  0.093513  9e-06  1.005914  0.0
H  H33  1  0.00228051  0.55142688  0.87063465  1  0.075315  -1.9e-05  0.946833  0.0  0.093019  -7e-06  1.008419  0.0  0.09255  -1.6e-05  1.011348  0.0  0.093934  0.093572  9e-06  1.005785  0.0
H  H34  1  0.12378349  0.61813833  0.10227603  1  0.069644  -3e-06  0.932215  0.0  0.090318  1.3e-05  0.990261  0.0  0.090367  1.1e-05  0.991807  0.0  0.092599  0.090061  2e-05  0.989363  0.0
H  H35  1  0.87621553  0.38186743  0.89772836  1  0.069617  -1.6e-05  0.932191  0.0  0.09032  1.4e-05  0.990236  0.0  0.090369  1e-05  0.991781  0.0  0.092591  0.090065  2e-05  0.989341  0.0
C  C36  1  0.21420777  0.33953846  0.38041018  1  0.683912  0.007455  3.882346  0.007  0.629371  0.013725  4.176923  0.012  0.666163  0.010639  4.169239  0.01  0.226287  0.603745  0.017033  4.181845  0.015
C  C37  1  0.78579221  0.66046065  0.61959034  1  0.683888  0.00746  3.882366  0.007  0.629412  0.013722  4.176833  0.012  0.666195  0.010638  4.169165  0.01  0.226318  0.603773  0.01703  4.181755  0.015
C  C38  1  0.05831634  0.24638709  0.30236708  1  -0.162514  0.000592  3.740995  0.001  -0.145703  0.001115  3.979717  0.001  -0.154569  0.000223  3.99915  0.001  -0.020134  -0.140648  0.00223  3.967888  0.002
C  C39  1  0.94168722  0.75360980  0.69763027  1  -0.162604  0.000709  3.741103  0.001  -0.145851  0.001116  3.97978  0.001  -0.154718  0.000231  3.999216  0.001  -0.020236  -0.140755  0.002231  3.96791  0.002
C  C40  1  0.92693100  0.27070858  0.32857249  1  -0.055442  0.001668  3.72569  0.002  -0.07826  0.002036  3.974997  0.002  -0.07707  0.00164  3.993126  0.002  -0.079104  -0.078888  0.002749  3.962633  0.002
C  C41  1  0.07307303  0.72929274  0.67142338  1  -0.055284  0.001538  3.725774  0.001  -0.078097  0.002036  3.975053  0.002  -0.076907  0.001632  3.993187  0.002  -0.079011  -0.078742  0.002748  3.96268  0.002
C  C42  1  0.77989688  0.19255522  0.25555735  1  -0.079038  -0.001569  3.764591  -0.001  -0.097603  -0.000824  4.02183  0.0  -0.101008  -0.00117  4.04389  -0.001  -0.091565  -0.095534  -0.000632  4.007995  0.0
C  C43  1  0.22010419  0.80744388  0.74443971  1  -0.079265  -0.001384  3.764649  -0.001  -0.097821  -0.000825  4.021909  0.0  -0.101229  -0.001158  4.043969  -0.001  -0.091595  -0.095759  -0.000631  4.008078  0.0
C  C44  1  0.76233525  0.08826744  0.15364377  1  -0.04292  0.001907  3.784823  0.002  -0.056419  0.002327  4.03306  0.002  -0.056481  0.001894  4.055032  0.001  -0.088328  -0.057013  0.002866  4.019738  0.002
C  C45  1  0.23766574  0.91172834  0.84635399  1  -0.042727  0.001797  3.784799  0.001  -0.056237  0.002326  4.033029  0.002  -0.056299  0.001885  4.055001  0.001  -0.088299  -0.056835  0.002864  4.019714  0.002
C  C46  1  0.89056112  0.05956176  0.12708373  1  -0.188821  -0.001526  3.762355  -0.001  -0.209609  -0.000806  4.018631  -0.001  -0.214506  -0.001096  4.036983  -0.001  -0.104881  -0.206564  -0.000558  4.006874  -0.001
C  C47  1  0.10944175  0.94043623  0.87291265  1  -0.188836  -0.001397  3.762492  -0.001  -0.209687  -0.000803  4.018682  -0.001  -0.214585  -0.001086  4.037034  -0.001  -0.104905  -0.206638  -0.000558  4.006936  -0.001
C  C48  1  0.03701829  0.13730943  0.20176034  1  0.252752  0.001769  3.766291  0.002  0.235869  0.00223  4.029317  0.002  0.246352  0.001855  4.045569  0.002  0.086087  0.228348  0.00273  4.0192  0.002
C  C49  1  0.96298528  0.86268746  0.79823610  1  0.252698  0.001694  3.76622  0.002  0.23597  0.002229  4.029061  0.002  0.246464  0.00185  4.045302  0.002  0.086147  0.228425  0.002729  4.018954  0.002
C  C50  1  0.23107881  0.02433808  0.24384414  1  0.294774  0.000566  3.773982  0.001  0.281519  0.000838  4.038105  0.001  0.29479  0.000636  4.052445  0.001  0.088741  0.272643  0.001948  4.028773  0.002
C  C51  1  0.76892361  0.97565547  0.75614736  1  0.294565  0.000543  3.774116  0.001  0.281329  0.000838  4.038228  0.001  0.294609  0.000639  4.052558  0.001  0.088777  0.272455  0.001947  4.028894  0.002
C  C52  1  0.18981145  0.97753182  0.35361116  1  -0.197434  -0.000957  3.749879  -0.001  -0.214709  -0.000569  3.998388  0.0  -0.22223  -0.000803  4.018437  0.0  -0.105115  -0.209425  -0.000616  3.984974  0.0
C  C53  1  0.81018114  0.02245837  0.64637483  1  -0.197266  -0.000866  3.750044  0.0  -0.214541  -0.000573  3.998544  0.0  -0.222061  -0.000801  4.018593  0.0  -0.10513  -0.209259  -0.000615  3.985124  0.0
C  C54  1  0.26066604  0.88792020  0.41682024  1  -0.028119  0.001596  3.736686  0.001  -0.049787  0.0024  3.980386  0.002  -0.045827  0.001902  3.99879  0.002  -0.077463  -0.05229  0.002571  3.967781  0.002
C  C55  1  0.73933659  0.11208333  0.58317735  1  -0.028175  0.001524  3.736696  0.001  -0.049844  0.002405  3.980404  0.002  -0.045889  0.001896  3.998812  0.002  -0.077476  -0.052346  0.00257  3.967798  0.002
C  C56  1  0.37219671  0.84421560  0.37249768  1  -0.096958  0.001275  3.77642  0.002  -0.077004  0.001361  4.013206  0.001  -0.087258  0.000586  4.036024  0.001  -0.030264  -0.070563  0.001797  3.997896  0.002
C  C57  1  0.62780397  0.15578240  0.62750198  1  -0.096926  0.001283  3.776364  0.002  -0.076987  0.001358  4.013177  0.001  -0.08724  0.000588  4.035998  0.001  -0.030269  -0.070548  0.001797  3.997869  0.002
C  C58  1  0.41704294  0.89820758  0.26564631  1  -0.049662  0.000757  3.776365  0.001  -0.074539  0.001167  4.028705  0.001  -0.071097  0.000912  4.047403  0.001  -0.084882  -0.07599  0.002486  4.015693  0.002
C  C59  1  0.58295951  0.10178932  0.73435541  1  -0.04968  0.000766  3.776433  0.001  -0.074544  0.001169  4.028768  0.001  -0.07111  0.000911  4.047466  0.001  -0.084897  -0.075995  0.002486  4.015762  0.002
C  C60  1  0.34753335  0.98733983  0.20140008  1  -0.189713  -0.000732  3.762231  0.0  -0.212724  -0.000409  4.023044  0.0  -0.219455  -0.000636  4.042598  0.0  -0.105749  -0.208945  -0.000448  4.010354  0.0
C  C61  1  0.65246194  0.01264262  0.79858773  1  -0.189627  -0.00072  3.762295  0.0  -0.212608  -0.00041  4.023083  0.0  -0.219339  -0.000637  4.042626  0.0  -0.105732  -0.20883  -0.000448  4.010395  0.0
C  C62  1  0.43569035  0.73507217  0.43211640  1  0.670916  0.00885  3.889972  0.008  0.620904  0.01562  4.179736  0.014  0.657845  0.012164  4.173059  0.012  0.220385  0.595336  0.019211  4.182418  0.017
C  C63  1  0.56430998  0.26492807  0.56788970  1  0.670732  0.008873  3.890189  0.008  0.620712  0.015619  4.179965  0.014  0.657653  0.012162  4.17329  0.012  0.220295  0.595145  0.019209  4.182647  0.017
C  C64  1  0.46968864  0.64563706  0.90102612  1  -0.003991  0.00285  3.776021  0.004  -0.040804  0.005026  4.056941  0.005  -0.038543  0.004169  4.077409  0.005  -0.007035  -0.041909  0.005949  4.041629  0.006
C  C65  1  0.53031021  0.35436207  0.09898058  1  -0.003937  0.00294  3.775902  0.004  -0.040887  0.005025  4.056794  0.005  -0.038624  0.004173  4.077262  0.005  -0.007028  -0.041993  0.005949  4.041488  0.006
C  C66  1  0.40382658  0.61931238  0.00175899  1  -0.061055  -0.000443  3.693397  0.0  -0.105685  0.000644  3.959977  0.001  -0.104317  -0.000119  3.979802  0.0  -0.000509  -0.105148  0.001418  3.945103  0.001
C  C67  1  0.59616909  0.38069006  0.99824646  1  -0.061001  -0.000523  3.693256  0.0  -0.105576  0.000647  3.959848  0.001  -0.104208  -0.000124  3.979674  0.0  -0.000455  -0.105042  0.001418  3.944983  0.001
C  C68  1  0.26300488  0.44793906  0.83821974  1  0.37377  0.007975  3.691884  0.008  0.352982  0.010978  3.955557  0.01  0.369065  0.009634  3.971417  0.009  0.224237  0.341598  0.01239  3.944601  0.011
C  C69  1  0.73698902  0.55206447  0.16178365  1  0.37351  0.007974  3.692123  0.008  0.352692  0.010976  3.955818  0.01  0.368774  0.00964  3.971682  0.009  0.224151  0.341311  0.012391  3.944852  0.011
C  C70  1  0.14042288  0.31535397  0.76151393  1  -0.401832  -9.3e-05  3.721168  0.0  -0.480104  0.001368  3.957943  0.001  -0.484358  0.001048  3.963367  0.0  -0.233651  -0.476718  0.001648  3.953943  0.001
C  C71  1  0.85957213  0.68464956  0.23848691  1  -0.40157  -0.0  3.721123  0.0  -0.479801  0.001365  3.957912  0.001  -0.484054  0.001053  3.963337  0.0  -0.233563  -0.476422  0.001647  3.953911  0.001
C  C72  1  0.17110815  0.42335741  0.03974693  1  -0.000481  0.000519  3.617169  0.0  -0.062412  0.000647  3.878578  0.0  -0.05822  0.000457  3.889179  0.0  -0.055373  -0.064818  0.000768  3.870499  0.001
C  C73  1  0.82888723  0.57664724  0.96025769  1  -0.000364  0.00051  3.616989  0.0  -0.062231  0.000649  3.878352  0.0  -0.05804  0.000455  3.88896  0.0  -0.055358  -0.064633  0.000768  3.870261  0.001
C  C74  1  0.05816108  0.50229515  0.05985382  1  -0.125027  5.3e-05  3.679192  0.0  -0.166581  0.000185  3.941635  0.0  -0.167646  0.000124  3.955382  0.0  -0.164436  -0.165478  0.000266  3.931479  0.0
C  C75  1  0.94183617  0.49771171  0.94014852  1  -0.125042  0.000112  3.678839  0.0  -0.166742  0.000183  3.941394  0.0  -0.167808  0.000128  3.955144  0.0  -0.164437  -0.165641  0.000266  3.931238  0.0
N  N76  1  0.38143325  0.53873596  0.79961831  1  -0.454481  0.029851  3.192436  0.01  -0.389262  0.033174  3.494566  0.006  -0.413954  0.0287  3.505781  0.003  -0.357829  -0.371449  0.037417  3.486448  0.009
N  N77  1  0.61856391  0.46126759  0.20038655  1  -0.45454  0.029824  3.192527  0.01  -0.389253  0.033177  3.49465  0.006  -0.413945  0.028695  3.505864  0.003  -0.357875  -0.371444  0.037418  3.486529  0.009
N  N78  1  0.27370326  0.49457217  0.96090530  1  -0.121121  0.001502  3.539222  0.002  -0.027774  0.002961  3.751499  0.003  -0.043657  0.00221  3.778034  0.002  -0.242949  -0.017317  0.003699  3.732822  0.004
N  N79  1  0.72629420  0.50542916  0.03909947  1  -0.120913  0.001505  3.539077  0.002  -0.027616  0.002961  3.751378  0.003  -0.043501  0.00221  3.777917  0.002  -0.242948  -0.017163  0.003699  3.732699  0.004
O  O80  1  0.22068176  0.38635484  0.49313274  1  -0.637582  0.03293  2.0547  0.022  -0.571421  0.041117  2.314468  0.027  -0.604158  0.035761  2.301121  0.022  -0.30295  -0.547417  0.046622  2.322856  0.032
O  O81  1  0.77931784  0.61364315  0.50686400  1  -0.637579  0.03292  2.054622  0.022  -0.571466  0.041123  2.314383  0.027  -0.604204  0.03576  2.301044  0.022  -0.302999  -0.547466  0.046626  2.322777  0.032
O  O82  1  0.32678545  0.36856453  0.32683032  1  -0.645937  0.036454  2.08111  0.023  -0.58  0.047351  2.356037  0.031  -0.611797  0.041451  2.340735  0.025  -0.30235  -0.556411  0.052776  2.365974  0.036
O  O83  1  0.67321717  0.63143900  0.67316818  1  -0.645885  0.036463  2.081206  0.023  -0.579965  0.04735  2.356082  0.031  -0.611755  0.041452  2.340781  0.025  -0.302325  -0.556379  0.052778  2.366027  0.036
O  O84  1  0.15983377  0.10360635  0.16910713  1  -0.314415  -5.6e-05  2.384789  0.0  -0.244222  0.000319  2.618321  0.001  -0.262735  9.9e-05  2.620493  0.0  -0.15515  -0.231639  0.000705  2.61703  0.001
O  O85  1  0.84016794  0.89638831  0.83088614  1  -0.314334  -7.5e-05  2.3847  0.0  -0.244217  0.000317  2.6182  0.001  -0.262741  9.8e-05  2.620375  0.0  -0.155171  -0.231632  0.000705  2.616914  0.001
O  O86  1  0.40109125  0.69777404  0.53466648  1  -0.646888  0.036021  2.043612  0.024  -0.582097  0.044731  2.314032  0.03  -0.615109  0.038586  2.300334  0.024  -0.310913  -0.556898  0.050636  2.322103  0.035
O  O87  1  0.59891723  0.30223397  0.46534148  1  -0.646871  0.036005  2.043583  0.024  -0.582063  0.044733  2.313987  0.03  -0.615078  0.038588  2.300292  0.024  -0.310876  -0.556862  0.050637  2.322052  0.035
O  O88  1  0.51652136  0.68254362  0.37349805  1  -0.663576  0.035379  2.041549  0.024  -0.600905  0.045509  2.311344  0.031  -0.633316  0.039105  2.296455  0.025  -0.318504  -0.575883  0.051923  2.319909  0.038
O  O89  1  0.48348844  0.31745886  0.62650980  1  -0.663402  0.035374  2.04177  0.024  -0.600721  0.045499  2.311566  0.031  -0.633121  0.039098  2.296654  0.025  -0.318411  -0.575701  0.051913  2.320132  0.037
