# generated using pymatgen
data_Ni3Mo8H24C18(N7O16)2
_symmetry_space_group_name_H-M   'P 1'
_cell_length_a   10.92440878
_cell_length_b   12.12741648
_cell_length_c   12.26159906
_cell_angle_alpha   108.34083207
_cell_angle_beta   112.79079064
_cell_angle_gamma   101.79610563
_symmetry_Int_Tables_number   1
_chemical_formula_structural   Ni3Mo8H24C18(N7O16)2
_chemical_formula_sum   'Ni3 Mo8 H24 C18 N14 O32'
_cell_volume   1319.03227786
_cell_formula_units_Z   1
loop_
 _symmetry_equiv_pos_site_id
 _symmetry_equiv_pos_as_xyz
  1  'x, y, z'
loop_
 _atom_site_type_symbol
 _atom_site_label
 _atom_site_symmetry_multiplicity
 _atom_site_fract_x
 _atom_site_fract_y
 _atom_site_fract_z
 _atom_site_occupancy
 _atom_site_pbe_bader_charge
 _atom_site_pbe_bader_spin_density
 _atom_site_pbe_cm5_charge
 _atom_site_pbe_ddec_charge
 _atom_site_pbe_ddec_spin_density
 _atom_site_pbe_ddec_sum_bond_order
 _atom_site_pbe_magmom
Ni  Ni0  1  0.22990834  0.95554152  0.37080773  1  1.215061  -1.547153  0.663428  0.902989  -1.766879  2.486054  -1.535
Ni  Ni1  1  0.76987695  0.04443911  0.62913365  1  1.215405  1.541185  0.663405  0.902623  1.800745  2.488408  1.529
Ni  Ni2  1  0.49987987  0.50004652  0.50020859  1  1.157348  -1.58108  0.659809  0.706628  -1.79287  2.477114  -1.569
Mo  Mo3  1  0.59012135  0.92390076  0.92645584  1  2.621166  -9e-06  1.522486  2.200517  2.4e-05  4.594227  0.0
Mo  Mo4  1  0.40992121  0.07619969  0.07358133  1  2.62117  -0.000293  1.522668  2.201031  -0.000273  4.593762  0.0
Mo  Mo5  1  0.49084607  0.04113016  0.70106527  1  2.604632  -0.000239  1.560422  2.086491  0.000246  4.624863  0.0
Mo  Mo6  1  0.50904216  0.95886494  0.29883135  1  2.603189  -0.002634  1.560879  2.086735  -0.001973  4.624842  -0.003
Mo  Mo7  1  0.70436888  0.25592279  0.00221077  1  2.597778  0.000803  1.498405  2.127233  0.000624  4.624574  0.001
Mo  Mo8  1  0.29572757  0.74409412  0.99774834  1  2.5983  -0.001021  1.49851  2.12734  -0.000774  4.623627  -0.001
Mo  Mo9  1  0.23302462  0.82650174  0.75739933  1  2.627809  0.0022  1.526052  2.162308  0.001715  4.646409  0.002
Mo  Mo10  1  0.76695785  0.17355668  0.24257831  1  2.627925  -0.002429  1.525951  2.162263  -0.001847  4.646691  -0.003
H  H11  1  0.34784817  0.71968566  0.57914904  1  0.210087  0.000171  0.136508  0.112414  0.00017  1.048612  0.0
H  H12  1  0.65246557  0.28027713  0.42125674  1  0.211233  -0.000718  0.13642  0.112361  -0.000238  1.04832  -0.001
H  H13  1  0.99740546  0.98143309  0.67930074  1  0.648015  0.000419  0.322707  0.424292  0.000521  0.855392  0.001
H  H14  1  0.00226643  0.01844538  0.32057236  1  0.64923  -0.000399  0.322817  0.42506  -0.000498  0.855564  -0.001
H  H15  1  0.87976017  0.89638401  0.53363139  1  0.639377  9.2e-05  0.2941  0.361138  0.000366  0.992396  0.0
H  H16  1  0.11998052  0.10352602  0.46617390  1  0.641609  -0.000191  0.294277  0.361516  -0.000471  0.991921  0.0
H  H17  1  0.91166722  0.17920702  0.87650223  1  0.647857  -3.4e-05  0.313325  0.406536  0.00046  0.886095  0.0
H  H18  1  0.08839401  0.82061682  0.12340976  1  0.645252  1.1e-05  0.313073  0.406316  -0.000463  0.886977  0.0
H  H19  1  0.80972229  0.05616250  0.85200711  1  0.646727  -0.000112  0.293937  0.406207  0.000436  0.921552  0.0
H  H20  1  0.19012269  0.94379582  0.14794996  1  0.647083  0.000112  0.293897  0.406228  -0.000416  0.921425  0.0
H  H21  1  0.37022405  0.47094196  0.25259537  1  0.609317  -0.000557  0.334091  0.410032  -0.00062  0.856597  0.0
H  H22  1  0.62990996  0.52917475  0.74781853  1  0.603788  -0.000562  0.334041  0.410346  -0.00061  0.856703  0.0
H  H23  1  0.36707039  0.33720031  0.23918504  1  0.652401  -0.000267  0.295803  0.418442  -0.00054  0.898842  0.0
H  H24  1  0.63295381  0.66291962  0.76119577  1  0.65576  -0.000284  0.29574  0.418478  -0.000561  0.898772  0.0
H  H25  1  0.76434297  0.45075620  0.38197418  1  0.584774  -1.8e-05  0.318476  0.307341  1.7e-05  0.98684  0.0
H  H26  1  0.23569989  0.54926810  0.61804439  1  0.584941  -1.7e-05  0.318562  0.307382  4.1e-05  0.986811  0.0
H  H27  1  0.92865373  0.45539991  0.31145393  1  0.153585  -9.6e-05  0.11042  0.110235  -2.8e-05  1.044492  0.0
H  H28  1  0.07139057  0.54456892  0.68855182  1  0.154094  4.5e-05  0.110365  0.110078  1.4e-05  1.044503  0.0
H  H29  1  0.99069507  0.84506035  0.40639388  1  0.185544  -0.001832  0.12879  0.113902  -0.000642  1.017745  -0.002
H  H30  1  0.00927663  0.15486717  0.59352374  1  0.184925  0.001757  0.128914  0.113937  0.000609  1.018006  0.002
H  H31  1  0.11482637  0.48318961  0.24228269  1  0.102874  -0.001325  0.114534  0.129003  -0.000615  0.986664  -0.001
H  H32  1  0.88532907  0.51680448  0.75784586  1  0.103104  0.001049  0.114624  0.129144  0.000459  0.986288  0.001
H  H33  1  0.23196920  0.69466675  0.26040629  1  0.142569  -0.002049  0.119228  0.107408  -0.000785  1.00826  -0.001
H  H34  1  0.76816651  0.30532074  0.73969713  1  0.143071  0.00199  0.119277  0.10757  0.000782  1.008015  0.001
C  C35  1  0.44176426  0.74834155  0.56836280  1  1.011305  0.000318  0.157692  0.189915  -0.000161  3.942013  0.0
C  C36  1  0.55845364  0.25171195  0.43192591  1  1.010053  9.9e-05  0.157538  0.189925  -0.000749  3.941793  -0.001
C  C37  1  0.61552940  0.74968553  0.52839664  1  0.998177  -0.001313  0.230513  0.244395  -0.000385  4.013794  0.0
C  C38  1  0.38449003  0.25030282  0.47150843  1  0.99606  0.003068  0.229851  0.243877  0.00131  4.012729  0.001
C  C39  1  0.69884609  0.69170987  0.48055678  1  1.049122  0.00332  0.234208  0.236304  0.002223  4.076205  0.002
C  C40  1  0.30110250  0.30826146  0.51925826  1  1.050001  0.002504  0.234172  0.236623  0.001953  4.075611  0.001
C  C41  1  0.83511277  0.64236303  0.40509848  1  0.981459  -0.000902  0.254328  0.314868  -0.000864  3.956647  -0.001
C  C42  1  0.16487449  0.35761542  0.59479736  1  0.980019  -4.7e-05  0.254532  0.31533  -0.000376  3.956833  -0.001
C  C43  1  0.94286367  0.64803793  0.36294744  1  0.039279  -0.00647  0.005735  -0.024599  -0.003757  3.996339  -0.005
C  C44  1  0.05715241  0.35190700  0.63699488  1  0.040641  0.004233  0.005685  -0.024849  0.002522  3.996484  0.003
C  C45  1  0.98036415  0.54582939  0.31783220  1  -0.037914  0.0059  -0.052894  -0.034065  0.003431  3.896207  0.004
C  C46  1  0.01968890  0.45412999  0.68217784  1  -0.037543  -0.004707  -0.053115  -0.03452  -0.002678  3.896923  -0.003
C  C47  1  0.01419758  0.76232760  0.37046121  1  0.49713  0.003777  0.066144  0.088139  0.001804  3.84713  0.003
C  C48  1  0.98582538  0.23761273  0.62949354  1  0.496399  -0.003384  0.066175  0.088165  -0.001492  3.847339  -0.003
C  C49  1  0.08468925  0.56130787  0.27964877  1  0.010092  -0.005877  -0.076355  -0.115852  -0.003449  3.95092  -0.005
C  C50  1  0.91541983  0.43867310  0.72042714  1  0.010641  0.005314  -0.076108  -0.115485  0.003217  3.950319  0.004
C  C51  1  0.15048240  0.67790340  0.28970913  1  0.446351  0.002839  0.051479  0.097291  0.00102  3.906752  0.002
C  C52  1  0.84963078  0.32207560  0.71036516  1  0.445405  -0.001651  0.051308  0.096937  -0.000226  3.90633  -0.001
N  N53  1  0.51782084  0.86701865  0.60473879  1  -0.786145  -0.000788  -0.279096  -0.24724  -0.000611  3.536612  -0.002
N  N54  1  0.48204431  0.13295779  0.39513691  1  -0.785064  -0.005303  -0.279086  -0.247586  -0.002719  3.538111  -0.003
N  N55  1  0.63050072  0.86919314  0.58075283  1  -0.713187  0.052519  -0.224685  -0.200006  0.033313  3.409119  0.048
N  N56  1  0.36923306  0.13074224  0.41879746  1  -0.712834  -0.056134  -0.224836  -0.200306  -0.03459  3.409712  -0.051
N  N57  1  0.88380096  0.22288934  0.66457764  1  -1.231696  0.077538  -0.321893  -0.225825  0.0472  3.546447  0.069
N  N58  1  0.11626606  0.77707921  0.33543510  1  -1.230732  -0.078734  -0.322356  -0.226653  -0.046794  3.54725  -0.07
N  N59  1  0.49936065  0.67144423  0.52004234  1  -1.228312  -0.055532  -0.359649  -0.368785  -0.033298  3.543587  -0.048
N  N60  1  0.50099303  0.32863833  0.48033727  1  -1.231467  -0.059906  -0.359757  -0.369626  -0.035777  3.543063  -0.052
N  N61  1  0.67379375  0.57140950  0.45820978  1  -0.676236  -0.064121  -0.214512  -0.227656  -0.039563  3.314787  -0.057
N  N62  1  0.32619571  0.42860560  0.54169697  1  -0.676154  -0.061307  -0.214849  -0.227794  -0.038039  3.31721  -0.055
N  N63  1  0.79590187  0.73842666  0.44858084  1  -1.150021  -0.003256  -0.303502  -0.36599  -0.001936  3.245797  -0.003
N  N64  1  0.20402946  0.26154369  0.55121160  1  -1.150161  -0.002246  -0.303779  -0.366305  -0.001192  3.246404  -0.002
N  N65  1  0.76074858  0.54158024  0.40990690  1  -0.815826  -0.007718  -0.235652  -0.110082  -0.004141  3.53918  -0.006
N  N66  1  0.23928456  0.45844662  0.59008378  1  -0.814984  -0.005511  -0.235859  -0.110298  -0.002947  3.538998  -0.004
O  O67  1  0.66763898  0.04243273  0.87689036  1  -1.110231  -0.00136  -0.588349  -0.973739  -0.000955  2.095566  -0.001
O  O68  1  0.33238884  0.95762735  0.12312391  1  -1.110675  0.000868  -0.588321  -0.973719  0.000698  2.094976  0.001
O  O69  1  0.42653021  0.87045037  0.94800042  1  -1.141758  0.001143  -0.614514  -1.043154  0.000702  2.208649  0.001
O  O70  1  0.57347468  0.12960905  0.05194289  1  -1.142139  -0.001179  -0.614657  -1.043404  -0.0007  2.208275  -0.001
O  O71  1  0.60269289  0.78734966  0.84023916  1  -0.883554  -0.000851  -0.520843  -0.699871  -0.000412  1.689727  -0.001
O  O72  1  0.39734635  0.21273880  0.15980631  1  -0.882922  -0.000611  -0.520917  -0.69986  -0.000229  1.688528  0.0
O  O73  1  0.40515872  0.92392050  0.76492116  1  -1.108361  0.005683  -0.614184  -0.980068  0.0032  2.241979  0.005
O  O74  1  0.59480833  0.07610673  0.23495698  1  -1.107326  -0.005713  -0.614325  -0.98025  -0.003103  2.242109  -0.005
O  O75  1  0.72527277  0.98169239  0.08905952  1  -0.901963  -5.8e-05  -0.54254  -0.733625  -1.7e-05  1.809759  0.0
O  O76  1  0.27476488  0.01835167  0.91095907  1  -0.901706  -0.000121  -0.54258  -0.733762  -7.1e-05  1.809769  0.0
O  O77  1  0.32721277  0.00488155  0.56766392  1  -0.859307  -0.04328  -0.510845  -0.690792  -0.02689  1.987555  -0.04
O  O78  1  0.67272358  0.99534501  0.43229334  1  -0.858492  0.042984  -0.511108  -0.690856  0.02748  1.987058  0.039
O  O79  1  0.61811872  0.09858413  0.65787948  1  -0.877763  0.034028  -0.517757  -0.747063  0.022117  2.082792  0.031
O  O80  1  0.38184667  0.90129038  0.34199400  1  -0.878058  -0.034631  -0.517721  -0.747046  -0.021762  2.081751  -0.031
O  O81  1  0.52204474  0.18630804  0.83631138  1  -0.972327  0.000165  -0.575747  -0.787314  0.000114  1.900808  0.0
O  O82  1  0.47805091  0.81374974  0.16362461  1  -0.971261  -0.000771  -0.575781  -0.787229  -0.0004  1.900904  0.0
O  O83  1  0.82254213  0.30322350  0.94996896  1  -0.837372  -0.000257  -0.518509  -0.682928  -0.000261  1.649648  0.0
O  O84  1  0.17757407  0.69674350  0.04999431  1  -0.838651  3.2e-05  -0.518705  -0.683167  0.000143  1.649474  0.0
O  O85  1  0.68738133  0.38842877  0.08695720  1  -0.790829  -0.0001  -0.515169  -0.642196  -5.4e-05  1.588785  0.0
O  O86  1  0.31269755  0.61159970  0.91294137  1  -0.790608  0.000106  -0.514992  -0.64206  6.9e-05  1.588618  0.0
O  O87  1  0.83889598  0.23194838  0.14471330  1  -0.985802  0.000116  -0.584344  -0.825539  0.000126  1.93087  0.0
O  O88  1  0.16114735  0.76809711  0.85528159  1  -0.985748  -0.000209  -0.584336  -0.8255  -0.00017  1.930737  0.0
O  O89  1  0.21849518  0.68093276  0.65282812  1  -0.944114  -0.000232  -0.537535  -0.761627  -0.000115  1.850423  0.0
O  O90  1  0.78150280  0.31912940  0.34716581  1  -0.944478  0.000252  -0.537477  -0.761579  0.000151  1.85052  0.0
O  O91  1  0.09823438  0.85722679  0.65752069  1  -0.823187  0.003124  -0.508037  -0.660289  0.001907  1.739996  0.002
O  O92  1  0.90172541  0.14282773  0.34248380  1  -0.823424  -0.003069  -0.507969  -0.660313  -0.001821  1.740763  -0.002
O  O93  1  0.92302860  0.98467627  0.60455050  1  -1.217441  0.068433  -0.555987  -0.718393  0.040695  2.214986  0.061
O  O94  1  0.07662819  0.01520635  0.39533329  1  -1.220325  -0.069219  -0.556382  -0.719769  -0.040125  2.214968  -0.062
O  O95  1  0.88377794  0.08849672  0.82883319  1  -1.215808  0.079743  -0.559212  -0.715823  0.046905  2.051642  0.069
O  O96  1  0.11605656  0.91130407  0.17103806  1  -1.213377  -0.079898  -0.559024  -0.715834  -0.045868  2.052386  -0.07
O  O97  1  0.35164759  0.41193023  0.28811350  1  -1.192321  -0.069017  -0.54971  -0.726271  -0.039807  2.046226  -0.06
O  O98  1  0.64831407  0.58815339  0.71221190  1  -1.189527  -0.069137  -0.54974  -0.726736  -0.039921  2.045966  -0.06
