# generated using pymatgen
data_InPH9C2N2O4F
_symmetry_space_group_name_H-M   'P 1'
_cell_length_a   7.83490702
_cell_length_b   9.20894177
_cell_length_c   10.00826028
_cell_angle_alpha   100.94173614
_cell_angle_beta   89.99998342
_cell_angle_gamma   89.99968280
_symmetry_Int_Tables_number   1
_chemical_formula_structural   InPH9C2N2O4F
_chemical_formula_sum   'In4 P4 H36 C8 N8 O16 F4'
_cell_volume   708.98060228
_cell_formula_units_Z   4
loop_
 _symmetry_equiv_pos_site_id
 _symmetry_equiv_pos_as_xyz
  1  'x, y, z'
loop_
 _atom_site_type_symbol
 _atom_site_label
 _atom_site_symmetry_multiplicity
 _atom_site_fract_x
 _atom_site_fract_y
 _atom_site_fract_z
 _atom_site_occupancy
 _atom_site_pbe_bader_spin_density
 _atom_site_pbe_cm5_charge
 _atom_site_pbe_ddec_charge
 _atom_site_pbe_ddec_spin_density
 _atom_site_pbe_ddec_sum_bond_order
 _atom_site_pbe_magmom
In  In0  1  0.38593265  0.48889833  0.73816256  1  0  0.772282  1.571715  0  2.778197  0
In  In1  1  0.88593213  0.51109638  0.76183585  1  0  0.772327  1.571769  0  2.778082  0
In  In2  1  0.61406556  0.51110033  0.26183330  1  0  0.772315  1.571767  0  2.778057  0
In  In3  1  0.11407119  0.48890445  0.23816739  1  0  0.772338  1.571767  0  2.778003  0
P  P4  1  0.36736520  0.28385316  0.42167710  1  0  0.394463  1.511455  0  5.611149  0
P  P5  1  0.86736467  0.71614374  0.07832212  1  0  0.394437  1.511338  0  5.611378  0
P  P6  1  0.63263302  0.71614327  0.57832136  1  0  0.394444  1.511404  0  5.61128  0
P  P7  1  0.13263482  0.28386041  0.92168172  1  0  0.39438  1.511227  0  5.611469  0
H  H8  1  0.36380451  0.60447420  0.00599881  1  0  0.300231  0.293333  0  0.962403  0
H  H9  1  0.86380594  0.39552493  0.49400180  1  0  0.300151  0.293235  0  0.962437  0
H  H10  1  0.63619498  0.39552445  0.99399904  1  0  0.300221  0.293328  0  0.962385  0
H  H11  1  0.13619483  0.60447590  0.50600143  1  0  0.300222  0.293326  0  0.962385  0
H  H12  1  0.53266506  0.68072385  0.95585718  1  0  0.301939  0.290529  0  0.961559  0
H  H13  1  0.03266677  0.31927370  0.54414181  1  0  0.301989  0.290609  0  0.961475  0
H  H14  1  0.46733442  0.31927590  0.04414286  1  0  0.301983  0.290574  0  0.961449  0
H  H15  1  0.96733527  0.68072714  0.45585943  1  0  0.301973  0.290576  0  0.961448  0
H  H16  1  0.17352203  0.77211884  0.92812274  1  0  0.114796  0.094339  0  1.007252  0
H  H17  1  0.67352342  0.22788024  0.57187550  1  0  0.114811  0.094359  0  1.007269  0
H  H18  1  0.82647618  0.22787871  0.07187492  1  0  0.114817  0.094356  0  1.007276  0
H  H19  1  0.32647734  0.77211950  0.42812554  1  0  0.114806  0.094355  0  1.007255  0
H  H20  1  0.35143324  0.86140769  0.87004698  1  0  0.105938  0.077865  0  1.000269  0
H  H21  1  0.85143392  0.13858941  0.62994987  1  0  0.105921  0.077861  0  1.000337  0
H  H22  1  0.64856497  0.13859097  0.12994987  1  0  0.105936  0.077878  0  1.000317  0
H  H23  1  0.14856557  0.86140923  0.37004998  1  0  0.105931  0.077877  0  1.000326  0
H  H24  1  0.45612355  0.94514154  0.10254343  1  0  0.107757  0.076111  0  0.989685  0
H  H25  1  0.95612597  0.05485826  0.39745330  1  0  0.107771  0.076117  0  0.989701  0
H  H26  1  0.54387466  0.05485822  0.89745363  1  0  0.107767  0.076094  0  0.989734  0
H  H27  1  0.04387480  0.94514481  0.60254535  1  0  0.107753  0.076078  0  0.98973  0
H  H28  1  0.32778678  0.81393573  0.16386965  1  0  0.11747  0.102003  0  0.995787  0
H  H29  1  0.82778580  0.18606359  0.33612901  1  0  0.117468  0.102006  0  0.995784  0
H  H30  1  0.67221399  0.18606292  0.83612820  1  0  0.117461  0.102002  0  0.99577  0
H  H31  1  0.17221369  0.81393947  0.66387263  1  0  0.117475  0.102013  0  0.99576  0
H  H32  1  0.18759099  0.07732616  0.06694734  1  0  0.311264  0.30968  0  0.935066  0
H  H33  1  0.68759281  0.92267605  0.43305387  1  0  0.311268  0.309703  0  0.935031  0
H  H34  1  0.81240850  0.92267468  0.93305390  1  0  0.311267  0.309684  0  0.935044  0
H  H35  1  0.31240795  0.07732591  0.56694658  1  0  0.311258  0.309678  0  0.93507  0
H  H36  1  0.23650416  0.06255557  0.22910018  1  0  0.302186  0.308493  0  0.958982  0
H  H37  1  0.73650467  0.93744308  0.27089938  1  0  0.302164  0.308475  0  0.959022  0
H  H38  1  0.76349788  0.93744196  0.77089947  1  0  0.302181  0.308498  0  0.958975  0
H  H39  1  0.26349610  0.06255998  0.72910126  1  0  0.30217  0.308472  0  0.959005  0
H  H40  1  0.07498306  0.95523219  0.13715893  1  0  0.300635  0.307679  0  0.953383  0
H  H41  1  0.57498428  0.04476727  0.36283981  1  0  0.300649  0.307697  0  0.953357  0
H  H42  1  0.92501642  0.04476757  0.86284012  1  0  0.300623  0.307688  0  0.953376  0
H  H43  1  0.42501521  0.95523357  0.63716143  1  0  0.300619  0.307666  0  0.953427  0
C  C44  1  0.30844759  0.79997113  0.94763991  1  0  -0.065832  -0.003737  0  3.880968  0
C  C45  1  0.80844918  0.20002728  0.55235917  1  0  -0.06581  -0.003757  0  3.881011  0
C  C46  1  0.69155062  0.20002752  0.05235794  1  0  -0.065827  -0.003734  0  3.880999  0
C  C47  1  0.19155159  0.79997246  0.44764187  1  0  -0.065807  -0.003737  0  3.880931  0
C  C48  1  0.33163215  0.88923947  0.09120109  1  0  -0.059788  -0.00833  0  3.798468  0
C  C49  1  0.83163164  0.11075872  0.40879837  1  0  -0.059795  -0.008332  0  3.798467  0
C  C50  1  0.66836734  0.11075807  0.90879756  1  0  -0.059796  -0.008351  0  3.798418  0
C  C51  1  0.16836657  0.88924212  0.59120387  1  0  -0.059821  -0.008335  0  3.798331  0
N  N52  1  0.40579190  0.66072042  0.93272113  1  0  -0.600338  -0.589243  0  3.326571  0
N  N53  1  0.90579384  0.33927750  0.56727885  1  0  -0.600333  -0.589228  0  3.326467  0
N  N54  1  0.59420759  0.33927933  0.06727792  1  0  -0.600383  -0.589298  0  3.326493  0
N  N55  1  0.09420820  0.66072112  0.43272299  1  0  -0.600381  -0.589302  0  3.326489  0
N  N56  1  0.19768706  0.00317426  0.13269818  1  0  -0.611343  -0.439264  0  3.376648  0
N  N57  1  0.69768843  0.99682569  0.36730063  1  0  -0.611342  -0.439292  0  3.376638  0
N  N58  1  0.80231243  0.99682438  0.86730067  1  0  -0.611329  -0.439255  0  3.376545  0
N  N59  1  0.30231234  0.00317626  0.63270082  1  0  -0.611285  -0.439213  0  3.376596  0
O  O60  1  0.36123868  0.30236006  0.58059070  1  0  -0.37468  -0.83439  0  2.257012  0
O  O61  1  0.86122794  0.69763699  0.91940813  1  0  -0.374751  -0.834428  0  2.25706  0
O  O62  1  0.63877102  0.69763638  0.41940775  1  0  -0.374765  -0.834457  0  2.257094  0
O  O63  1  0.13878686  0.30236162  0.08059571  1  0  -0.374722  -0.834409  0  2.257055  0
O  O64  1  0.29645913  0.35422235  0.87595135  1  0  -0.376034  -0.850846  0  2.310073  0
O  O65  1  0.79645905  0.64577504  0.62404356  1  0  -0.375999  -0.850886  0  2.310054  0
O  O66  1  0.70353908  0.64577632  0.12404351  1  0  -0.375986  -0.850838  0  2.310089  0
O  O67  1  0.20353661  0.35422247  0.37596008  1  0  -0.375996  -0.850841  0  2.309962  0
O  O68  1  0.46718393  0.64534265  0.62112799  1  0  -0.370803  -0.843577  0  2.299517  0
O  O69  1  0.96718438  0.35467039  0.87888369  1  0  -0.370793  -0.843526  0  2.299491  0
O  O70  1  0.53281046  0.35465272  0.37886427  1  0  -0.370814  -0.843578  0  2.299418  0
O  O71  1  0.03281383  0.64534254  0.12113072  1  0  -0.370802  -0.843539  0  2.299476  0
O  O72  1  0.36904925  0.11477395  0.36685626  1  0  -0.395701  -0.808621  0  2.102704  0
O  O73  1  0.86904887  0.88522517  0.13314236  1  0  -0.395657  -0.808554  0  2.102749  0
O  O74  1  0.63094769  0.88522359  0.63314239  1  0  -0.395655  -0.808562  0  2.102702  0
O  O75  1  0.13094551  0.11477901  0.86685749  1  0  -0.395605  -0.808493  0  2.10274  0
F  F76  1  0.63661866  0.42497438  0.79456208  1  0  -0.274466  -0.565172  0  1.112808  0
F  F77  1  0.13661736  0.57502157  0.70543460  1  0  -0.274481  -0.565188  0  1.112791  0
F  F78  1  0.36337827  0.57502317  0.20543557  1  0  -0.274472  -0.565187  0  1.11283  0
F  F79  1  0.86337958  0.42497487  0.29456285  1  0  -0.274464  -0.56518  0  1.112764  0
