# generated using pymatgen
data_Ag3H2C2(N3O)3
_symmetry_space_group_name_H-M   'P 1'
_cell_length_a   6.78938014
_cell_length_b   6.78933339
_cell_length_c   10.95088629
_cell_angle_alpha   83.02175777
_cell_angle_beta   83.02139480
_cell_angle_gamma   71.13823661
_symmetry_Int_Tables_number   1
_chemical_formula_structural   Ag3H2C2(N3O)3
_chemical_formula_sum   'Ag6 H4 C4 N18 O6'
_cell_volume   472.32027499
_cell_formula_units_Z   2
loop_
 _symmetry_equiv_pos_site_id
 _symmetry_equiv_pos_as_xyz
  1  'x, y, z'
loop_
 _atom_site_type_symbol
 _atom_site_label
 _atom_site_symmetry_multiplicity
 _atom_site_fract_x
 _atom_site_fract_y
 _atom_site_fract_z
 _atom_site_occupancy
 _atom_site_hle17_bader_spin_density
 _atom_site_hle17_ddec_charge
 _atom_site_hle17_ddec_spin_density
 _atom_site_hle17_ddec_sum_bond_order
 _atom_site_hle17_magmom
 _atom_site_hse06_10hf_bader_spin_density
 _atom_site_hse06_10hf_ddec_charge
 _atom_site_hse06_10hf_ddec_spin_density
 _atom_site_hse06_10hf_ddec_sum_bond_order
 _atom_site_hse06_10hf_magmom
 _atom_site_hse06_bader_spin_density
 _atom_site_hse06_ddec_charge
 _atom_site_hse06_ddec_spin_density
 _atom_site_hse06_ddec_sum_bond_order
 _atom_site_hse06_magmom
 _atom_site_pbe_bader_spin_density
 _atom_site_pbe_cm5_charge
 _atom_site_pbe_ddec_charge
 _atom_site_pbe_ddec_spin_density
 _atom_site_pbe_ddec_sum_bond_order
 _atom_site_pbe_magmom
Ag  Ag0  1  0.12591565  0.87408588  0.24999933  1  0  0.471993  0  1.537572  0  0  0.317236  0  2.016134  0  0  0.347889  0  1.966262  0  0  0.471301  0.296052  0  2.051184  0
Ag  Ag1  1  0.87407933  0.12591713  0.75000062  1  0  0.471982  0  1.537575  0  0  0.317242  0  2.016131  0  0  0.347899  0  1.966254  0  0  0.471315  0.29606  0  2.051181  0
Ag  Ag2  1  0.46172928  0.00329824  0.68989174  1  0  0.49368  0  1.497029  0  0  0.342529  0  1.972216  0  0  0.366354  0  1.924693  0  0  0.484386  0.326429  0  2.004991  0
Ag  Ag3  1  0.99670450  0.53826876  0.81010775  1  0  0.493701  0  1.497017  0  0  0.342561  0  1.972192  0  0  0.366382  0  1.924674  0  0  0.484395  0.326456  0  2.004982  0
Ag  Ag4  1  0.53827558  0.99670154  0.31010864  1  0  0.493693  0  1.496997  0  0  0.342545  0  1.972171  0  0  0.366368  0  1.924655  0  0  0.484388  0.326444  0  2.004949  0
Ag  Ag5  1  0.00329690  0.46173261  0.18989460  1  0  0.493714  0  1.496985  0  0  0.34256  0  1.972163  0  0  0.366384  0  1.924645  0  0  0.484395  0.326449  0  2.004967  0
H  H6  1  0.39503435  0.75697388  0.96839165  1  0  0.122978  0  0.933543  0  0  0.131251  0  0.997979  0  0  0.133703  0  0.995087  0  0  0.141414  0.12937  0  1.000319  0
H  H7  1  0.24301337  0.60497384  0.53160821  1  0  0.123137  0  0.933805  0  0  0.131417  0  0.998181  0  0  0.13387  0  0.995288  0  0  0.141444  0.129535  0  1.000521  0
H  H8  1  0.60496996  0.24302278  0.03160991  1  0  0.123038  0  0.933566  0  0  0.131328  0  0.997974  0  0  0.133781  0  0.995081  0  0  0.14142  0.129447  0  1.000317  0
H  H9  1  0.75699042  0.39501974  0.46838904  1  0  0.123155  0  0.933775  0  0  0.131445  0  0.998145  0  0  0.133897  0  0.995252  0  0  0.141458  0.129562  0  1.000487  0
C  C10  1  0.31027549  0.92216903  0.97171458  1  0  0.185786  0  3.665951  0  0  0.129108  0  3.932611  0  0  0.138261  0  3.950585  0  0  0.148782  0.123012  0  3.920603  0
C  C11  1  0.07785671  0.68971175  0.52828547  1  0  0.185472  0  3.665628  0  0  0.128826  0  3.932214  0  0  0.137982  0  3.950182  0  0  0.148664  0.122731  0  3.920205  0
C  C12  1  0.68971908  0.07784021  0.02828494  1  0  0.185566  0  3.665867  0  0  0.128896  0  3.932475  0  0  0.138048  0  3.950447  0  0  0.148658  0.1228  0  3.920468  0
C  C13  1  0.92214268  0.31028654  0.47171359  1  0  0.185442  0  3.665557  0  0  0.128772  0  3.932146  0  0  0.137927  0  3.950115  0  0  0.148614  0.122677  0  3.920138  0
N  N14  1  0.19905402  0.01211720  0.07138585  1  0  -0.245392  0  3.288063  0  0  -0.169505  0  3.592177  0  0  -0.187956  0  3.608518  0  0  -0.258428  -0.15726  0  3.581283  0
N  N15  1  0.98787742  0.80095123  0.42861006  1  0  -0.245193  0  3.287692  0  0  -0.169347  0  3.59183  0  0  -0.187797  0  3.608172  0  0  -0.258384  -0.157103  0  3.580934  0
N  N16  1  0.80094685  0.98788107  0.92861310  1  0  -0.245256  0  3.287898  0  0  -0.169401  0  3.592029  0  0  -0.187851  0  3.60837  0  0  -0.258386  -0.157157  0  3.581138  0
N  N17  1  0.01212345  0.19904704  0.57139072  1  0  -0.245172  0  3.287646  0  0  -0.169336  0  3.591805  0  0  -0.187786  0  3.608145  0  0  -0.258372  -0.157093  0  3.58091  0
N  N18  1  0.12098466  0.21722937  0.03643861  1  0  -0.078569  0  3.113873  0  0  -0.040246  0  3.407791  0  0  -0.042685  0  3.420759  0  0  -0.111726  -0.038416  0  3.399216  0
N  N19  1  0.78276971  0.87901757  0.46356239  1  0  -0.078582  0  3.11396  0  0  -0.04025  0  3.407875  0  0  -0.042691  0  3.420848  0  0  -0.111704  -0.038423  0  3.399299  0
N  N20  1  0.87901723  0.78277045  0.96356107  1  0  -0.078581  0  3.113939  0  0  -0.040258  0  3.407866  0  0  -0.042698  0  3.420835  0  0  -0.111737  -0.038428  0  3.399292  0
N  N21  1  0.21723170  0.12098380  0.53643904  1  0  -0.07865  0  3.113901  0  0  -0.040319  0  3.407843  0  0  -0.04276  0  3.420813  0  0  -0.111759  -0.038492  0  3.399268  0
N  N22  1  0.18257156  0.25022956  0.91920439  1  0  -0.085988  0  3.193247  0  0  -0.036117  0  3.493922  0  0  -0.042316  0  3.507597  0  0  -0.126035  -0.031807  0  3.484594  0
N  N23  1  0.74976947  0.81743205  0.58079521  1  0  -0.085967  0  3.193209  0  0  -0.036096  0  3.493886  0  0  -0.042295  0  3.507561  0  0  -0.126046  -0.031788  0  3.484559  0
N  N24  1  0.81743134  0.74977180  0.08079602  1  0  -0.085976  0  3.193264  0  0  -0.036108  0  3.493938  0  0  -0.042308  0  3.507613  0  0  -0.126045  -0.031798  0  3.484611  0
N  N25  1  0.25023390  0.18256774  0.41920527  1  0  -0.08598  0  3.19318  0  0  -0.036127  0  3.493861  0  0  -0.042327  0  3.507536  0  0  -0.126085  -0.031819  0  3.484532  0
N  N26  1  0.30241369  0.06679919  0.87630448  1  0  -0.257459  0  3.247148  0  0  -0.187579  0  3.552958  0  0  -0.203471  0  3.56698  0  0  -0.249831  -0.176671  0  3.543201  0
N  N27  1  0.93319283  0.69758660  0.62369977  1  0  -0.257496  0  3.246812  0  0  -0.187618  0  3.552597  0  0  -0.203511  0  3.566616  0  0  -0.249811  -0.176712  0  3.54284  0
N  N28  1  0.69758913  0.93319750  0.12369627  1  0  -0.257399  0  3.247171  0  0  -0.187515  0  3.552944  0  0  -0.203406  0  3.566967  0  0  -0.249727  -0.176606  0  3.543184  0
N  N29  1  0.06681149  0.30241007  0.37630088  1  0  -0.257406  0  3.246829  0  0  -0.187492  0  3.552585  0  0  -0.203385  0  3.566607  0  0  -0.2497  -0.176586  0  3.542827  0
N  N30  1  0.48346221  0.51653826  0.74999937  1  0  0.691175  0  4.12317  0  0  0.732308  0  4.393683  0  0  0.747544  0  4.42004  0  0  0.081471  0.712636  0  4.388739  0
N  N31  1  0.51653920  0.48346312  0.25000024  1  0  0.691171  0  4.122953  0  0  0.732322  0  4.393455  0  0  0.747548  0  4.419815  0  0  0.081455  0.712651  0  4.38851  0
O  O32  1  0.32326426  0.67673630  0.74999971  1  0  -0.475937  0  1.887508  0  0  -0.463155  0  2.159968  0  0  -0.472585  0  2.151782  0  0  -0.199829  -0.453596  0  2.169775  0
O  O33  1  0.67673370  0.32326667  0.25000002  1  0  -0.475927  0  1.887529  0  0  -0.463157  0  2.15998  0  0  -0.472581  0  2.151796  0  0  -0.199822  -0.453598  0  2.169787  0
O  O34  1  0.52078756  0.39391656  0.66476178  1  0  -0.478709  0  1.796712  0  0  -0.462675  0  2.042237  0  0  -0.473354  0  2.035107  0  0  -0.205029  -0.452234  0  2.051022  0
O  O35  1  0.60608282  0.47921538  0.83523833  1  0  -0.478661  0  1.796684  0  0  -0.462678  0  2.04219  0  0  -0.473358  0  2.03506  0  0  -0.205044  -0.452239  0  2.050979  0
O  O36  1  0.47921039  0.60608641  0.33523887  1  0  -0.478708  0  1.796554  0  0  -0.462693  0  2.042081  0  0  -0.473367  0  2.034949  0  0  -0.205029  -0.452255  0  2.050874  0
O  O37  1  0.39391514  0.52078760  0.16476141  1  0  -0.478676  0  1.79659  0  0  -0.462672  0  2.042089  0  0  -0.47335  0  2.03496  0  0  -0.205029  -0.45223  0  2.050876  0
