# generated using pymatgen
data_CuH15C17SNO5
_symmetry_space_group_name_H-M   'P 1'
_cell_length_a   8.01384406
_cell_length_b   10.12141734
_cell_length_c   12.65045017
_cell_angle_alpha   85.82808728
_cell_angle_beta   78.70376888
_cell_angle_gamma   74.71401317
_symmetry_Int_Tables_number   1
_chemical_formula_structural   CuH15C17SNO5
_chemical_formula_sum   'Cu2 H30 C34 S2 N2 O10'
_cell_volume   970.37873354
_cell_formula_units_Z   2
loop_
 _symmetry_equiv_pos_site_id
 _symmetry_equiv_pos_as_xyz
  1  'x, y, z'
loop_
 _atom_site_type_symbol
 _atom_site_label
 _atom_site_symmetry_multiplicity
 _atom_site_fract_x
 _atom_site_fract_y
 _atom_site_fract_z
 _atom_site_occupancy
 _atom_site_hle17_bader_spin_density
 _atom_site_hle17_ddec_charge
 _atom_site_hle17_ddec_spin_density
 _atom_site_hle17_ddec_sum_bond_order
 _atom_site_hle17_magmom
 _atom_site_hse06_10hf_bader_spin_density
 _atom_site_hse06_10hf_ddec_charge
 _atom_site_hse06_10hf_ddec_spin_density
 _atom_site_hse06_10hf_ddec_sum_bond_order
 _atom_site_hse06_10hf_magmom
 _atom_site_hse06_bader_spin_density
 _atom_site_hse06_ddec_charge
 _atom_site_hse06_ddec_spin_density
 _atom_site_hse06_ddec_sum_bond_order
 _atom_site_hse06_magmom
 _atom_site_pbe_bader_spin_density
 _atom_site_pbe_cm5_charge
 _atom_site_pbe_ddec_charge
 _atom_site_pbe_ddec_spin_density
 _atom_site_pbe_ddec_sum_bond_order
 _atom_site_pbe_magmom
Cu  Cu0  1  0.86514336  0.60247669  0.53431137  1  0  0.88206  0  1.844759  0  0  0.837791  0  2.265903  0  0  0.881796  0  2.197647  0  0  0.666434  0.809946  0  2.312197  0
Cu  Cu1  1  0.13477591  0.39751921  0.46571663  1  0  0.88212  0  1.844574  0  0  0.838413  0  2.265563  0  0  0.882499  0  2.197239  0  0  0.666455  0.810423  0  2.312029  0
H  H2  1  0.05079563  0.76532161  0.76866925  1  0  0.100553  0  0.952475  0  0  0.11098  0  1.012051  0  0  0.114429  0  1.009502  0  0  0.104453  0.10856  0  1.013784  0
H  H3  1  0.94928552  0.23468264  0.23128699  1  0  0.100508  0  0.952363  0  0  0.110938  0  1.011952  0  0  0.114386  0  1.009405  0  0  0.104506  0.108509  0  1.013694  0
H  H4  1  0.18692019  0.82326060  0.91529779  1  0  0.067351  0  1.006268  0  0  0.07457  0  1.078755  0  0  0.07666  0  1.078791  0  0  0.086281  0.073046  0  1.078927  0
H  H5  1  0.81308661  0.17674821  0.08468273  1  0  0.067324  0  1.006265  0  0  0.074431  0  1.078884  0  0  0.07652  0  1.078926  0  0  0.086238  0.072908  0  1.079053  0
H  H6  1  0.46168509  0.66241284  0.95814161  1  0  0.083449  0  0.954431  0  0  0.09433  0  1.01432  0  0  0.096663  0  1.01341  0  0  0.098248  0.092624  0  1.015035  0
H  H7  1  0.53830040  0.33759889  0.04186993  1  0  0.083422  0  0.954563  0  0  0.094284  0  1.014454  0  0  0.096646  0  1.013516  0  0  0.098217  0.09258  0  1.01517  0
H  H8  1  0.59121837  0.44769711  0.86079277  1  0  0.092041  0  0.976702  0  0  0.102042  0  1.037658  0  0  0.104468  0  1.03779  0  0  0.098383  0.10031  0  1.037729  0
H  H9  1  0.40877840  0.55231831  0.13921791  1  0  0.092008  0  0.976588  0  0  0.10205  0  1.037524  0  0  0.104424  0  1.037717  0  0  0.098401  0.100331  0  1.037589  0
H  H10  1  0.48048065  0.13340055  0.87048354  1  0  0.090999  0  0.951683  0  0  0.100901  0  1.013279  0  0  0.104216  0  1.011485  0  0  0.101318  0.09854  0  1.014527  0
H  H11  1  0.51951232  0.86662412  0.12952000  1  0  0.090969  0  0.951366  0  0  0.100844  0  1.01303  0  0  0.104158  0  1.01124  0  0  0.101294  0.098481  0  1.014277  0
H  H12  1  0.71543464  0.99598475  0.96653612  1  0  0.086164  0  0.941612  0  0  0.10088  0  0.993683  0  0  0.103644  0  0.992463  0  0  0.103258  0.098888  0  0.994651  0
H  H13  1  0.28452257  0.00401509  0.03348840  1  0  0.086297  0  0.941884  0  0  0.100932  0  0.994016  0  0  0.103698  0  0.992791  0  0  0.10328  0.098942  0  0.99498  0
H  H14  1  0.01994979  0.02977361  0.91627494  1  0  0.07716  0  0.977563  0  0  0.089299  0  1.039519  0  0  0.091543  0  1.03836  0  0  0.098692  0.087584  0  1.040664  0
H  H15  1  0.98004199  0.97018113  0.08373027  1  0  0.077217  0  0.977644  0  0  0.089377  0  1.039521  0  0  0.091616  0  1.038368  0  0  0.098707  0.087663  0  1.040666  0
H  H16  1  0.08780332  0.19115774  0.76745429  1  0  0.099913  0  0.959068  0  0  0.108082  0  1.023477  0  0  0.111232  0  1.021991  0  0  0.106956  0.105812  0  1.024602  0
H  H17  1  0.91220413  0.80880519  0.23253266  1  0  0.099871  0  0.959146  0  0  0.108018  0  1.02358  0  0  0.111167  0  1.022095  0  0  0.106949  0.105751  0  1.024699  0
H  H18  1  0.45102901  0.71258155  0.53205652  1  0  0.035647  0  0.946004  0  0  0.039836  0  1.025511  0  0  0.041721  0  1.020951  0  0  0.114141  0.038205  0  1.028976  0
H  H19  1  0.54893176  0.28745623  0.46793380  1  0  0.035755  0  0.945884  0  0  0.039911  0  1.025459  0  0  0.041799  0  1.020895  0  0  0.114095  0.038283  0  1.02892  0
H  H20  1  0.16157536  0.01366209  0.51202762  1  0  0.10998  0  0.928855  0  0  0.131611  0  0.986984  0  0  0.13276  0  0.986437  0  0  0.106681  0.130616  0  0.98756  0
H  H21  1  0.83845427  0.98636962  0.48796847  1  0  0.109823  0  0.928863  0  0  0.131494  0  0.986944  0  0  0.132647  0  0.986397  0  0  0.106664  0.130524  0  0.987496  0
H  H22  1  0.08337867  0.94391866  0.63963658  1  0  0.095012  0  0.937915  0  0  0.116838  0  0.999843  0  0  0.116905  0  1.000712  0  0  0.101125  0.11669  0  0.999303  0
H  H23  1  0.91665139  0.05612457  0.36035486  1  0  0.094899  0  0.937888  0  0  0.116669  0  0.999905  0  0  0.116772  0  1.000736  0  0  0.10102  0.116525  0  0.999366  0
H  H24  1  0.18159433  0.83241193  0.52933331  1  0  0.105251  0  0.950198  0  0  0.122067  0  1.019695  0  0  0.122715  0  1.019927  0  0  0.105015  0.121499  0  1.019551  0
H  H25  1  0.81841059  0.16763408  0.47068253  1  0  0.105153  0  0.950069  0  0  0.121984  0  1.019561  0  0  0.122629  0  1.019802  0  0  0.105057  0.121414  0  1.019415  0
H  H26  1  0.33853563  0.00953344  0.73773753  1  0  0.077811  0  0.942803  0  0  0.100603  0  1.008843  0  0  0.099846  0  1.009797  0  0  0.094258  0.101072  0  1.008013  0
H  H27  1  0.66148885  0.99047928  0.26225473  1  0  0.077802  0  0.942866  0  0  0.100633  0  1.008871  0  0  0.09988  0  1.009822  0  0  0.094284  0.101104  0  1.008041  0
H  H28  1  0.32172406  0.11440455  0.61804671  1  0  0.105262  0  0.962208  0  0  0.120797  0  1.034609  0  0  0.121547  0  1.034604  0  0  0.103043  0.12005  0  1.034876  0
H  H29  1  0.67831409  0.88561203  0.38193569  1  0  0.105354  0  0.962259  0  0  0.120749  0  1.034842  0  0  0.121497  0  1.034848  0  0  0.103058  0.120022  0  1.035103  0
H  H30  1  0.53115125  0.00605642  0.63883653  1  0  0.107005  0  0.949148  0  0  0.125938  0  1.01187  0  0  0.127461  0  1.010917  0  0  0.105997  0.124806  0  1.012457  0
H  H31  1  0.46887953  0.99395344  0.36116063  1  0  0.107166  0  0.948968  0  0  0.12609  0  1.011662  0  0  0.127618  0  1.010705  0  0  0.106034  0.12496  0  1.012249  0
C  C32  1  0.15722075  0.55275676  0.64304006  1  0  0.627838  0  3.882921  0  0  0.584005  0  4.179243  0  0  0.620303  0  4.172131  0  0  0.206341  0.559562  0  4.1833  0
C  C33  1  0.84278360  0.44724562  0.35694824  1  0  0.628  0  3.88271  0  0  0.584062  0  4.179143  0  0  0.620356  0  4.172029  0  0  0.20629  0.559627  0  4.183218  0
C  C34  1  0.24420294  0.57622037  0.73149184  1  0  -0.109606  0  3.721013  0  0  -0.092667  0  3.954023  0  0  -0.103793  0  3.977509  0  0  -0.022336  -0.085443  0  3.9382  0
C  C35  1  0.75583628  0.42375557  0.26849427  1  0  -0.110164  0  3.721415  0  0  -0.09314  0  3.954478  0  0  -0.10426  0  3.97795  0  0  -0.022563  -0.085943  0  3.938708  0
C  C36  1  0.17027480  0.69740351  0.78966182  1  0  -0.053752  0  3.749852  0  0  -0.078994  0  3.999476  0  0  -0.076538  0  4.019186  0  0  -0.084152  -0.080392  0  3.985967  0
C  C37  1  0.82977180  0.30258541  0.21030760  1  0  -0.053514  0  3.749569  0  0  -0.078739  0  3.99915  0  0  -0.076283  0  4.018859  0  0  -0.084079  -0.080125  0  3.985652  0
C  C38  1  0.24629067  0.72929388  0.87073350  1  0  -0.099112  0  3.815542  0  0  -0.114991  0  4.071998  0  0  -0.119387  0  4.094126  0  0  -0.108866  -0.112295  0  4.057063  0
C  C39  1  0.75372684  0.27072285  0.12923177  1  0  -0.099035  0  3.8156  0  0  -0.114852  0  4.072075  0  0  -0.119254  0  4.094219  0  0  -0.108845  -0.112153  0  4.057127  0
C  C40  1  0.39893732  0.63857533  0.89537690  1  0  -0.032801  0  3.765812  0  0  -0.045633  0  4.011711  0  0  -0.043519  0  4.030538  0  0  -0.084978  -0.046733  0  3.998875  0
C  C41  1  0.60105092  0.36143245  0.10462186  1  0  -0.032728  0  3.765994  0  0  -0.045537  0  4.011865  0  0  -0.043449  0  4.030674  0  0  -0.084922  -0.046636  0  3.99903  0
C  C42  1  0.47212676  0.51662738  0.84059540  1  0  -0.110158  0  3.744038  0  0  -0.131068  0  3.993855  0  0  -0.135644  0  4.014113  0  0  -0.093818  -0.128252  0  3.980359  0
C  C43  1  0.52788700  0.48338056  0.15940957  1  0  -0.110246  0  3.743833  0  0  -0.131194  0  3.993658  0  0  -0.135736  0  4.013959  0  0  -0.09388  -0.128391  0  3.980164  0
C  C44  1  0.39595442  0.48217748  0.75887139  1  0  0.060257  0  3.711612  0  0  0.07244  0  3.96743  0  0  0.077827  0  3.98849  0  0  0.005037  0.06881  0  3.953193  0
C  C45  1  0.60406885  0.51780692  0.24113684  1  0  0.060456  0  3.711658  0  0  0.072625  0  3.967474  0  0  0.078016  0  3.988513  0  0  0.005122  0.068995  0  3.953254  0
C  C46  1  0.65114351  0.23909689  0.76585354  1  0  0.008529  0  3.7505  0  0  0.025898  0  4.00108  0  0  0.026439  0  4.024932  0  0  -0.007246  0.025451  0  3.984802  0
C  C47  1  0.34884121  0.76090432  0.23416817  1  0  0.008727  0  3.749678  0  0  0.025949  0  4.000449  0  0  0.026499  0  4.024284  0  0  -0.007175  0.025491  0  3.984175  0
C  C48  1  0.61424134  0.14569559  0.84907653  1  0  -0.099273  0  3.761199  0  0  -0.120981  0  4.010664  0  0  -0.123593  0  4.032149  0  0  -0.085619  -0.119054  0  3.995892  0
C  C49  1  0.38575144  0.85429466  0.15092658  1  0  -0.09913  0  3.760574  0  0  -0.120773  0  4.010043  0  0  -0.123392  0  4.031537  0  0  -0.085511  -0.118844  0  3.995267  0
C  C50  1  0.74572633  0.06929135  0.90286408  1  0  -0.061426  0  3.776005  0  0  -0.075061  0  4.025916  0  0  -0.076636  0  4.047377  0  0  -0.08749  -0.073992  0  4.011298  0
C  C51  1  0.25424232  0.93069874  0.09714449  1  0  -0.061607  0  3.776291  0  0  -0.075219  0  4.026186  0  0  -0.076792  0  4.047647  0  0  -0.087623  -0.074148  0  4.01156  0
C  C52  1  0.91579749  0.08742450  0.87460685  1  0  -0.066204  0  3.784517  0  0  -0.082026  0  4.03902  0  0  -0.083818  0  4.060369  0  0  -0.08817  -0.080771  0  4.024641  0
C  C53  1  0.08417263  0.91256867  0.12541797  1  0  -0.066264  0  3.784596  0  0  -0.08202  0  4.039002  0  0  -0.083812  0  4.060351  0  0  -0.088103  -0.080768  0  4.024627  0
C  C54  1  0.95499756  0.17780144  0.79105854  1  0  -0.073084  0  3.731677  0  0  -0.094738  0  3.975973  0  0  -0.095529  0  3.996032  0  0  -0.082996  -0.094217  0  3.962579  0
C  C55  1  0.04500469  0.82216529  0.20894546  1  0  -0.073043  0  3.731753  0  0  -0.094753  0  3.97605  0  0  -0.095542  0  3.996113  0  0  -0.083056  -0.094228  0  3.962641  0
C  C56  1  0.82464339  0.25243781  0.73503043  1  0  -0.05079  0  3.699062  0  0  -0.034702  0  3.925954  0  0  -0.040248  0  3.94623  0  0  0.000193  -0.0312  0  3.912436  0
C  C57  1  0.17534395  0.74753127  0.26498088  1  0  -0.051006  0  3.698864  0  0  -0.034816  0  3.925592  0  0  -0.040371  0  3.945869  0  0  0.000174  -0.031306  0  3.912064  0
C  C58  1  0.88033245  0.34323896  0.64307206  1  0  0.634096  0  3.892696  0  0  0.588766  0  4.195269  0  0  0.624599  0  4.187128  0  0  0.21441  0.564578  0  4.200234  0
C  C59  1  0.11957726  0.65677736  0.35694970  1  0  0.633792  0  3.892635  0  0  0.58876  0  4.19473  0  0  0.624592  0  4.186595  0  0  0.214296  0.564572  0  4.199686  0
C  C60  1  0.48800236  0.79052219  0.57296938  1  0  0.39053  0  3.818309  0  0  0.320556  0  4.106319  0  0  0.347804  0  4.108248  0  0  0.168789  0.302384  0  4.104614  0
C  C61  1  0.51199922  0.20947787  0.42703284  1  0  0.390338  0  3.818221  0  0  0.320316  0  4.106308  0  0  0.347564  0  4.108254  0  0  0.16874  0.302148  0  4.104575  0
C  C62  1  0.18712366  0.92470255  0.56730602  1  0  -0.171681  0  3.660271  0  0  -0.273879  0  3.910798  0  0  -0.270326  0  3.921721  0  0  -0.133166  -0.275909  0  3.903331  0
C  C63  1  0.81291185  0.07533047  0.43269241  1  0  -0.171132  0  3.659503  0  0  -0.273259  0  3.910022  0  0  -0.269738  0  3.920924  0  0  -0.133029  -0.275298  0  3.902526  0
C  C64  1  0.38935420  0.01586118  0.65053129  1  0  -0.17782  0  3.68331  0  0  -0.282452  0  3.935365  0  0  -0.278544  0  3.946124  0  0  -0.140826  -0.28455  0  3.927345  0
C  C65  1  0.61068573  0.98415124  0.34946218  1  0  -0.178131  0  3.683183  0  0  -0.282695  0  3.935185  0  0  -0.278784  0  3.945912  0  0  -0.140988  -0.284809  0  3.927175  0
S  S66  1  0.48205348  0.32360327  0.69320922  1  0  0.030454  0  2.531754  0  0  0.009382  0  2.880462  0  0  0.006912  0  2.881452  0  0  0.03709  0.011322  0  2.879948  0
S  S67  1  0.51796181  0.67637554  0.30679797  1  0  0.030387  0  2.531312  0  0  0.00932  0  2.880095  0  0  0.006844  0  2.881077  0  0  0.037038  0.011287  0  2.879555  0
N  N68  1  0.35923433  0.90550662  0.59567867  1  0  -0.09816  0  3.514453  0  0  0.009588  0  3.741928  0  0  -0.011655  0  3.768964  0  0  -0.287895  0.023846  0  3.723067  0
N  N69  1  0.64079272  0.09451874  0.40431335  1  0  -0.09828  0  3.514264  0  0  0.009491  0  3.741705  0  0  -0.011752  0  3.768746  0  0  -0.287857  0.023751  0  3.722848  0
O  O70  1  0.00901646  0.63487372  0.63584223  1  0  -0.554224  0  2.088741  0  0  -0.515753  0  2.352157  0  0  -0.542196  0  2.338049  0  0  -0.305333  -0.49798  0  2.361359  0
O  O71  1  0.99111947  0.36524317  0.36403828  1  0  -0.55414  0  2.088507  0  0  -0.515618  0  2.351986  0  0  -0.542067  0  2.33789  0  0  -0.305171  -0.497868  0  2.361239  0
O  O72  1  0.23947501  0.45171706  0.58179065  1  0  -0.575583  0  2.14944  0  0  -0.530092  0  2.425298  0  0  -0.558344  0  2.412968  0  0  -0.300404  -0.511257  0  2.433744  0
O  O73  1  0.76037751  0.54810721  0.41831475  1  0  -0.575398  0  2.149225  0  0  -0.530071  0  2.425327  0  0  -0.558314  0  2.412985  0  0  -0.300404  -0.511217  0  2.433738  0
O  O74  1  0.78910070  0.46605086  0.64089913  1  0  -0.554437  0  2.133341  0  0  -0.517924  0  2.40178  0  0  -0.546221  0  2.391067  0  0  -0.293967  -0.4989  0  2.408862  0
O  O75  1  0.21095298  0.53398034  0.35918877  1  0  -0.554626  0  2.132453  0  0  -0.518346  0  2.400856  0  0  -0.546644  0  2.39012  0  0  -0.294055  -0.499346  0  2.408001  0
O  O76  1  0.01972316  0.28573744  0.57836996  1  0  -0.564241  0  2.093679  0  0  -0.528069  0  2.368505  0  0  -0.555351  0  2.355807  0  0  -0.302842  -0.509822  0  2.377043  0
O  O77  1  0.98012914  0.71421396  0.42159083  1  0  -0.56375  0  2.094124  0  0  -0.527651  0  2.368779  0  0  -0.554922  0  2.356072  0  0  -0.302736  -0.509413  0  2.377329  0
O  O78  1  0.63870910  0.77295809  0.59371759  1  0  -0.515119  0  2.050532  0  0  -0.468423  0  2.301373  0  0  -0.490431  0  2.289617  0  0  -0.316046  -0.453633  0  2.309166  0
O  O79  1  0.36128126  0.22697471  0.40628350  1  0  -0.515091  0  2.049705  0  0  -0.468408  0  2.300526  0  0  -0.49043  0  2.288796  0  0  -0.315914  -0.453599  0  2.3083  0
