# generated using pymatgen
data_SnH11C10Cl3O2
_symmetry_space_group_name_H-M   'P 1'
_cell_length_a   9.66724546
_cell_length_b   9.62430188
_cell_length_c   15.02382785
_cell_angle_alpha   106.21217660
_cell_angle_beta   89.99961496
_cell_angle_gamma   90.00041062
_symmetry_Int_Tables_number   1
_chemical_formula_structural   SnH11C10Cl3O2
_chemical_formula_sum   'Sn4 H44 C40 Cl12 O8'
_cell_volume   1342.23892491
_cell_formula_units_Z   4
loop_
 _symmetry_equiv_pos_site_id
 _symmetry_equiv_pos_as_xyz
  1  'x, y, z'
loop_
 _atom_site_type_symbol
 _atom_site_label
 _atom_site_symmetry_multiplicity
 _atom_site_fract_x
 _atom_site_fract_y
 _atom_site_fract_z
 _atom_site_occupancy
 _atom_site_hle17_bader_spin_density
 _atom_site_hle17_ddec_charge
 _atom_site_hle17_ddec_spin_density
 _atom_site_hle17_ddec_sum_bond_order
 _atom_site_hle17_magmom
 _atom_site_hse06_10hf_bader_spin_density
 _atom_site_hse06_10hf_ddec_charge
 _atom_site_hse06_10hf_ddec_spin_density
 _atom_site_hse06_10hf_ddec_sum_bond_order
 _atom_site_hse06_10hf_magmom
 _atom_site_hse06_bader_spin_density
 _atom_site_hse06_ddec_charge
 _atom_site_hse06_ddec_spin_density
 _atom_site_hse06_ddec_sum_bond_order
 _atom_site_hse06_magmom
 _atom_site_pbe_bader_spin_density
 _atom_site_pbe_cm5_charge
 _atom_site_pbe_ddec_charge
 _atom_site_pbe_ddec_spin_density
 _atom_site_pbe_ddec_sum_bond_order
 _atom_site_pbe_magmom
Sn  Sn0  1  0.72526783  0.58177642  0.74980657  1  0  1.376212  0  2.840937  0  0  1.252025  0  3.319076  0  0  1.289944  0  3.30445  0  0  0.512187  1.2262  0  3.328323  0
Sn  Sn1  1  0.22526959  0.41822165  0.75019512  1  0  1.376179  0  2.840951  0  0  1.25198  0  3.319112  0  0  1.28989  0  3.304488  0  0  0.512156  1.226156  0  3.328353  0
Sn  Sn2  1  0.27473822  0.41823394  0.25019346  1  0  1.376211  0  2.840983  0  0  1.252107  0  3.318969  0  0  1.290021  0  3.304351  0  0  0.512176  1.226284  0  3.328215  0
Sn  Sn3  1  0.77473750  0.58177138  0.24980308  1  0  1.376109  0  2.840912  0  0  1.251927  0  3.319068  0  0  1.28983  0  3.304447  0  0  0.512144  1.226103  0  3.328307  0
H  H4  1  0.33741686  0.06605627  0.80125710  1  0  0.137355  0  0.951166  0  0  0.139975  0  1.023256  0  0  0.14456  0  1.019729  0  0  0.107116  0.136826  0  1.025672  0
H  H5  1  0.83741610  0.93394137  0.69874270  1  0  0.137335  0  0.951122  0  0  0.139963  0  1.023229  0  0  0.144545  0  1.019701  0  0  0.107135  0.136809  0  1.025645  0
H  H6  1  0.66258402  0.93394214  0.19874541  1  0  0.137331  0  0.951132  0  0  0.139959  0  1.023213  0  0  0.144541  0  1.01969  0  0  0.107117  0.136808  0  1.025624  0
H  H7  1  0.16258995  0.06606464  0.30125854  1  0  0.137398  0  0.951089  0  0  0.14001  0  1.02319  0  0  0.144594  0  1.019659  0  0  0.107124  0.136858  0  1.025608  0
H  H8  1  0.24405677  0.00934762  0.07076322  1  0  0.131935  0  0.963878  0  0  0.136168  0  1.036877  0  0  0.140795  0  1.032817  0  0  0.1011  0.132822  0  1.039816  0
H  H9  1  0.74406538  0.99064992  0.42923669  1  0  0.132057  0  0.963958  0  0  0.13629  0  1.036969  0  0  0.140918  0  1.032909  0  0  0.101159  0.132941  0  1.039908  0
H  H10  1  0.75593480  0.99065082  0.92923730  1  0  0.131998  0  0.963795  0  0  0.136234  0  1.036793  0  0  0.140863  0  1.032729  0  0  0.10113  0.132886  0  1.039727  0
H  H11  1  0.25593447  0.00934095  0.57076178  1  0  0.132035  0  0.963815  0  0  0.136258  0  1.036847  0  0  0.140888  0  1.032783  0  0  0.101131  0.132911  0  1.039782  0
H  H12  1  0.47763011  0.68306489  0.71380116  1  0  0.155204  0  1.00933  0  0  0.174412  0  1.065046  0  0  0.17711  0  1.065603  0  0  0.081331  0.172295  0  1.065151  0
H  H13  1  0.97763434  0.31693349  0.78620615  1  0  0.155171  0  1.009334  0  0  0.174405  0  1.065031  0  0  0.177115  0  1.065572  0  0  0.081319  0.172286  0  1.065139  0
H  H14  1  0.52237077  0.31693566  0.28620507  1  0  0.155132  0  1.009357  0  0  0.174342  0  1.065079  0  0  0.177057  0  1.065614  0  0  0.081309  0.172226  0  1.065188  0
H  H15  1  0.02237586  0.68307357  0.21379927  1  0  0.155213  0  1.00926  0  0  0.174416  0  1.064991  0  0  0.177129  0  1.06553  0  0  0.081324  0.172297  0  1.065097  0
H  H16  1  0.60783833  0.81207577  0.70779592  1  0  0.143425  0  1.027456  0  0  0.158643  0  1.09123  0  0  0.160399  0  1.09339  0  0  0.071454  0.157378  0  1.089881  0
H  H17  1  0.10784109  0.18792160  0.79220948  1  0  0.143381  0  1.027381  0  0  0.158579  0  1.091187  0  0  0.160331  0  1.093353  0  0  0.071406  0.157314  0  1.089837  0
H  H18  1  0.39215325  0.18793453  0.29221009  1  0  0.143455  0  1.02737  0  0  0.158663  0  1.091161  0  0  0.160416  0  1.093325  0  0  0.071458  0.157397  0  1.089814  0
H  H19  1  0.89216083  0.81207681  0.20779436  1  0  0.143422  0  1.027441  0  0  0.158626  0  1.091225  0  0  0.160379  0  1.093389  0  0  0.071413  0.157357  0  1.089881  0
H  H20  1  0.54486218  0.80386347  0.81781098  1  0  0.14091  0  1.025576  0  0  0.152732  0  1.095418  0  0  0.154994  0  1.09686  0  0  0.070362  0.151156  0  1.094365  0
H  H21  1  0.04486099  0.19613462  0.68219615  1  0  0.140924  0  1.025676  0  0  0.152744  0  1.095501  0  0  0.155007  0  1.096941  0  0  0.070391  0.151166  0  1.094451  0
H  H22  1  0.45513974  0.19613708  0.18219591  1  0  0.140934  0  1.025674  0  0  0.15275  0  1.095505  0  0  0.155014  0  1.096946  0  0  0.070401  0.151174  0  1.094456  0
H  H23  1  0.95513576  0.80386378  0.31780902  1  0  0.140899  0  1.025632  0  0  0.152737  0  1.095449  0  0  0.155001  0  1.09689  0  0  0.07036  0.151159  0  1.094397  0
H  H24  1  0.79226607  0.39867325  0.85240646  1  0  0.138179  0  1.041339  0  0  0.151249  0  1.109444  0  0  0.153809  0  1.110148  0  0  0.070987  0.149314  0  1.109242  0
H  H25  1  0.29226712  0.60131981  0.64759203  1  0  0.138214  0  1.041357  0  0  0.151291  0  1.109441  0  0  0.153851  0  1.110144  0  0  0.071019  0.149357  0  1.109231  0
H  H26  1  0.20773481  0.60132958  0.14758687  1  0  0.138147  0  1.041396  0  0  0.151269  0  1.109432  0  0  0.153828  0  1.110139  0  0  0.071022  0.14933  0  1.109226  0
H  H27  1  0.70773066  0.39867646  0.35240743  1  0  0.138174  0  1.041331  0  0  0.151256  0  1.10942  0  0  0.153815  0  1.110127  0  0  0.070995  0.149318  0  1.109223  0
H  H28  1  0.64640665  0.50499072  0.90276197  1  0  0.14985  0  1.006045  0  0  0.167193  0  1.065413  0  0  0.169415  0  1.066879  0  0  0.078043  0.165268  0  1.065186  0
H  H29  1  0.14640643  0.49500256  0.59724119  1  0  0.149801  0  1.006098  0  0  0.167166  0  1.065435  0  0  0.169388  0  1.066901  0  0  0.078016  0.165243  0  1.065207  0
H  H30  1  0.35359320  0.49501319  0.09723223  1  0  0.149879  0  1.006076  0  0  0.167224  0  1.065436  0  0  0.169447  0  1.066898  0  0  0.078043  0.165297  0  1.065207  0
H  H31  1  0.85359032  0.50499367  0.40276292  1  0  0.149808  0  1.00611  0  0  0.167174  0  1.065444  0  0  0.169394  0  1.066914  0  0  0.078026  0.165248  0  1.065215  0
H  H32  1  0.81650079  0.58208116  0.91982043  1  0  0.147596  0  1.012466  0  0  0.162279  0  1.075538  0  0  0.165182  0  1.075642  0  0  0.075933  0.160241  0  1.075327  0
H  H33  1  0.31650123  0.41791311  0.58017885  1  0  0.147621  0  1.0125  0  0  0.162342  0  1.07552  0  0  0.165245  0  1.075623  0  0  0.075944  0.160301  0  1.075314  0
H  H34  1  0.18350113  0.41791943  0.08018115  1  0  0.147588  0  1.012479  0  0  0.162268  0  1.075569  0  0  0.16517  0  1.075675  0  0  0.075919  0.160226  0  1.075361  0
H  H35  1  0.68349552  0.58208644  0.41981788  1  0  0.147597  0  1.012557  0  0  0.162295  0  1.075605  0  0  0.165199  0  1.075707  0  0  0.075937  0.160254  0  1.075396  0
H  H36  1  0.87427196  0.38097194  0.62311095  1  0  0.1534  0  0.993303  0  0  0.172115  0  1.050705  0  0  0.174142  0  1.052529  0  0  0.079844  0.170708  0  1.04955  0
H  H37  1  0.37427280  0.61902806  0.87689111  1  0  0.153407  0  0.993276  0  0  0.172119  0  1.050681  0  0  0.174144  0  1.052507  0  0  0.079841  0.170717  0  1.049515  0
H  H38  1  0.12572375  0.61903081  0.37689102  1  0  0.153353  0  0.993344  0  0  0.172061  0  1.050755  0  0  0.174086  0  1.052584  0  0  0.079819  0.170661  0  1.049585  0
H  H39  1  0.62572498  0.38097146  0.12310894  1  0  0.153382  0  0.993292  0  0  0.172088  0  1.050708  0  0  0.174112  0  1.052538  0  0  0.079838  0.170692  0  1.049533  0
H  H40  1  0.90381676  0.55631296  0.60726187  1  0  0.151729  0  1.001989  0  0  0.167127  0  1.063844  0  0  0.170226  0  1.063707  0  0  0.080245  0.164705  0  1.064535  0
H  H41  1  0.40381928  0.44368613  0.89273924  1  0  0.15172  0  1.001957  0  0  0.167118  0  1.063818  0  0  0.170217  0  1.063679  0  0  0.080275  0.164694  0  1.064511  0
H  H42  1  0.09618308  0.44368336  0.39273161  1  0  0.15165  0  1.002041  0  0  0.167043  0  1.063909  0  0  0.17014  0  1.063778  0  0  0.080187  0.164622  0  1.064599  0
H  H43  1  0.59618367  0.55631553  0.10726453  1  0  0.151693  0  1.002088  0  0  0.167099  0  1.063921  0  0  0.170197  0  1.063785  0  0  0.080238  0.164675  0  1.064609  0
H  H44  1  0.74815907  0.45955682  0.56427087  1  0  0.15539  0  1.000162  0  0  0.17158  0  1.059732  0  0  0.174361  0  1.060236  0  0  0.078535  0.169672  0  1.059348  0
H  H45  1  0.24816079  0.54044138  0.93573141  1  0  0.155362  0  1.000174  0  0  0.171548  0  1.059749  0  0  0.174327  0  1.060257  0  0  0.078519  0.169639  0  1.059361  0
H  H46  1  0.25183561  0.54044485  0.43573090  1  0  0.155375  0  1.000154  0  0  0.171553  0  1.059743  0  0  0.174334  0  1.06025  0  0  0.078534  0.169643  0  1.059365  0
H  H47  1  0.75183595  0.45955599  0.06426692  1  0  0.155338  0  1.000153  0  0  0.171521  0  1.059737  0  0  0.174298  0  1.060249  0  0  0.078513  0.16961  0  1.05936  0
C  C48  1  0.00244575  0.71930574  0.81446643  1  0  0.675923  0  3.907588  0  0  0.613632  0  4.218845  0  0  0.649217  0  4.207987  0  0  0.226559  0.589425  0  4.225474  0
C  C49  1  0.50244974  0.28069110  0.68553134  1  0  0.675878  0  3.907819  0  0  0.613727  0  4.218849  0  0  0.649311  0  4.207985  0  0  0.226556  0.589523  0  4.22548  0
C  C50  1  0.99754893  0.28069812  0.18553308  1  0  0.675871  0  3.907674  0  0  0.613662  0  4.218802  0  0  0.649248  0  4.207949  0  0  0.226496  0.589458  0  4.225431  0
C  C51  1  0.49755839  0.71931278  0.31446618  1  0  0.675633  0  3.907975  0  0  0.613482  0  4.219029  0  0  0.649066  0  4.208172  0  0  0.226493  0.589283  0  4.225643  0
C  C52  1  0.10743861  0.83335533  0.85886241  1  0  -0.178497  0  3.73652  0  0  -0.177478  0  3.986215  0  0  -0.183487  0  4.004522  0  0  -0.025427  -0.173439  0  3.973993  0
C  C53  1  0.60744327  0.16664104  0.64113282  1  0  -0.178417  0  3.736722  0  0  -0.177375  0  3.986338  0  0  -0.183381  0  4.004639  0  0  -0.025305  -0.173341  0  3.974124  0
C  C54  1  0.89255711  0.16664637  0.14113537  1  0  -0.178413  0  3.736533  0  0  -0.177389  0  3.98619  0  0  -0.183397  0  4.004491  0  0  -0.025332  -0.173355  0  3.973979  0
C  C55  1  0.39256175  0.83335958  0.35886477  1  0  -0.178313  0  3.736567  0  0  -0.177372  0  3.98626  0  0  -0.183365  0  4.004528  0  0  -0.025394  -0.173336  0  3.974038  0
C  C56  1  0.18163402  0.90675203  0.80584997  1  0  0.151027  0  3.773371  0  0  0.156532  0  4.040202  0  0  0.161072  0  4.059884  0  0  0.021733  0.153995  0  4.027109  0
C  C57  1  0.68163657  0.09324581  0.69414920  1  0  0.151052  0  3.773424  0  0  0.156535  0  4.040281  0  0  0.161073  0  4.059956  0  0  0.02173  0.153988  0  4.027203  0
C  C58  1  0.81836480  0.09324749  0.19415008  1  0  0.151004  0  3.773429  0  0  0.156491  0  4.040269  0  0  0.161032  0  4.059953  0  0  0.021696  0.153952  0  4.027184  0
C  C59  1  0.31836846  0.90675696  0.30585011  1  0  0.150975  0  3.773245  0  0  0.156522  0  4.040007  0  0  0.161064  0  4.059682  0  0  0.021774  0.15399  0  4.026909  0
C  C60  1  0.28040640  0.01197563  0.84452169  1  0  -0.198571  0  3.733495  0  0  -0.232824  0  3.992796  0  0  -0.235516  0  4.009685  0  0  -0.102484  -0.231076  0  3.981499  0
C  C61  1  0.78040856  0.98802388  0.65547537  1  0  -0.198587  0  3.733504  0  0  -0.232874  0  3.992845  0  0  -0.235586  0  4.009791  0  0  -0.102533  -0.231114  0  3.981533  0
C  C62  1  0.71959448  0.98802496  0.15547989  1  0  -0.198645  0  3.733559  0  0  -0.23288  0  3.992891  0  0  -0.235571  0  4.009782  0  0  -0.10252  -0.231132  0  3.981591  0
C  C63  1  0.21959646  0.01197998  0.34452414  1  0  -0.198684  0  3.733558  0  0  -0.232915  0  3.992805  0  0  -0.23562  0  4.00973  0  0  -0.102545  -0.231161  0  3.981497  0
C  C64  1  0.30176371  0.04653081  0.93999977  1  0  0.163289  0  3.818756  0  0  0.170679  0  4.100146  0  0  0.175328  0  4.119632  0  0  0.01379  0.166824  0  4.087363  0
C  C65  1  0.80177076  0.95346660  0.56000280  1  0  0.163396  0  3.818584  0  0  0.170806  0  4.099957  0  0  0.175453  0  4.11944  0  0  0.01381  0.166947  0  4.087179  0
C  C66  1  0.69823303  0.95346976  0.06000380  1  0  0.163467  0  3.818576  0  0  0.170809  0  4.100029  0  0  0.175453  0  4.119527  0  0  0.013885  0.166957  0  4.08724  0
C  C67  1  0.19823530  0.04653184  0.43999706  1  0  0.163378  0  3.818598  0  0  0.170767  0  4.099981  0  0  0.175411  0  4.11947  0  0  0.013855  0.166909  0  4.087206  0
C  C68  1  0.22917732  0.97812727  0.99610121  1  0  -0.204577  0  3.75256  0  0  -0.249034  0  4.024993  0  0  -0.251803  0  4.042414  0  0  -0.10858  -0.24722  0  4.014178  0
C  C69  1  0.72918756  0.02186871  0.50389409  1  0  -0.204738  0  3.7524  0  0  -0.249206  0  4.024836  0  0  -0.251975  0  4.042255  0  0  -0.108603  -0.247386  0  4.014017  0
C  C70  1  0.77081632  0.02187117  0.00389864  1  0  -0.204715  0  3.752424  0  0  -0.249167  0  4.024908  0  0  -0.251933  0  4.042326  0  0  -0.108655  -0.247347  0  4.014087  0
C  C71  1  0.27081642  0.97812757  0.49610471  1  0  -0.204679  0  3.752291  0  0  -0.249158  0  4.024738  0  0  -0.251927  0  4.042157  0  0  -0.108616  -0.247339  0  4.01392  0
C  C72  1  0.13423284  0.87060614  0.95431577  1  0  0.151792  0  3.772675  0  0  0.157806  0  4.04423  0  0  0.162048  0  4.064778  0  0  0.020933  0.15389  0  4.031104  0
C  C73  1  0.63423824  0.12939359  0.54568462  1  0  0.151835  0  3.772619  0  0  0.157767  0  4.044264  0  0  0.16201  0  4.064809  0  0  0.020886  0.153856  0  4.031131  0
C  C74  1  0.86576287  0.12939555  0.04568402  1  0  0.151804  0  3.772623  0  0  0.157772  0  4.044237  0  0  0.162013  0  4.064788  0  0  0.020885  0.153856  0  4.031113  0
C  C75  1  0.36576574  0.87060270  0.45431351  1  0  0.151751  0  3.772652  0  0  0.157761  0  4.044207  0  0  0.162007  0  4.064751  0  0  0.020907  0.153838  0  4.031091  0
C  C76  1  0.57008046  0.73982888  0.74723612  1  0  -0.716518  0  3.512844  0  0  -0.752366  0  3.741356  0  0  -0.766096  0  3.748505  0  0  -0.348636  -0.742316  0  3.736343  0
C  C77  1  0.07008210  0.26016828  0.75276940  1  0  -0.716446  0  3.512815  0  0  -0.752296  0  3.741368  0  0  -0.766033  0  3.748504  0  0  -0.348609  -0.742239  0  3.736357  0
C  C78  1  0.42991938  0.26017602  0.25276824  1  0  -0.716491  0  3.512819  0  0  -0.75234  0  3.741379  0  0  -0.766086  0  3.748504  0  0  -0.348666  -0.742287  0  3.736378  0
C  C79  1  0.92992189  0.73983121  0.24723397  1  0  -0.71649  0  3.512713  0  0  -0.752342  0  3.741235  0  0  -0.766088  0  3.748366  0  0  -0.348591  -0.742286  0  3.736226  0
C  C80  1  0.74791350  0.50752422  0.87099473  1  0  -0.721553  0  3.560376  0  0  -0.764989  0  3.79892  0  0  -0.778595  0  3.806118  0  0  -0.34453  -0.755116  0  3.793979  0
C  C81  1  0.24791397  0.49246857  0.62900590  1  0  -0.721545  0  3.560532  0  0  -0.765078  0  3.799068  0  0  -0.778677  0  3.806258  0  0  -0.344555  -0.755207  0  3.794128  0
C  C82  1  0.25208945  0.49247966  0.12900279  1  0  -0.721531  0  3.560556  0  0  -0.76505  0  3.799072  0  0  -0.778654  0  3.806263  0  0  -0.344554  -0.755171  0  3.79413  0
C  C83  1  0.75208588  0.50752661  0.37099469  1  0  -0.721456  0  3.560463  0  0  -0.764992  0  3.799074  0  0  -0.778592  0  3.806266  0  0  -0.344535  -0.755119  0  3.794139  0
C  C84  1  0.82516424  0.48210457  0.61996896  1  0  -0.714215  0  3.514038  0  0  -0.75358  0  3.742937  0  0  -0.76686  0  3.748816  0  0  -0.338895  -0.744391  0  3.739113  0
C  C85  1  0.32516639  0.51789515  0.88003327  1  0  -0.714143  0  3.513939  0  0  -0.753515  0  3.742874  0  0  -0.76679  0  3.748756  0  0  -0.338902  -0.744329  0  3.739037  0
C  C86  1  0.17483457  0.51789821  0.38003102  1  0  -0.714046  0  3.51397  0  0  -0.753406  0  3.742928  0  0  -0.766685  0  3.748816  0  0  -0.338812  -0.744226  0  3.739091  0
C  C87  1  0.67483449  0.48210437  0.11996679  1  0  -0.714049  0  3.514005  0  0  -0.753414  0  3.742945  0  0  -0.766688  0  3.748833  0  0  -0.338845  -0.744235  0  3.739108  0
Cl  Cl88  1  0.14768997  0.86680355  0.68848218  1  0  -0.060264  0  1.43369  0  0  -0.039204  0  1.678951  0  0  -0.042835  0  1.673826  0  0  0.04197  -0.036662  0  1.683441  0
Cl  Cl89  1  0.64768640  0.13319520  0.81151531  1  0  -0.060321  0  1.433838  0  0  -0.039249  0  1.6791  0  0  -0.042879  0  1.673977  0  0  0.041931  -0.036701  0  1.683592  0
Cl  Cl90  1  0.85231402  0.13319598  0.31151721  1  0  -0.060264  0  1.433686  0  0  -0.039189  0  1.678949  0  0  -0.042823  0  1.673826  0  0  0.041978  -0.036642  0  1.68344  0
Cl  Cl91  1  0.35231552  0.86681084  0.18848260  1  0  -0.06027  0  1.433672  0  0  -0.039232  0  1.678913  0  0  -0.042864  0  1.673787  0  0  0.041941  -0.036695  0  1.683397  0
Cl  Cl92  1  0.42039441  0.17978058  0.99068220  1  0  -0.063746  0  1.385771  0  0  -0.034682  0  1.617561  0  0  -0.03903  0  1.613914  0  0  0.037067  -0.031704  0  1.620295  0
Cl  Cl93  1  0.92039896  0.82021645  0.50931713  1  0  -0.063831  0  1.385746  0  0  -0.034722  0  1.617476  0  0  -0.039066  0  1.613831  0  0  0.037052  -0.031745  0  1.620214  0
Cl  Cl94  1  0.57960130  0.82021783  0.00932031  1  0  -0.063825  0  1.38565  0  0  -0.034726  0  1.617428  0  0  -0.039072  0  1.613785  0  0  0.037031  -0.031753  0  1.620161  0
Cl  Cl95  1  0.07960503  0.17978091  0.49068253  1  0  -0.06377  0  1.385704  0  0  -0.034694  0  1.617473  0  0  -0.039039  0  1.613828  0  0  0.037048  -0.031717  0  1.620211  0
Cl  Cl96  1  0.04591443  0.78294760  0.02319446  1  0  -0.051346  0  1.356631  0  0  -0.026682  0  1.578463  0  0  -0.030544  0  1.575679  0  0  0.036638  -0.024039  0  1.580726  0
Cl  Cl97  1  0.54592007  0.21704342  0.47680180  1  0  -0.051401  0  1.356623  0  0  -0.026709  0  1.578487  0  0  -0.030571  0  1.575702  0  0  0.036615  -0.024063  0  1.580743  0
Cl  Cl98  1  0.95408128  0.21704869  0.97680301  1  0  -0.051337  0  1.356643  0  0  -0.02665  0  1.578492  0  0  -0.030515  0  1.575707  0  0  0.036673  -0.024003  0  1.58075  0
Cl  Cl99  1  0.45407874  0.78294746  0.52319468  1  0  -0.051349  0  1.35664  0  0  -0.026678  0  1.578474  0  0  -0.030541  0  1.575689  0  0  0.036652  -0.024032  0  1.580735  0
O  O100  1  0.88105716  0.76456639  0.80270765  1  0  -0.597973  0  1.990426  0  0  -0.53134  0  2.232021  0  0  -0.558297  0  2.224548  0  0  -0.273556  -0.512402  0  2.236296  0
O  O101  1  0.38105816  0.23542824  0.69729274  1  0  -0.5981  0  1.990561  0  0  -0.531472  0  2.232054  0  0  -0.558432  0  2.224578  0  0  -0.273541  -0.512534  0  2.236325  0
O  O102  1  0.11894269  0.23544073  0.19729112  1  0  -0.598047  0  1.990439  0  0  -0.531447  0  2.231985  0  0  -0.558411  0  2.224515  0  0  -0.27353  -0.512509  0  2.236261  0
O  O103  1  0.61894686  0.76457020  0.30270712  1  0  -0.597869  0  1.990627  0  0  -0.531286  0  2.232165  0  0  -0.558241  0  2.224693  0  0  -0.273514  -0.512353  0  2.236436  0
O  O104  1  0.03595752  0.58762468  0.79207541  1  0  -0.61594  0  2.048956  0  0  -0.541944  0  2.287195  0  0  -0.569504  0  2.281731  0  0  -0.263704  -0.522331  0  2.290187  0
O  O105  1  0.53595912  0.41236806  0.70791747  1  0  -0.615833  0  2.049052  0  0  -0.541901  0  2.287206  0  0  -0.569468  0  2.281763  0  0  -0.263712  -0.522286  0  2.290202  0
O  O106  1  0.96403715  0.41237704  0.20792171  1  0  -0.615873  0  2.049118  0  0  -0.541926  0  2.287352  0  0  -0.569455  0  2.281826  0  0  -0.263673  -0.522313  0  2.290348  0
O  O107  1  0.46404383  0.58762828  0.29207468  1  0  -0.615873  0  2.049081  0  0  -0.541896  0  2.287167  0  0  -0.569479  0  2.281756  0  0  -0.263707  -0.522284  0  2.290157  0
