# generated using pymatgen
data_CaH12C12(SO5)2
_symmetry_space_group_name_H-M   'P 1'
_cell_length_a   7.29023415
_cell_length_b   11.55643634
_cell_length_c   10.54405605
_cell_angle_alpha   123.22091270
_cell_angle_beta   97.79920109
_cell_angle_gamma   89.96908632
_symmetry_Int_Tables_number   1
_chemical_formula_structural   CaH12C12(SO5)2
_chemical_formula_sum   'Ca2 H24 C24 S4 O20'
_cell_volume   733.34380202
_cell_formula_units_Z   2
loop_
 _symmetry_equiv_pos_site_id
 _symmetry_equiv_pos_as_xyz
  1  'x, y, z'
loop_
 _atom_site_type_symbol
 _atom_site_label
 _atom_site_symmetry_multiplicity
 _atom_site_fract_x
 _atom_site_fract_y
 _atom_site_fract_z
 _atom_site_occupancy
 _atom_site_hle17_bader_spin_density
 _atom_site_hle17_ddec_charge
 _atom_site_hle17_ddec_spin_density
 _atom_site_hle17_ddec_sum_bond_order
 _atom_site_hle17_magmom
 _atom_site_hse06_10hf_bader_spin_density
 _atom_site_hse06_10hf_ddec_charge
 _atom_site_hse06_10hf_ddec_spin_density
 _atom_site_hse06_10hf_ddec_sum_bond_order
 _atom_site_hse06_10hf_magmom
 _atom_site_hse06_bader_spin_density
 _atom_site_hse06_ddec_charge
 _atom_site_hse06_ddec_spin_density
 _atom_site_hse06_ddec_sum_bond_order
 _atom_site_hse06_magmom
 _atom_site_pbe_bader_spin_density
 _atom_site_pbe_cm5_charge
 _atom_site_pbe_ddec_charge
 _atom_site_pbe_ddec_spin_density
 _atom_site_pbe_ddec_sum_bond_order
 _atom_site_pbe_magmom
Ca  Ca0  1  0.75009292  0.95804191  0.00014246  1  0  1.578548  0  1.052559  0  0  1.454086  0  1.390088  0  0  1.494522  0  1.348769  0  0  0.894006  1.423439  0  1.41976  0
Ca  Ca1  1  0.24991596  0.04195461  0.99986037  1  0  1.578567  0  1.052504  0  0  1.454106  0  1.390045  0  0  1.494542  0  1.348726  0  0  0.894028  1.423461  0  1.419717  0
H  H2  1  0.77714379  0.98627675  0.29395339  1  0  0.445776  0  0.833238  0  0  0.413547  0  0.902303  0  0  0.423937  0  0.887056  0  0  0.313296  0.406122  0  0.913198  0
H  H3  1  0.72319421  0.69270949  0.70618789  1  0  0.445976  0  0.833695  0  0  0.413778  0  0.902329  0  0  0.424198  0  0.887034  0  0  0.313323  0.406347  0  0.913232  0
H  H4  1  0.22286640  0.01371881  0.70604998  1  0  0.445754  0  0.833285  0  0  0.413537  0  0.902317  0  0  0.423927  0  0.887071  0  0  0.313299  0.406116  0  0.913205  0
H  H5  1  0.27681349  0.30728908  0.29381595  1  0  0.445885  0  0.833829  0  0  0.413674  0  0.902482  0  0  0.424095  0  0.887187  0  0  0.313284  0.406243  0  0.913385  0
H  H6  1  0.56064993  0.96297929  0.23122554  1  0  0.440343  0  0.854812  0  0  0.41001  0  0.917661  0  0  0.420296  0  0.902551  0  0  0.310036  0.402746  0  0.928309  0
H  H7  1  0.93969093  0.73207411  0.76885404  1  0  0.440683  0  0.854077  0  0  0.410309  0  0.917016  0  0  0.420572  0  0.901925  0  0  0.310178  0.403049  0  0.927682  0
H  H8  1  0.43936089  0.03702255  0.76878226  1  0  0.440282  0  0.854877  0  0  0.409954  0  0.917725  0  0  0.42024  0  0.902615  0  0  0.309998  0.402699  0  0.928362  0
H  H9  1  0.06031797  0.26792318  0.23114541  1  0  0.440526  0  0.854288  0  0  0.410196  0  0.917137  0  0  0.420457  0  0.902052  0  0  0.310162  0.402942  0  0.927791  0
H  H10  1  0.54659608  0.11367481  0.48224801  1  0  0.400675  0  0.826085  0  0  0.379135  0  0.891193  0  0  0.388145  0  0.881215  0  0  0.328226  0.372683  0  0.898379  0
H  H11  1  0.95299960  0.63085014  0.51779271  1  0  0.401292  0  0.825779  0  0  0.379273  0  0.891696  0  0  0.388326  0  0.881623  0  0  0.327858  0.372759  0  0.898989  0
H  H12  1  0.45340449  0.88632232  0.51774967  1  0  0.400654  0  0.826079  0  0  0.379117  0  0.891191  0  0  0.388125  0  0.881213  0  0  0.328221  0.372666  0  0.898377  0
H  H13  1  0.04698913  0.36915533  0.48219611  1  0  0.401318  0  0.825787  0  0  0.379294  0  0.891709  0  0  0.388346  0  0.881638  0  0  0.327825  0.372787  0  0.898992  0
H  H14  1  0.67105114  0.34546113  0.59169789  1  0  0.13146  0  0.964808  0  0  0.137811  0  1.027264  0  0  0.141919  0  1.025207  0  0  0.105565  0.134839  0  1.028874  0
H  H15  1  0.82851035  0.75334168  0.40846134  1  0  0.131715  0  0.965497  0  0  0.13846  0  1.027249  0  0  0.142671  0  1.02508  0  0  0.105814  0.135401  0  1.028973  0
H  H16  1  0.32894295  0.65453736  0.40832087  1  0  0.13151  0  0.964817  0  0  0.137885  0  1.027223  0  0  0.141993  0  1.025172  0  0  0.105599  0.13491  0  1.028831  0
H  H17  1  0.17147689  0.24666274  0.59152678  1  0  0.131678  0  0.965481  0  0  0.138404  0  1.02724  0  0  0.142612  0  1.025081  0  0  0.105804  0.135351  0  1.02895  0
H  H18  1  0.84530809  0.54796915  0.82315216  1  0  0.093843  0  0.979676  0  0  0.1051  0  1.040057  0  0  0.108365  0  1.037279  0  0  0.100638  0.102639  0  1.04218  0
H  H19  1  0.65478992  0.72473226  0.17695951  1  0  0.09285  0  0.979962  0  0  0.10436  0  1.040331  0  0  0.107657  0  1.037493  0  0  0.100563  0.10192  0  1.04243  0
H  H20  1  0.15467724  0.45204010  0.17686408  1  0  0.093912  0  0.979659  0  0  0.105116  0  1.040086  0  0  0.108394  0  1.037287  0  0  0.100651  0.102656  0  1.04221  0
H  H21  1  0.34519063  0.27525914  0.82302855  1  0  0.092969  0  0.979803  0  0  0.104434  0  1.040205  0  0  0.107751  0  1.037341  0  0  0.100595  0.10199  0  1.042317  0
H  H22  1  0.01582704  0.29383711  0.99484586  1  0  0.101768  0  0.981138  0  0  0.111556  0  1.04545  0  0  0.114541  0  1.04334  0  0  0.110357  0.10942  0  1.046827  0
H  H23  1  0.48413353  0.29891948  0.00497202  1  0  0.102446  0  0.979594  0  0  0.111764  0  1.044729  0  0  0.114778  0  1.042595  0  0  0.110347  0.109599  0  1.046141  0
H  H24  1  0.98420156  0.70615051  0.00514150  1  0  0.101753  0  0.981257  0  0  0.111491  0  1.045626  0  0  0.114476  0  1.043514  0  0  0.110375  0.109355  0  1.047002  0
H  H25  1  0.51584830  0.70108455  0.99502587  1  0  0.102453  0  0.97963  0  0  0.111778  0  1.044746  0  0  0.114796  0  1.042617  0  0  0.110389  0.109615  0  1.046148  0
C  C26  1  0.84162359  0.19279513  0.77642449  1  0  -0.245796  0  3.724359  0  0  -0.223387  0  3.980825  0  0  -0.234316  0  4.001401  0  0  -0.032679  -0.216114  0  3.967068  0
C  C27  1  0.65789162  0.41618042  0.22362123  1  0  -0.243309  0  3.724246  0  0  -0.221955  0  3.981461  0  0  -0.232882  0  4.002044  0  0  -0.032586  -0.214715  0  3.967754  0
C  C28  1  0.15840162  0.80719989  0.22356945  1  0  -0.245637  0  3.724088  0  0  -0.223309  0  3.980675  0  0  -0.234233  0  4.001245  0  0  -0.032528  -0.216031  0  3.966908  0
C  C29  1  0.34209601  0.58382594  0.77638129  1  0  -0.243262  0  3.723974  0  0  -0.221935  0  3.981197  0  0  -0.232858  0  4.001774  0  0  -0.032594  -0.214703  0  3.967503  0
C  C30  1  0.74292938  0.20471978  0.66009932  1  0  0.349322  0  3.802259  0  0  0.328715  0  4.070189  0  0  0.342582  0  4.084308  0  0  0.088831  0.319012  0  4.060641  0
C  C31  1  0.75638756  0.54438718  0.34005212  1  0  0.347833  0  3.804126  0  0  0.327893  0  4.0715  0  0  0.341748  0  4.085642  0  0  0.088119  0.318204  0  4.061916  0
C  C32  1  0.25708181  0.79527172  0.33990288  1  0  0.34928  0  3.802027  0  0  0.328667  0  4.07002  0  0  0.34253  0  4.084139  0  0  0.088762  0.318962  0  4.060477  0
C  C33  1  0.24360268  0.45561869  0.65994276  1  0  0.347726  0  3.804227  0  0  0.327823  0  4.071558  0  0  0.341678  0  4.085697  0  0  0.088027  0.318135  0  4.061976  0
C  C34  1  0.74792314  0.33479942  0.68049850  1  0  -0.200408  0  3.739208  0  0  -0.220032  0  3.999593  0  0  -0.226919  0  4.018443  0  0  -0.105811  -0.215556  0  3.986986  0
C  C35  1  0.75160111  0.65402630  0.31966700  1  0  -0.201276  0  3.741609  0  0  -0.221286  0  4.001519  0  0  -0.228266  0  4.020345  0  0  -0.106065  -0.216748  0  3.988963  0
C  C36  1  0.25207108  0.66520094  0.31951844  1  0  -0.200564  0  3.739063  0  0  -0.220195  0  3.999437  0  0  -0.227087  0  4.018298  0  0  -0.105842  -0.215709  0  3.986824  0
C  C37  1  0.24837766  0.34597607  0.68032118  1  0  -0.201326  0  3.741788  0  0  -0.221332  0  4.001701  0  0  -0.228313  0  4.020528  0  0  -0.106139  -0.216798  0  3.989151  0
C  C38  1  0.84740386  0.44899273  0.81274556  1  0  -0.059056  0  3.726348  0  0  -0.082997  0  3.978611  0  0  -0.081124  0  3.997088  0  0  -0.082476  -0.083967  0  3.966044  0
C  C39  1  0.65254011  0.63608776  0.18729705  1  0  -0.056576  0  3.725766  0  0  -0.080963  0  3.977943  0  0  -0.079101  0  3.996432  0  0  -0.081905  -0.081952  0  3.96537  0
C  C40  1  0.15258908  0.55101008  0.18726309  1  0  -0.058945  0  3.726559  0  0  -0.082885  0  3.978714  0  0  -0.08102  0  3.997186  0  0  -0.08242  -0.083855  0  3.966154  0
C  C41  1  0.34744761  0.36390735  0.81268605  1  0  -0.056489  0  3.725768  0  0  -0.080775  0  3.977874  0  0  -0.078921  0  3.996356  0  0  -0.081748  -0.081769  0  3.965297  0
C  C42  1  0.94700496  0.43907329  0.92992125  1  0  0.033732  0  3.792416  0  0  0.049157  0  4.026669  0  0  0.046337  0  4.052392  0  0  -0.013421  0.050868  0  4.009173  0
C  C43  1  0.55301841  0.50907378  0.07004242  1  0  0.032676  0  3.793692  0  0  0.048603  0  4.027177  0  0  0.045764  0  4.05296  0  0  -0.01363  0.050316  0  4.009658  0
C  C44  1  0.05300431  0.56092660  0.07008724  1  0  0.03343  0  3.792656  0  0  0.049106  0  4.02666  0  0  0.046283  0  4.052386  0  0  -0.013494  0.050804  0  4.009182  0
C  C45  1  0.44696794  0.49092066  0.92994590  1  0  0.03242  0  3.79392  0  0  0.048269  0  4.027469  0  0  0.045426  0  4.05326  0  0  -0.013816  0.049985  0  4.009946  0
C  C46  1  0.94206248  0.30820551  0.90841656  1  0  -0.082129  0  3.735837  0  0  -0.117794  0  3.990448  0  0  -0.116132  0  4.010496  0  0  -0.082016  -0.118486  0  3.976564  0
C  C47  1  0.55794376  0.39962570  0.09145304  1  0  -0.082973  0  3.735568  0  0  -0.118322  0  3.990467  0  0  -0.116683  0  4.010573  0  0  -0.081849  -0.118981  0  3.976554  0
C  C48  1  0.05795359  0.69179478  0.09158229  1  0  -0.082053  0  3.735793  0  0  -0.117704  0  3.990363  0  0  -0.116032  0  4.010393  0  0  -0.082075  -0.118397  0  3.976483  0
C  C49  1  0.44204176  0.60037262  0.90854872  1  0  -0.082884  0  3.73555  0  0  -0.118214  0  3.990473  0  0  -0.116583  0  4.010581  0  0  -0.081827  -0.118869  0  3.97656  0
S  S50  1  0.84676595  0.02825011  0.75069429  1  0  1.359802  0  5.539377  0  0  1.256593  0  6.057734  0  0  1.305748  0  6.033547  0  0  0.542026  1.222613  0  6.073492  0
S  S51  1  0.65286732  0.27724085  0.24912873  1  0  1.360121  0  5.539692  0  0  1.256841  0  6.058388  0  0  1.306038  0  6.034088  0  0  0.542527  1.222842  0  6.074201  0
S  S52  1  0.15324154  0.97174710  0.24930404  1  0  1.359959  0  5.539275  0  0  1.256763  0  6.057631  0  0  1.305924  0  6.033432  0  0  0.54203  1.222779  0  6.073395  0
S  S53  1  0.34713244  0.72276313  0.75086690  1  0  1.360096  0  5.539412  0  0  1.256801  0  6.058109  0  0  1.306011  0  6.033797  0  0  0.54243  1.222804  0  6.073926  0
O  O54  1  0.68411796  0.93868140  0.19973153  1  0  -0.886254  0  1.820839  0  0  -0.832849  0  2.011368  0  0  -0.853523  0  1.979878  0  0  -0.626242  -0.817812  0  2.033407  0
O  O55  1  0.81627476  0.73926636  0.80038289  1  0  -0.887305  0  1.821052  0  0  -0.834014  0  2.011072  0  0  -0.854655  0  1.979549  0  0  -0.626628  -0.819  0  2.033111  0
O  O56  1  0.31588892  0.06132325  0.80027364  1  0  -0.886182  0  1.820918  0  0  -0.832777  0  2.011413  0  0  -0.853453  0  1.979919  0  0  -0.626207  -0.817749  0  2.033435  0
O  O57  1  0.18373547  0.26073004  0.19961809  1  0  -0.887062  0  1.821294  0  0  -0.833795  0  2.011342  0  0  -0.854439  0  1.979827  0  0  -0.626582  -0.818781  0  2.033376  0
O  O58  1  0.94027200  0.05532024  0.90270105  1  0  -0.828955  0  2.004239  0  0  -0.757028  0  2.280288  0  0  -0.783286  0  2.266049  0  0  -0.430163  -0.737946  0  2.2896  0
O  O59  1  0.55957990  0.15243662  0.09699223  1  0  -0.82813  0  2.003894  0  0  -0.75624  0  2.279996  0  0  -0.782471  0  2.26569  0  0  -0.429885  -0.737186  0  2.289356  0
O  O60  1  0.05972746  0.94467921  0.09730159  1  0  -0.828901  0  2.004294  0  0  -0.756983  0  2.280366  0  0  -0.783244  0  2.266127  0  0  -0.430128  -0.737904  0  2.289679  0
O  O61  1  0.44042629  0.84756155  0.90300555  1  0  -0.828195  0  2.003908  0  0  -0.756265  0  2.279976  0  0  -0.782505  0  2.265674  0  0  -0.429875  -0.73721  0  2.289338  0
O  O62  1  0.65443899  0.96870038  0.72176390  1  0  -0.703586  0  1.983877  0  0  -0.648364  0  2.237057  0  0  -0.669633  0  2.220782  0  0  -0.318313  -0.633211  0  2.247563  0
O  O63  1  0.84527096  0.24665659  0.27813260  1  0  -0.704686  0  1.984501  0  0  -0.64901  0  2.237424  0  0  -0.670222  0  2.22108  0  0  -0.318586  -0.63385  0  2.24796  0
O  O64  1  0.34556830  0.03129405  0.27823765  1  0  -0.703699  0  1.983922  0  0  -0.648465  0  2.237113  0  0  -0.669734  0  2.220835  0  0  -0.318345  -0.633305  0  2.24761  0
O  O65  1  0.15473217  0.75335357  0.72186574  1  0  -0.704618  0  1.9844  0  0  -0.648905  0  2.23731  0  0  -0.670133  0  2.220973  0  0  -0.31846  -0.633743  0  2.247848  0
O  O66  1  0.95379939  0.94390508  0.62837087  1  0  -0.622695  0  1.940329  0  0  -0.568378  0  2.17673  0  0  -0.589574  0  2.162954  0  0  -0.306493  -0.553595  0  2.185739  0
O  O67  1  0.54574707  0.31509767  0.37134819  1  0  -0.62318  0  1.941304  0  0  -0.568578  0  2.177772  0  0  -0.589856  0  2.164015  0  0  -0.306766  -0.553754  0  2.186772  0
O  O68  1  0.04620591  0.05608312  0.37162712  1  0  -0.622783  0  1.940212  0  0  -0.568475  0  2.176646  0  0  -0.589681  0  2.162874  0  0  -0.306527  -0.553692  0  2.185657  0
O  O69  1  0.45426768  0.68490280  0.62865350  1  0  -0.623189  0  1.941157  0  0  -0.568616  0  2.177653  0  0  -0.589902  0  2.163903  0  0  -0.306782  -0.553791  0  2.186653  0
O  O70  1  0.64785271  0.08946188  0.53281489  1  0  -0.516857  0  2.155316  0  0  -0.46779  0  2.375178  0  0  -0.48459  0  2.364545  0  0  -0.348472  -0.455899  0  2.382363  0
O  O71  1  0.85149222  0.55635406  0.46733547  1  0  -0.517583  0  2.155472  0  0  -0.46798  0  2.374502  0  0  -0.484877  0  2.363998  0  0  -0.347685  -0.456025  0  2.381736  0
O  O72  1  0.35215123  0.91054150  0.46718649  1  0  -0.516876  0  2.155271  0  0  -0.467805  0  2.375135  0  0  -0.484603  0  2.364504  0  0  -0.348496  -0.455914  0  2.382323  0
O  O73  1  0.14850219  0.44365264  0.53265642  1  0  -0.517612  0  2.155455  0  0  -0.468005  0  2.374446  0  0  -0.484898  0  2.363943  0  0  -0.347632  -0.456057  0  2.381664  0
