# generated using pymatgen
data_ZnH12C20N6O5
_symmetry_space_group_name_H-M   'P 1'
_cell_length_a   6.78795757
_cell_length_b   7.46888828
_cell_length_c   17.24973323
_cell_angle_alpha   94.12269966
_cell_angle_beta   96.59148602
_cell_angle_gamma   96.64085196
_symmetry_Int_Tables_number   1
_chemical_formula_structural   ZnH12C20N6O5
_chemical_formula_sum   'Zn2 H24 C40 N12 O10'
_cell_volume   859.70546092
_cell_formula_units_Z   2
loop_
 _symmetry_equiv_pos_site_id
 _symmetry_equiv_pos_as_xyz
  1  'x, y, z'
loop_
 _atom_site_type_symbol
 _atom_site_label
 _atom_site_symmetry_multiplicity
 _atom_site_fract_x
 _atom_site_fract_y
 _atom_site_fract_z
 _atom_site_occupancy
 _atom_site_hle17_bader_spin_density
 _atom_site_hle17_ddec_charge
 _atom_site_hle17_ddec_spin_density
 _atom_site_hle17_ddec_sum_bond_order
 _atom_site_hle17_magmom
 _atom_site_hse06_10hf_bader_spin_density
 _atom_site_hse06_10hf_ddec_charge
 _atom_site_hse06_10hf_ddec_spin_density
 _atom_site_hse06_10hf_ddec_sum_bond_order
 _atom_site_hse06_10hf_magmom
 _atom_site_hse06_bader_spin_density
 _atom_site_hse06_ddec_charge
 _atom_site_hse06_ddec_spin_density
 _atom_site_hse06_ddec_sum_bond_order
 _atom_site_hse06_magmom
 _atom_site_pbe_bader_spin_density
 _atom_site_pbe_cm5_charge
 _atom_site_pbe_ddec_charge
 _atom_site_pbe_ddec_spin_density
 _atom_site_pbe_ddec_sum_bond_order
 _atom_site_pbe_magmom
Zn  Zn0  1  0.53849755  0.43614158  0.66398564  1  0  1.007315  0  1.863062  0  0  0.82551  0  2.309751  0  0  0.870207  0  2.260569  0  0  0.690362  0.794489  0  2.343379  0
Zn  Zn1  1  0.46150030  0.56386207  0.33601412  1  0  1.007273  0  1.863078  0  0  0.825452  0  2.309746  0  0  0.870146  0  2.260566  0  0  0.690353  0.794432  0  2.343339  0
H  H2  1  0.08966522  0.27818792  0.69138761  1  0  0.077684  0  0.931347  0  0  0.08714  0  0.993368  0  0  0.089213  0  0.99136  0  0  0.11944  0.085546  0  0.994965  0
H  H3  1  0.91033006  0.72181845  0.30861271  1  0  0.077708  0  0.931327  0  0  0.087196  0  0.993322  0  0  0.08925  0  0.991336  0  0  0.119448  0.085599  0  0.994919  0
H  H4  1  0.89178640  0.27292309  0.80264306  1  0  0.117013  0  0.982022  0  0  0.125251  0  1.043038  0  0  0.128946  0  1.041446  0  0  0.106915  0.122505  0  1.044527  0
H  H5  1  0.10821239  0.72707650  0.19735777  1  0  0.116985  0  0.982037  0  0  0.125222  0  1.043051  0  0  0.128916  0  1.041461  0  0  0.106887  0.122474  0  1.044535  0
H  H6  1  0.03456257  0.45672065  0.93059292  1  0  0.108928  0  0.955443  0  0  0.109887  0  1.033866  0  0  0.114329  0  1.028998  0  0  0.109263  0.1067  0  1.037235  0
H  H7  1  0.96543515  0.54328165  0.06940911  1  0  0.10895  0  0.955434  0  0  0.109889  0  1.033885  0  0  0.114335  0  1.029008  0  0  0.10926  0.106702  0  1.037253  0
H  H8  1  0.32306701  0.77965132  0.13459244  1  0  0.085152  0  0.966651  0  0  0.090966  0  1.03347  0  0  0.094419  0  1.030744  0  0  0.113052  0.088391  0  1.035627  0
H  H9  1  0.67693402  0.22034285  0.86540947  1  0  0.085179  0  0.966577  0  0  0.090977  0  1.033434  0  0  0.094421  0  1.03073  0  0  0.113059  0.088416  0  1.035539  0
H  H10  1  0.64766925  0.96141595  0.13426604  1  0  0.085061  0  0.973313  0  0  0.090217  0  1.040989  0  0  0.093649  0  1.038409  0  0  0.112001  0.0877  0  1.042915  0
H  H11  1  0.35233938  0.03856874  0.86573763  1  0  0.085052  0  0.973331  0  0  0.09017  0  1.041039  0  0  0.093594  0  1.03847  0  0  0.111967  0.087668  0  1.042937  0
H  H12  1  0.94982127  0.95755167  0.93100751  1  0  0.107382  0  0.955475  0  0  0.108349  0  1.032942  0  0  0.11273  0  1.028258  0  0  0.109322  0.105175  0  1.036295  0
H  H13  1  0.05018478  0.04243573  0.06899614  1  0  0.107394  0  0.955427  0  0  0.108395  0  1.032881  0  0  0.112777  0  1.028194  0  0  0.10933  0.105225  0  1.036228  0
H  H14  1  0.10078460  0.93583032  0.80343327  1  0  0.108517  0  0.981561  0  0  0.116448  0  1.043916  0  0  0.119601  0  1.043308  0  0  0.106054  0.114142  0  1.044617  0
H  H15  1  0.89921848  0.06416791  0.19656886  1  0  0.108544  0  0.981602  0  0  0.116465  0  1.043968  0  0  0.119619  0  1.043357  0  0  0.106073  0.114162  0  1.044661  0
H  H16  1  0.94163484  0.71149433  0.69669575  1  0  0.087961  0  0.968506  0  0  0.096326  0  1.032958  0  0  0.098784  0  1.030775  0  0  0.118613  0.094446  0  1.034618  0
H  H17  1  0.05836135  0.28850798  0.30330449  1  0  0.087942  0  0.968493  0  0  0.096303  0  1.032947  0  0  0.098762  0  1.030762  0  0  0.118609  0.094428  0  1.034603  0
H  H18  1  0.28054672  0.36516707  0.49332125  1  0  0.113395  0  0.947287  0  0  0.117998  0  1.012821  0  0  0.122247  0  1.00865  0  0  0.125581  0.114783  0  1.016071  0
H  H19  1  0.71945299  0.63483928  0.50667867  1  0  0.113385  0  0.947225  0  0  0.117994  0  1.012763  0  0  0.12224  0  1.008597  0  0  0.125559  0.114777  0  1.016014  0
H  H20  1  0.17234885  0.07915559  0.40280110  1  0  0.094908  0  0.916773  0  0  0.10376  0  0.978572  0  0  0.107402  0  0.975628  0  0  0.123971  0.10098  0  0.980959  0
H  H21  1  0.82765100  0.92085211  0.59719713  1  0  0.094873  0  0.91676  0  0  0.103735  0  0.978546  0  0  0.107378  0  0.975601  0  0  0.123946  0.100955  0  0.980937  0
H  H22  1  0.78764506  0.29370131  0.56810698  1  0  0.386454  0  0.933791  0  0  0.343376  0  1.018512  0  0  0.354422  0  1.002683  0  0  0.280563  0.33564  0  1.029576  0
H  H23  1  0.21235352  0.70630775  0.43189182  1  0  0.386414  0  0.93381  0  0  0.343324  0  1.018579  0  0  0.35437  0  1.002751  0  0  0.280549  0.335588  0  1.029642  0
H  H24  1  0.91028203  0.48717927  0.60095217  1  0  0.438182  0  0.863182  0  0  0.406468  0  0.928454  0  0  0.41736  0  0.912469  0  0  0.294955  0.39877  0  0.939723  0
H  H25  1  0.08971429  0.51282438  0.39904579  1  0  0.43818  0  0.86318  0  0  0.406459  0  0.928466  0  0  0.417351  0  0.912481  0  0  0.294952  0.398753  0  0.939749  0
C  C26  1  0.14991219  0.35335898  0.74720770  1  0  0.159963  0  3.679324  0  0  0.124911  0  3.939666  0  0  0.132463  0  3.956279  0  0  0.062043  0.120093  0  3.928385  0
C  C27  1  0.85008401  0.64664333  0.25279312  1  0  0.159991  0  3.679306  0  0  0.124893  0  3.939661  0  0  0.132458  0  3.956273  0  0  0.062079  0.12007  0  3.928375  0
C  C28  1  0.03878831  0.35194582  0.81075398  1  0  -0.115573  0  3.699313  0  0  -0.128024  0  3.952944  0  0  -0.135553  0  3.974748  0  0  -0.081125  -0.12317  0  3.938348  0
C  C29  1  0.96120919  0.64805513  0.18924684  1  0  -0.115583  0  3.699312  0  0  -0.128025  0  3.952935  0  0  -0.135554  0  3.974734  0  0  -0.081121  -0.123164  0  3.938328  0
C  C30  1  0.11730367  0.45360731  0.88004105  1  0  -0.020912  0  3.663409  0  0  -0.0496  0  3.918282  0  0  -0.046426  0  3.935551  0  0  -0.059843  -0.05134  0  3.906446  0
C  C31  1  0.88269493  0.54639093  0.11995974  1  0  -0.020977  0  3.663529  0  0  -0.049655  0  3.918376  0  0  -0.046483  0  3.935648  0  0  -0.05988  -0.051393  0  3.906533  0
C  C32  1  0.30759658  0.55448028  0.88467792  1  0  -0.037932  0  3.744819  0  0  -0.026377  0  3.976263  0  0  -0.031188  0  4.001099  0  0  0.003766  -0.023305  0  3.959698  0
C  C33  1  0.69240369  0.44551931  0.11532297  1  0  -0.037855  0  3.744803  0  0  -0.026279  0  3.976171  0  0  -0.031084  0  4.001011  0  0  0.003835  -0.023206  0  3.959613  0
C  C34  1  0.40204744  0.66538716  0.95473240  1  0  0.12759  0  3.759459  0  0  0.122585  0  4.00711  0  0  0.125123  0  4.028634  0  0  0.120418  0.120746  0  3.992667  0
C  C35  1  0.59795486  0.33460566  0.04526895  1  0  0.12769  0  3.759404  0  0  0.122693  0  4.007068  0  0  0.12523  0  4.028592  0  0  0.120423  0.120852  0  3.992632  0
C  C36  1  0.39508821  0.77415326  0.08130042  1  0  0.086243  0  3.691208  0  0  0.05821  0  3.960455  0  0  0.060892  0  3.975674  0  0  0.052578  0.056349  0  3.950197  0
C  C37  1  0.60491243  0.22583821  0.91870139  1  0  0.086164  0  3.691271  0  0  0.058122  0  3.960478  0  0  0.060803  0  3.975691  0  0  0.05253  0.056275  0  3.950217  0
C  C38  1  0.58322802  0.87532490  0.08161422  1  0  0.080259  0  3.705099  0  0  0.052953  0  3.97101  0  0  0.055748  0  3.987309  0  0  0.050083  0.051113  0  3.959995  0
C  C39  1  0.41677652  0.12466250  0.91838821  1  0  0.080197  0  3.705359  0  0  0.05297  0  3.971207  0  0  0.05577  0  3.987503  0  0  0.050167  0.051122  0  3.960201  0
C  C40  1  0.59393390  0.76502515  0.95548739  1  0  0.122145  0  3.767133  0  0  0.118764  0  4.01282  0  0  0.121512  0  4.03431  0  0  0.120669  0.116882  0  3.998387  0
C  C41  1  0.40606933  0.23496361  0.04451444  1  0  0.122209  0  3.767071  0  0  0.118738  0  4.012843  0  0  0.121485  0  4.034337  0  0  0.120733  0.116856  0  3.99841  0
C  C42  1  0.69649166  0.75835230  0.88600334  1  0  -0.030352  0  3.733095  0  0  -0.019466  0  3.966773  0  0  -0.024127  0  3.990114  0  0  0.008104  -0.01692  0  3.951721  0
C  C43  1  0.30351177  0.24163781  0.11399912  1  0  -0.030422  0  3.733243  0  0  -0.019432  0  3.966853  0  0  -0.024081  0  3.990167  0  0  0.008138  -0.016885  0  3.951808  0
C  C44  1  0.87830997  0.86615399  0.88099779  1  0  -0.011658  0  3.643052  0  0  -0.038568  0  3.895086  0  0  -0.035144  0  3.910968  0  0  -0.052248  -0.040484  0  3.884259  0
C  C45  1  0.12169327  0.13383477  0.11900463  1  0  -0.011657  0  3.643128  0  0  -0.03862  0  3.895125  0  0  -0.0352  0  3.911019  0  0  -0.052279  -0.04053  0  3.884295  0
C  C46  1  0.96253889  0.85438682  0.81167585  1  0  -0.107706  0  3.697213  0  0  -0.120726  0  3.949319  0  0  -0.128054  0  3.970758  0  0  -0.078687  -0.116113  0  3.935121  0
C  C47  1  0.03746379  0.14560870  0.18832560  1  0  -0.107806  0  3.697414  0  0  -0.120842  0  3.949554  0  0  -0.128172  0  3.970995  0  0  -0.078727  -0.116235  0  3.935359  0
C  C48  1  0.87093572  0.72957002  0.74995993  1  0  0.157379  0  3.654967  0  0  0.123343  0  3.906825  0  0  0.131033  0  3.923885  0  0  0.062978  0.11844  0  3.895248  0
C  C49  1  0.12906268  0.27042686  0.25004022  1  0  0.157445  0  3.654896  0  0  0.123438  0  3.906727  0  0  0.13113  0  3.923783  0  0  0.06298  0.118532  0  3.895156  0
C  C50  1  0.60787409  0.64466699  0.81924169  1  0  0.160255  0  3.732857  0  0  0.146152  0  3.977463  0  0  0.15235  0  3.99683  0  0  0.129326  0.142022  0  3.964433  0
C  C51  1  0.39212580  0.35532990  0.18075911  1  0  0.160275  0  3.732992  0  0  0.14611  0  3.97762  0  0  0.152313  0  3.996994  0  0  0.129364  0.141974  0  3.964597  0
C  C52  1  0.41058187  0.54485825  0.81813566  1  0  0.153975  0  3.741005  0  0  0.144622  0  3.981548  0  0  0.150036  0  4.001216  0  0  0.128203  0.14099  0  3.968409  0
C  C53  1  0.58941859  0.45514269  0.18186528  1  0  0.153832  0  3.740901  0  0  0.144491  0  3.981442  0  0  0.149885  0  4.001134  0  0  0.128094  0.140858  0  3.968305  0
C  C54  1  0.28545328  0.23117124  0.51386596  1  0  0.112734  0  3.617544  0  0  0.075903  0  3.884317  0  0  0.082058  0  3.89506  0  0  0.060163  0.071271  0  3.877759  0
C  C55  1  0.71454979  0.76883781  0.48613476  1  0  0.112686  0  3.61755  0  0  0.07579  0  3.884337  0  0  0.081942  0  3.895084  0  0  0.060162  0.071161  0  3.877772  0
C  C56  1  0.22297652  0.07316128  0.46474896  1  0  0.102145  0  3.663264  0  0  0.065091  0  3.938777  0  0  0.068962  0  3.951187  0  0  0.058367  0.062406  0  3.930776  0
C  C57  1  0.77702648  0.92684777  0.53524944  1  0  0.10221  0  3.66342  0  0  0.065146  0  3.938947  0  0  0.069013  0  3.951364  0  0  0.058387  0.062459  0  3.930949  0
C  C58  1  0.29142168  0.89894444  0.56744570  1  0  0.06972  0  3.673468  0  0  0.066422  0  3.923294  0  0  0.06714  0  3.937967  0  0  0.127875  0.065287  0  3.914245  0
C  C59  1  0.70858390  0.10106190  0.43255215  1  0  0.069453  0  3.673766  0  0  0.066335  0  3.923351  0  0  0.067056  0  3.938022  0  0  0.127804  0.065197  0  3.914307  0
C  C60  1  0.36711111  0.05630884  0.61599468  1  0  0.040578  0  3.689269  0  0  0.036704  0  3.932781  0  0  0.036287  0  3.949898  0  0  0.115912  0.036393  0  3.922022  0
C  C61  1  0.63288981  0.94369616  0.38400177  1  0  0.040837  0  3.689386  0  0  0.036864  0  3.93285  0  0  0.036452  0  3.949961  0  0  0.11601  0.03656  0  3.922077  0
C  C62  1  0.46230970  0.05617483  0.70029834  1  0  0.607052  0  3.984426  0  0  0.55771  0  4.291527  0  0  0.590157  0  4.284794  0  0  0.194008  0.535797  0  4.295108  0
C  C63  1  0.53768921  0.94382611  0.29969964  1  0  0.60686  0  3.984639  0  0  0.557474  0  4.291831  0  0  0.589916  0  4.285101  0  0  0.193917  0.535551  0  4.29542  0
C  C64  1  0.28427615  0.71032493  0.59509877  1  0  0.665374  0  3.932453  0  0  0.604989  0  4.245911  0  0  0.641385  0  4.232916  0  0  0.219408  0.580092  0  4.254032  0
C  C65  1  0.71572326  0.28968007  0.40489704  1  0  0.665357  0  3.932573  0  0  0.604918  0  4.245999  0  0  0.641313  0  4.233005  0  0  0.219427  0.580016  0  4.254124  0
N  N66  1  0.33060852  0.44636605  0.75091684  1  0  -0.335954  0  3.275177  0  0  -0.267793  0  3.539357  0  0  -0.284794  0  3.5558  0  0  -0.310477  -0.256407  0  3.528256  0
N  N67  1  0.66938677  0.55364032  0.24908406  1  0  -0.335846  0  3.275037  0  0  -0.267681  0  3.539213  0  0  -0.284673  0  3.555652  0  0  -0.310403  -0.256288  0  3.528099  0
N  N68  1  0.69893333  0.62650946  0.75386114  1  0  -0.331528  0  3.257054  0  0  -0.256711  0  3.519708  0  0  -0.275221  0  3.536606  0  0  -0.310568  -0.24416  0  3.508196  0
N  N69  1  0.30106564  0.37349149  0.24613916  1  0  -0.331506  0  3.257001  0  0  -0.2567  0  3.519692  0  0  -0.275207  0  3.536584  0  0  -0.310575  -0.244141  0  3.508174  0
N  N70  1  0.30404038  0.67018618  0.01875992  1  0  -0.293048  0  3.042093  0  0  -0.261119  0  3.311397  0  0  -0.269429  0  3.326703  0  0  -0.297688  -0.255182  0  3.30088  0
N  N71  1  0.69595972  0.32981206  0.98124150  1  0  -0.293067  0  3.042154  0  0  -0.261136  0  3.311442  0  0  -0.269441  0  3.326746  0  0  -0.297676  -0.255203  0  3.300925  0
N  N72  1  0.68339962  0.87054523  0.01989545  1  0  -0.294959  0  3.060598  0  0  -0.26005  0  3.323484  0  0  -0.269305  0  3.340401  0  0  -0.295662  -0.253535  0  3.311888  0
N  N73  1  0.31660770  0.12944081  0.98010762  1  0  -0.294922  0  3.060744  0  0  -0.260019  0  3.323631  0  0  -0.269273  0  3.340547  0  0  -0.295777  -0.253504  0  3.312037  0
N  N74  1  0.36335558  0.21969460  0.58791021  1  0  -0.285982  0  3.270511  0  0  -0.218554  0  3.534797  0  0  -0.230654  0  3.548576  0  0  -0.301142  -0.210362  0  3.525975  0
N  N75  1  0.63664555  0.78031175  0.41208745  1  0  -0.286016  0  3.270633  0  0  -0.218464  0  3.534812  0  0  -0.230561  0  3.548587  0  0  -0.301152  -0.210269  0  3.525967  0
N  N76  1  0.22690511  0.90937636  0.49109386  1  0  -0.288952  0  3.143406  0  0  -0.238381  0  3.393569  0  0  -0.247656  0  3.408694  0  0  -0.285885  -0.232083  0  3.383714  0
N  N77  1  0.77309769  0.09063135  0.50890392  1  0  -0.288876  0  3.143499  0  0  -0.238342  0  3.393573  0  0  -0.247619  0  3.4087  0  0  -0.285874  -0.232054  0  3.383734  0
O  O78  1  0.60057223  0.18730077  0.72294438  1  0  -0.642241  0  2.000009  0  0  -0.587592  0  2.251721  0  0  -0.614312  0  2.241954  0  0  -0.32765  -0.568523  0  2.25756  0
O  O79  1  0.39942729  0.81270423  0.27705549  1  0  -0.642182  0  2.000212  0  0  -0.587537  0  2.251953  0  0  -0.61425  0  2.242186  0  0  -0.327645  -0.568466  0  2.257797  0
O  O80  1  0.39568903  0.93244660  0.73910486  1  0  -0.583903  0  1.91528  0  0  -0.543552  0  2.137503  0  0  -0.566399  0  2.132813  0  0  -0.317984  -0.52711  0  2.139927  0
O  O81  1  0.60430815  0.06755299  0.26089127  1  0  -0.58385  0  1.915212  0  0  -0.543469  0  2.137454  0  0  -0.566338  0  2.132812  0  0  -0.317946  -0.52702  0  2.139876  0
O  O82  1  0.77779366  0.41327849  0.59674733  1  0  -0.829521  0  1.942446  0  0  -0.764434  0  2.166569  0  0  -0.784349  0  2.130103  0  0  -0.583071  -0.750226  0  2.191693  0
O  O83  1  0.22220569  0.58672516  0.40325307  1  0  -0.829498  0  1.942456  0  0  -0.764386  0  2.166591  0  0  -0.784315  0  2.130156  0  0  -0.583077  -0.750179  0  2.19172  0
O  O84  1  0.11571671  0.63448767  0.60548393  1  0  -0.627485  0  1.995993  0  0  -0.578377  0  2.232985  0  0  -0.604661  0  2.222512  0  0  -0.312735  -0.559354  0  2.239379  0
O  O85  1  0.88427702  0.36552004  0.39450652  1  0  -0.627436  0  1.996152  0  0  -0.578352  0  2.233215  0  0  -0.604635  0  2.222747  0  0  -0.312705  -0.559328  0  2.239607  0
O  O86  1  0.45082669  0.64723885  0.60101973  1  0  -0.625637  0  2.076682  0  0  -0.560701  0  2.348865  0  0  -0.591135  0  2.337878  0  0  -0.309215  -0.538858  0  2.355485  0
O  O87  1  0.54917097  0.35276345  0.39897999  1  0  -0.62561  0  2.076719  0  0  -0.560656  0  2.348874  0  0  -0.591087  0  2.337886  0  0  -0.30922  -0.53881  0  2.355489  0
