# generated using pymatgen
data_CoPH6C6NO3
_symmetry_space_group_name_H-M   'P 1'
_cell_length_a   8.66976922
_cell_length_b   8.77091444
_cell_length_c   10.14832758
_cell_angle_alpha   90.00000626
_cell_angle_beta   111.57648708
_cell_angle_gamma   90.00006782
_symmetry_Int_Tables_number   1
_chemical_formula_structural   CoPH6C6NO3
_chemical_formula_sum   'Co4 P4 H24 C24 N4 O12'
_cell_volume   717.62237268
_cell_formula_units_Z   4
loop_
 _symmetry_equiv_pos_site_id
 _symmetry_equiv_pos_as_xyz
  1  'x, y, z'
loop_
 _atom_site_type_symbol
 _atom_site_label
 _atom_site_symmetry_multiplicity
 _atom_site_fract_x
 _atom_site_fract_y
 _atom_site_fract_z
 _atom_site_occupancy
 _atom_site_hle17_ddec_charge
 _atom_site_hle17_ddec_spin_density
 _atom_site_hle17_ddec_sum_bond_order
 _atom_site_hle17_magmom
 _atom_site_hse06_10hf_ddec_charge
 _atom_site_hse06_10hf_ddec_spin_density
 _atom_site_hse06_10hf_ddec_sum_bond_order
 _atom_site_hse06_10hf_magmom
 _atom_site_hse06_ddec_charge
 _atom_site_hse06_ddec_spin_density
 _atom_site_hse06_ddec_sum_bond_order
 _atom_site_hse06_magmom
 _atom_site_pbe_cm5_charge
 _atom_site_pbe_ddec_charge
 _atom_site_pbe_ddec_spin_density
 _atom_site_pbe_ddec_sum_bond_order
 _atom_site_pbe_magmom
Co  Co0  1  0.62046344  0.18063267  0.94911595  1  1.101593  -2.832886  1.940788  -2.554  1.056887  -2.832196  2.379685  -2.61  1.133368  -2.871415  2.30596  -2.689  0.692906  0.988477  -2.79777  2.445608  -2.538
Co  Co1  1  0.37953432  0.68063510  0.55088225  1  1.101609  -2.832894  1.940653  -2.554  1.056927  -2.832206  2.379525  -2.61  1.133398  -2.871422  2.305812  -2.689  0.692921  0.988519  -2.797789  2.445436  -2.538
Co  Co2  1  0.37953547  0.81936405  0.05088382  1  1.101577  -2.832891  1.940702  -2.554  1.056875  -2.832198  2.379599  -2.61  1.133362  -2.871419  2.305876  -2.689  0.692892  0.988475  -2.797789  2.445508  -2.538
Co  Co3  1  0.62046458  0.31936618  0.44911653  1  1.101588  -2.832894  1.940749  -2.554  1.056894  -2.832204  2.379643  -2.61  1.133376  -2.871421  2.305927  -2.689  0.692914  0.98849  -2.797793  2.445556  -2.538
P  P4  1  0.41053448  0.15375161  0.15789469  1  1.502549  -0.009884  4.857609  -0.007  1.367217  -0.015273  5.361037  -0.012  1.420846  -0.011277  5.328006  -0.01  0.348052  1.327749  -0.018903  5.378506  -0.014
P  P5  1  0.58946782  0.65375318  0.34210733  1  1.502549  -0.009883  4.857593  -0.007  1.367237  -0.015273  5.361038  -0.012  1.420868  -0.011279  5.328  -0.01  0.348089  1.32777  -0.018903  5.378503  -0.014
P  P6  1  0.58946567  0.84624739  0.84210546  1  1.502549  -0.009882  4.857428  -0.007  1.367218  -0.015273  5.360867  -0.012  1.420851  -0.011278  5.32783  -0.01  0.348115  1.327747  -0.018903  5.378332  -0.014
P  P7  1  0.41053606  0.34624810  0.65789596  1  1.502536  -0.009884  4.857645  -0.007  1.367194  -0.015274  5.361085  -0.012  1.420828  -0.011278  5.32805  -0.01  0.348046  1.327722  -0.018903  5.378548  -0.014
H  H8  1  0.96088946  0.18088369  0.93296312  1  0.082937  -0.000493  0.967822  -0.002  0.090308  -0.00046  1.036685  -0.001  0.092192  -0.000308  1.035377  -0.001  0.115147  0.088859  -0.000596  1.037951  -0.002
H  H9  1  0.03910831  0.68088687  0.56703507  1  0.082951  -0.000494  0.967777  -0.002  0.090332  -0.00046  1.036648  -0.001  0.092219  -0.000308  1.035329  -0.001  0.115145  0.088881  -0.000596  1.037911  -0.002
H  H10  1  0.03910945  0.81911188  0.06703763  1  0.082913  -0.000493  0.967821  -0.002  0.090296  -0.00046  1.036682  -0.001  0.092184  -0.000308  1.035364  -0.001  0.115117  0.088849  -0.000596  1.037949  -0.002
H  H11  1  0.96089308  0.31911440  0.43296350  1  0.082946  -0.000493  0.967724  -0.002  0.090349  -0.00046  1.036568  -0.001  0.092233  -0.000308  1.035261  -0.001  0.115169  0.088898  -0.000596  1.037834  -0.002
H  H12  1  0.24153844  0.27273915  0.94215141  1  0.142639  0.000235  0.948743  0.0  0.154423  0.00015  1.009577  0.0  0.15583  0.000187  1.011029  0.0  0.108418  0.153465  4.9e-05  1.008571  0.0
H  H13  1  0.75846071  0.77274316  0.55784821  1  0.142619  0.000236  0.948778  0.0  0.154435  0.00015  1.009592  0.0  0.155844  0.000187  1.011038  0.0  0.10844  0.153478  4.9e-05  1.008587  0.0
H  H14  1  0.75845923  0.72725985  0.05784600  1  0.142659  0.000236  0.948758  0.0  0.154448  0.00015  1.009583  0.0  0.155859  0.000187  1.011033  0.0  0.108451  0.153493  4.9e-05  1.00858  0.0
H  H15  1  0.24153945  0.22725925  0.44215195  1  0.142632  0.000236  0.948799  0.0  0.154428  0.00015  1.00961  0.0  0.155837  0.000186  1.011062  0.0  0.10844  0.153471  4.9e-05  1.008606  0.0
H  H16  1  0.35229943  0.40739445  0.07231036  1  0.147165  -9.8e-05  0.928134  -0.001  0.1609  -9.8e-05  0.984151  -0.001  0.162371  4.3e-05  0.984613  0.0  0.114398  0.159817  -0.000217  0.98378  -0.001
H  H17  1  0.64769951  0.90739610  0.42768867  1  0.147115  -9.9e-05  0.928166  -0.001  0.160903  -9.8e-05  0.984136  -0.001  0.16234  4.3e-05  0.984654  0.0  0.114383  0.159821  -0.000217  0.983769  -0.001
H  H18  1  0.64769948  0.59260227  0.92768743  1  0.147153  -9.8e-05  0.928132  -0.001  0.160912  -9.8e-05  0.984107  -0.001  0.162359  4.3e-05  0.984614  0.0  0.114377  0.159827  -0.000217  0.983736  -0.001
H  H19  1  0.35230064  0.09260518  0.57231149  1  0.147189  -9.8e-05  0.928124  -0.001  0.160919  -9.8e-05  0.984129  -0.001  0.162389  4.3e-05  0.984609  0.0  0.114396  0.159837  -0.000217  0.98376  -0.001
H  H20  1  0.73022327  0.40438131  0.17127207  1  0.096849  -0.000612  0.951496  -0.002  0.102836  -0.000653  1.017342  -0.001  0.106405  -0.000397  1.013629  -0.001  0.120243  0.099707  -0.000883  1.020614  -0.002
H  H21  1  0.26977441  0.90438478  0.32872558  1  0.096855  -0.000613  0.951524  -0.002  0.102843  -0.000653  1.017345  -0.001  0.106411  -0.000396  1.013635  -0.001  0.120253  0.099718  -0.000882  1.020617  -0.002
H  H22  1  0.26977439  0.59561769  0.82872632  1  0.096866  -0.000611  0.951484  -0.002  0.102866  -0.000653  1.017307  -0.001  0.106435  -0.000396  1.013596  -0.001  0.120256  0.09974  -0.000882  1.020575  -0.002
H  H23  1  0.73022574  0.09561649  0.67127359  1  0.096872  -0.000611  0.95148  -0.002  0.102863  -0.000653  1.017301  -0.001  0.106433  -0.000396  1.013589  -0.001  0.120273  0.099738  -0.000882  1.020573  -0.002
H  H24  1  0.98828206  0.54374436  0.30874194  1  0.102749  -5.2e-05  0.968632  0.0  0.112008  -0.000179  1.029384  0.0  0.114378  -7.3e-05  1.030072  0.0  0.106597  0.110198  -0.000287  1.029385  0.0
H  H25  1  0.01171759  0.04374916  0.19125629  1  0.102755  -5e-05  0.968532  0.0  0.112012  -0.000179  1.029296  0.0  0.11438  -7.3e-05  1.029986  0.0  0.106603  0.110204  -0.000288  1.029296  0.0
H  H26  1  0.01171560  0.45625578  0.69125547  1  0.102786  -5.3e-05  0.968545  0.0  0.112044  -0.000179  1.029301  0.0  0.114414  -7.4e-05  1.029986  0.0  0.10662  0.110233  -0.000287  1.029298  0.0
H  H27  1  0.98828380  0.95625439  0.80874426  1  0.102767  -5.2e-05  0.968545  0.0  0.11202  -0.000179  1.029308  0.0  0.114389  -7.4e-05  1.029996  0.0  0.106612  0.110212  -0.000287  1.029309  0.0
H  H28  1  0.24515968  0.49927079  0.25550107  1  0.1184  4.5e-05  0.971374  -0.001  0.126941  9.6e-05  1.034988  0.0  0.13066  0.000151  1.031552  0.0  0.108881  0.123795  6e-05  1.037948  0.0
H  H29  1  0.75484187  0.99927482  0.24450075  1  0.118466  4.5e-05  0.971457  -0.001  0.127008  9.6e-05  1.035031  0.0  0.130727  0.000151  1.031593  0.0  0.108913  0.123864  6e-05  1.037994  0.0
H  H30  1  0.75483922  0.50072706  0.74449771  1  0.118406  4.5e-05  0.971414  -0.001  0.126959  9.6e-05  1.034994  0.0  0.130679  0.000151  1.031557  0.0  0.108882  0.123807  6e-05  1.037954  0.0
H  H31  1  0.24515953  0.00072873  0.75550077  1  0.118443  4.5e-05  0.971466  -0.001  0.126998  9.6e-05  1.035049  0.0  0.130716  0.000151  1.031614  0.0  0.108924  0.123851  6e-05  1.03801  0.0
C  C32  1  0.12501128  0.33452620  0.09004328  1  0.111464  -0.008224  3.75945  -0.012  0.133881  -0.002372  3.990644  -0.004  0.130862  -0.001694  4.014994  -0.003  0.00259  0.135178  -0.003111  3.975738  -0.005
C  C33  1  0.87499003  0.83452925  0.40995747  1  0.111513  -0.00824  3.759305  -0.012  0.133959  -0.002372  3.990511  -0.004  0.130941  -0.001691  4.014854  -0.003  0.002595  0.135254  -0.003111  3.975606  -0.005
C  C34  1  0.87498638  0.66547165  0.90995512  1  0.111404  -0.008211  3.759213  -0.012  0.133799  -0.002372  3.990444  -0.004  0.130782  -0.001692  4.01479  -0.003  0.002582  0.135097  -0.003111  3.975536  -0.005
C  C35  1  0.12501012  0.16547430  0.59004071  1  0.111416  -0.008218  3.759309  -0.012  0.133898  -0.002371  3.990449  -0.004  0.130881  -0.001691  4.014798  -0.003  0.00262  0.135194  -0.003111  3.97554  -0.005
C  C36  1  0.27477728  0.30444390  0.05389682  1  -0.494381  -0.002909  3.719743  -0.005  -0.51263  -0.002297  3.944942  -0.004  -0.523229  -0.001279  3.956319  -0.002  -0.165903  -0.504532  -0.003375  3.936747  -0.005
C  C37  1  0.72522151  0.80444907  0.44610314  1  -0.494331  -0.00291  3.719736  -0.005  -0.512692  -0.002297  3.945022  -0.004  -0.523274  -0.001279  3.956396  -0.002  -0.165918  -0.504592  -0.003375  3.936831  -0.005
C  C38  1  0.72522040  0.69555053  0.94610552  1  -0.494314  -0.002913  3.71958  -0.005  -0.51258  -0.002297  3.944793  -0.004  -0.523174  -0.00128  3.956164  -0.002  -0.16589  -0.504484  -0.003375  3.936602  -0.005
C  C39  1  0.27477989  0.19555449  0.55389839  1  -0.494394  -0.002912  3.719754  -0.005  -0.512657  -0.002297  3.944954  -0.004  -0.52327  -0.00128  3.956326  -0.002  -0.165898  -0.504558  -0.003374  3.936765  -0.005
C  C40  1  0.97368939  0.26236318  0.01732635  1  0.063271  0.018689  3.660954  0.013  0.031109  0.002505  3.914759  0.001  0.040286  0.001566  3.929418  0.001  0.043351  0.024065  0.004462  3.905093  0.002
C  C41  1  0.02630934  0.76237095  0.48267358  1  0.063264  0.018719  3.660972  0.013  0.031069  0.002505  3.914804  0.001  0.040246  0.001563  3.929469  0.001  0.043301  0.024031  0.004463  3.905128  0.002
C  C42  1  0.02630952  0.73763468  0.98267440  1  0.063253  0.018666  3.660873  0.013  0.031091  0.002505  3.914689  0.001  0.040265  0.001566  3.929356  0.001  0.043324  0.024046  0.004462  3.905023  0.002
C  C43  1  0.97369206  0.23763033  0.51732893  1  0.063264  0.018673  3.661011  0.013  0.031055  0.002504  3.914828  0.001  0.040224  0.001563  3.929498  0.001  0.043259  0.024013  0.004462  3.905156  0.002
C  C44  1  0.84304019  0.38743445  0.14974508  1  0.119694  0.018474  3.687339  0.013  0.088744  0.002078  3.946412  0.001  0.09779  0.001365  3.961953  0.001  0.041719  0.081539  0.004397  3.936797  0.003
C  C45  1  0.15695871  0.88744008  0.35025197  1  0.119592  0.018511  3.687239  0.013  0.088682  0.002078  3.946259  0.001  0.097727  0.001369  3.9618  0.001  0.041669  0.081467  0.004398  3.936665  0.003
C  C46  1  0.15695871  0.61256227  0.85025370  1  0.119579  0.018447  3.687286  0.013  0.088623  0.002077  3.946373  0.001  0.097666  0.001361  3.96192  0.001  0.04165  0.081402  0.004397  3.936783  0.003
C  C47  1  0.84304393  0.11256120  0.64974896  1  0.119633  0.018469  3.68734  0.013  0.088721  0.002078  3.946356  0.001  0.097766  0.001364  3.961895  0.001  0.041671  0.081511  0.004399  3.936746  0.003
C  C48  1  0.13096507  0.43769561  0.19727201  1  -0.064407  0.021374  3.650511  0.014  -0.091645  0.004706  3.898146  0.003  -0.086958  0.002482  3.913769  0.001  -0.069444  -0.096478  0.008985  3.890169  0.005
C  C49  1  0.86903390  0.93770093  0.30272605  1  -0.064536  0.021409  3.650511  0.014  -0.091765  0.004708  3.898133  0.003  -0.087074  0.002481  3.913747  0.001  -0.069422  -0.096603  0.008989  3.890164  0.005
C  C50  1  0.86903507  0.56230110  0.80272618  1  -0.064415  0.021345  3.650457  0.014  -0.091636  0.004706  3.898085  0.003  -0.086948  0.002476  3.913703  0.001  -0.069431  -0.096467  0.008986  3.890099  0.005
C  C51  1  0.13096874  0.06230263  0.69727685  1  -0.064412  0.02137  3.650357  0.014  -0.091698  0.004708  3.898011  0.003  -0.087007  0.002481  3.913625  0.001  -0.069491  -0.096537  0.008989  3.89004  0.005
C  C52  1  0.98852686  0.46388039  0.22676729  1  -0.108168  -0.00809  3.739065  -0.012  -0.117178  -0.002181  3.989844  -0.004  -0.124067  -0.00157  4.009897  -0.003  -0.083684  -0.113054  -0.002916  3.978419  -0.005
C  C53  1  0.01147463  0.96388470  0.27323255  1  -0.108106  -0.008108  3.73891  -0.012  -0.117133  -0.002181  3.989678  -0.004  -0.124022  -0.001571  4.009731  -0.003  -0.083689  -0.113007  -0.002915  3.978251  -0.005
C  C54  1  0.01147204  0.53611747  0.77323149  1  -0.108164  -0.008076  3.738961  -0.012  -0.117174  -0.002181  3.989738  -0.004  -0.124064  -0.001568  4.009793  -0.003  -0.083687  -0.113046  -0.002915  3.9783  -0.005
C  C55  1  0.98852676  0.03612000  0.72676800  1  -0.108175  -0.008085  3.739112  -0.012  -0.117175  -0.00218  3.989879  -0.004  -0.124064  -0.001569  4.009932  -0.003  -0.083676  -0.113051  -0.002915  3.978453  -0.005
N  N56  1  0.83564090  0.28798301  0.04603775  1  -0.344737  -0.046384  3.380522  -0.079  -0.296647  -0.031485  3.686202  -0.045  -0.32241  -0.025258  3.697799  -0.036  -0.346246  -0.27676  -0.037221  3.677853  -0.054
N  N57  1  0.16435786  0.78798751  0.45396220  1  -0.344684  -0.046396  3.380336  -0.079  -0.296604  -0.031483  3.686017  -0.045  -0.322364  -0.025256  3.69761  -0.036  -0.346201  -0.276716  -0.037218  3.677664  -0.054
N  N58  1  0.16435800  0.71201371  0.95396202  1  -0.344623  -0.046373  3.380363  -0.079  -0.29654  -0.031483  3.686056  -0.045  -0.322305  -0.025254  3.697658  -0.036  -0.34619  -0.276653  -0.037218  3.677703  -0.054
N  N59  1  0.83564229  0.21201490  0.54603599  1  -0.344712  -0.04638  3.380394  -0.079  -0.296648  -0.031484  3.686117  -0.045  -0.322409  -0.025255  3.697712  -0.036  -0.346234  -0.276763  -0.037219  3.677768  -0.054
O  O60  1  0.56525516  0.15334581  0.11756049  1  -0.878035  -0.042395  2.08816  -0.069  -0.822081  -0.036834  2.404192  -0.051  -0.860624  -0.028326  2.37783  -0.038  -0.375686  -0.78786  -0.045771  2.418859  -0.064
O  O61  1  0.43474464  0.65334720  0.38243780  1  -0.878051  -0.042396  2.088151  -0.069  -0.822116  -0.036835  2.404206  -0.051  -0.860656  -0.028329  2.377839  -0.038  -0.375703  -0.787893  -0.045771  2.41887  -0.064
O  O62  1  0.43474251  0.84665205  0.88243889  1  -0.878069  -0.042397  2.088139  -0.069  -0.822132  -0.036836  2.404199  -0.051  -0.860677  -0.02833  2.377833  -0.038  -0.375712  -0.787908  -0.045774  2.41886  -0.064
O  O63  1  0.56525674  0.34665293  0.61756176  1  -0.878017  -0.042394  2.088154  -0.069  -0.822078  -0.036834  2.404212  -0.051  -0.86062  -0.028328  2.377848  -0.038  -0.375686  -0.787857  -0.045772  2.418876  -0.064
O  O64  1  0.31138792  0.00291893  0.11971016  1  -0.849364  -0.053709  2.008836  -0.087  -0.792216  -0.042922  2.314035  -0.061  -0.834087  -0.031993  2.29241  -0.045  -0.37954  -0.756008  -0.054182  2.326377  -0.078
O  O65  1  0.68861416  0.50292062  0.38029375  1  -0.849363  -0.053711  2.008838  -0.087  -0.79222  -0.042923  2.314031  -0.061  -0.83409  -0.031993  2.292408  -0.045  -0.379571  -0.756014  -0.054185  2.32637  -0.078
O  O66  1  0.68861471  0.99708007  0.88029274  1  -0.84937  -0.053712  2.008821  -0.087  -0.792217  -0.042924  2.314016  -0.061  -0.834087  -0.031994  2.292393  -0.045  -0.379568  -0.756007  -0.054186  2.326357  -0.078
O  O67  1  0.31138972  0.49708180  0.61971151  1  -0.849371  -0.053711  2.008852  -0.087  -0.792224  -0.042923  2.314059  -0.061  -0.834091  -0.031992  2.29243  -0.045  -0.379525  -0.756015  -0.054186  2.326394  -0.078
O  O68  1  0.45540195  0.19040802  0.31624004  1  -0.850207  -0.053076  2.018049  -0.085  -0.792858  -0.04258  2.326133  -0.059  -0.833607  -0.032198  2.302162  -0.044  -0.381795  -0.758157  -0.052708  2.341253  -0.074
O  O69  1  0.54459915  0.69040725  0.18376063  1  -0.850219  -0.053076  2.018053  -0.085  -0.792855  -0.04258  2.32611  -0.059  -0.833607  -0.032197  2.302141  -0.044  -0.381791  -0.758156  -0.052709  2.341227  -0.074
O  O70  1  0.54459571  0.80959667  0.68375737  1  -0.850214  -0.053076  2.017948  -0.085  -0.792887  -0.042581  2.326075  -0.059  -0.833634  -0.032196  2.302101  -0.044  -0.381816  -0.758185  -0.052709  2.341191  -0.074
O  O71  1  0.45540348  0.30959289  0.81624129  1  -0.850193  -0.053074  2.018006  -0.085  -0.792848  -0.04258  2.326117  -0.059  -0.833597  -0.032195  2.302143  -0.044  -0.381806  -0.758147  -0.05271  2.341234  -0.074
