# generated using pymatgen
data_NaH22C12S2N(O3F2)3
_symmetry_space_group_name_H-M   'P 1'
_cell_length_a   8.06723848
_cell_length_b   8.94193558
_cell_length_c   15.85338964
_cell_angle_alpha   80.72322642
_cell_angle_beta   88.89474604
_cell_angle_gamma   68.64820648
_symmetry_Int_Tables_number   1
_chemical_formula_structural   NaH22C12S2N(O3F2)3
_chemical_formula_sum   'Na2 H44 C24 S4 N2 O18 F12'
_cell_volume   1050.22012214
_cell_formula_units_Z   2
loop_
 _symmetry_equiv_pos_site_id
 _symmetry_equiv_pos_as_xyz
  1  'x, y, z'
loop_
 _atom_site_type_symbol
 _atom_site_label
 _atom_site_symmetry_multiplicity
 _atom_site_fract_x
 _atom_site_fract_y
 _atom_site_fract_z
 _atom_site_occupancy
 _atom_site_hle17_bader_spin_density
 _atom_site_hle17_ddec_charge
 _atom_site_hle17_ddec_spin_density
 _atom_site_hle17_ddec_sum_bond_order
 _atom_site_hle17_magmom
 _atom_site_hse06_10hf_bader_spin_density
 _atom_site_hse06_10hf_ddec_charge
 _atom_site_hse06_10hf_ddec_spin_density
 _atom_site_hse06_10hf_ddec_sum_bond_order
 _atom_site_hse06_10hf_magmom
 _atom_site_hse06_bader_spin_density
 _atom_site_hse06_ddec_charge
 _atom_site_hse06_ddec_spin_density
 _atom_site_hse06_ddec_sum_bond_order
 _atom_site_hse06_magmom
 _atom_site_pbe_bader_spin_density
 _atom_site_pbe_cm5_charge
 _atom_site_pbe_ddec_charge
 _atom_site_pbe_ddec_spin_density
 _atom_site_pbe_ddec_sum_bond_order
 _atom_site_pbe_magmom
Na  Na0  1  0.29895065  0.16401472  0.74933051  1  0  0.891848  0  0.408236  0  0  0.830336  0  0.575891  0  0  0.843085  0  0.55373  0  0  0.707875  0.821147  0  0.591433  0
Na  Na1  1  0.70104252  0.83598554  0.25066924  1  0  0.891849  0  0.408246  0  0  0.830335  0  0.575908  0  0  0.843082  0  0.553744  0  0  0.707861  0.821145  0  0.59145  0
H  H2  1  0.17489996  0.25985354  0.47056641  1  0  0.070679  0  0.95172  0  0  0.089081  0  1.019227  0  0  0.089563  0  1.019044  0  0  0.089667  0.088631  0  1.019444  0
H  H3  1  0.82510015  0.74014795  0.52943188  1  0  0.070674  0  0.951749  0  0  0.089073  0  1.01926  0  0  0.089554  0  1.019079  0  0  0.08968  0.088624  0  1.019478  0
H  H4  1  0.35293931  0.27657774  0.53024937  1  0  0.088216  0  0.945466  0  0  0.104554  0  1.010533  0  0  0.105731  0  1.009147  0  0  0.096282  0.103551  0  1.01172  0
H  H5  1  0.64706006  0.72342253  0.46975094  1  0  0.088207  0  0.945477  0  0  0.104545  0  1.010544  0  0  0.105722  0  1.009159  0  0  0.09629  0.103544  0  1.011731  0
H  H6  1  0.12971590  0.40632165  0.54170265  1  0  0.064938  0  0.969676  0  0  0.078891  0  1.044949  0  0  0.079938  0  1.044079  0  0  0.086224  0.078081  0  1.045471  0
H  H7  1  0.87028346  0.59367862  0.45829639  1  0  0.064937  0  0.969663  0  0  0.078884  0  1.044952  0  0  0.079932  0  1.044079  0  0  0.086237  0.078075  0  1.045475  0
H  H8  1  0.06061012  0.02721411  0.64651787  1  0  0.077208  0  0.943194  0  0  0.088844  0  1.013366  0  0  0.089517  0  1.012665  0  0  0.105883  0.088203  0  1.014049  0
H  H9  1  0.93938455  0.97278859  0.35348101  1  0  0.077223  0  0.943174  0  0  0.088831  0  1.013407  0  0  0.08952  0  1.012691  0  0  0.105856  0.088188  0  1.014091  0
H  H10  1  0.98314043  0.14893853  0.54373153  1  0  0.053334  0  0.931116  0  0  0.066949  0  0.996844  0  0  0.067331  0  0.995768  0  0  0.094853  0.066439  0  0.99793  0
H  H11  1  0.01685770  0.85106173  0.45626690  1  0  0.053333  0  0.931116  0  0  0.06697  0  0.99681  0  0  0.067352  0  0.995737  0  0  0.094851  0.066461  0  0.997897  0
H  H12  1  0.89103690  0.40131845  0.61541747  1  0  0.050516  0  0.932951  0  0  0.068139  0  0.994235  0  0  0.068023  0  0.994547  0  0  0.096476  0.068014  0  0.994154  0
H  H13  1  0.10896148  0.59868425  0.38458010  1  0  0.05056  0  0.932935  0  0  0.068145  0  0.99423  0  0  0.068027  0  0.994545  0  0  0.096464  0.068016  0  0.994147  0
H  H14  1  0.77309105  0.26905616  0.64963199  1  0  0.064782  0  0.926554  0  0  0.07701  0  0.991905  0  0  0.078407  0  0.990363  0  0  0.097666  0.07591  0  0.993153  0
H  H15  1  0.22690437  0.73094776  0.35036550  1  0  0.064813  0  0.926556  0  0  0.076997  0  0.991938  0  0  0.078393  0  0.990397  0  0  0.09766  0.075895  0  0.993182  0
H  H16  1  0.74102267  0.43224438  0.77616506  1  0  0.061142  0  0.948591  0  0  0.072292  0  1.020952  0  0  0.072659  0  1.020636  0  0  0.095535  0.071867  0  1.021418  0
H  H17  1  0.25898041  0.56775590  0.22383394  1  0  0.061118  0  0.948558  0  0  0.072284  0  1.020921  0  0  0.072656  0  1.020601  0  0  0.095534  0.071858  0  1.021388  0
H  H18  1  0.91529258  0.50450801  0.74215273  1  0  0.06062  0  0.926135  0  0  0.074758  0  0.991809  0  0  0.075734  0  0.990524  0  0  0.099774  0.0741  0  0.992368  0
H  H19  1  0.08470803  0.49549226  0.25784630  1  0  0.060602  0  0.926171  0  0  0.074744  0  0.991851  0  0  0.075723  0  0.990567  0  0  0.099767  0.074094  0  0.992401  0
H  H20  1  0.89437497  0.45771534  0.90193711  1  0  0.059317  0  0.925727  0  0  0.071626  0  0.993882  0  0  0.072501  0  0.992513  0  0  0.094571  0.070877  0  0.994961  0
H  H21  1  0.10562439  0.54228493  0.09806193  1  0  0.059309  0  0.925703  0  0  0.071632  0  0.993857  0  0  0.072507  0  0.992489  0  0  0.094568  0.070884  0  0.994934  0
H  H22  1  0.93520328  0.24748524  0.89987257  1  0  0.045932  0  0.937567  0  0  0.055356  0  1.012543  0  0  0.056269  0  1.010987  0  0  0.093049  0.054639  0  1.013621  0
H  H23  1  0.06479856  0.75251503  0.10012645  1  0  0.045935  0  0.937488  0  0  0.055369  0  1.01248  0  0  0.056283  0  1.010924  0  0  0.093066  0.054651  0  1.013557  0
H  H24  1  0.21587067  0.13021706  0.96944872  1  0  0.049115  0  0.932796  0  0  0.060603  0  1.003554  0  0  0.061442  0  1.00223  0  0  0.094486  0.060044  0  1.004371  0
H  H25  1  0.78413095  0.86978686  0.03055186  1  0  0.049152  0  0.932667  0  0  0.060666  0  1.003426  0  0  0.061511  0  1.002084  0  0  0.094498  0.060106  0  1.004245  0
H  H26  1  0.18874662  0.32493505  0.99554920  1  0  0.057264  0  0.920037  0  0  0.07153  0  0.986169  0  0  0.072273  0  0.984943  0  0  0.096649  0.07064  0  0.987646  0
H  H27  1  0.81125252  0.67506887  0.00445078  1  0  0.057196  0  0.920172  0  0  0.071533  0  0.986241  0  0  0.072273  0  0.985019  0  0  0.096655  0.070644  0  0.987716  0
H  H28  1  0.45407494  0.32663149  0.91354263  1  0  0.05834  0  0.940582  0  0  0.066861  0  1.014322  0  0  0.067701  0  1.013215  0  0  0.094077  0.066262  0  1.014881  0
H  H29  1  0.54592419  0.67337244  0.08645545  1  0  0.058375  0  0.94057  0  0  0.066913  0  1.014308  0  0  0.067759  0  1.013198  0  0  0.094107  0.066313  0  1.014869  0
H  H30  1  0.50471622  0.15779122  0.99972327  1  0  0.060751  0  0.944128  0  0  0.068768  0  1.017727  0  0  0.069562  0  1.016908  0  0  0.095202  0.068098  0  1.018414  0
H  H31  1  0.49528588  0.84221149  0.00027489  1  0  0.060704  0  0.944203  0  0  0.068727  0  1.017824  0  0  0.069525  0  1.017002  0  0  0.095186  0.068057  0  1.01851  0
H  H32  1  0.76984595  0.05233494  0.90210664  1  0  0.047298  0  0.932178  0  0  0.059149  0  1.004678  0  0  0.059788  0  1.003086  0  0  0.092858  0.058536  0  1.005897  0
H  H33  1  0.23014921  0.94767264  0.09788610  1  0  0.047377  0  0.932138  0  0  0.059225  0  1.004622  0  0  0.05987  0  1.003034  0  0  0.092853  0.058607  0  1.005846  0
H  H34  1  0.66141609  0.22193178  0.82004172  1  0  0.057686  0  0.935023  0  0  0.073207  0  1.000485  0  0  0.073475  0  1.000333  0  0  0.103006  0.072773  0  1.000812  0
H  H35  1  0.33857407  0.77806971  0.17994848  1  0  0.057659  0  0.93504  0  0  0.073147  0  1.000545  0  0  0.073413  0  1.000397  0  0  0.103016  0.072714  0  1.000872  0
H  H36  1  0.86587810  0.97707436  0.76382591  1  0  0.067679  0  0.924694  0  0  0.080479  0  0.990469  0  0  0.080838  0  0.990252  0  0  0.101303  0.080202  0  0.990643  0
H  H37  1  0.13410732  0.02291737  0.23616901  1  0  0.067698  0  0.924642  0  0  0.080506  0  0.990409  0  0  0.080869  0  0.990197  0  0  0.101278  0.080229  0  0.990582  0
H  H38  1  0.73431819  0.86305207  0.80918767  1  0  0.063361  0  0.929141  0  0  0.077437  0  0.992714  0  0  0.078159  0  0.992007  0  0  0.098956  0.076818  0  0.993149  0
H  H39  1  0.26566680  0.13694695  0.19081417  1  0  0.063289  0  0.929208  0  0  0.077332  0  0.992802  0  0  0.078054  0  0.992104  0  0  0.098948  0.076714  0  0.993235  0
H  H40  1  0.67328744  0.82571276  0.67046851  1  0  0.070398  0  0.941922  0  0  0.086858  0  1.011767  0  0  0.088009  0  1.010388  0  0  0.088772  0.086102  0  1.012456  0
H  H41  1  0.32671037  0.17427899  0.32952628  1  0  0.070329  0  0.941948  0  0  0.086799  0  1.011785  0  0  0.087948  0  1.010404  0  0  0.088752  0.086042  0  1.012487  0
H  H42  1  0.78587784  0.95153687  0.61809217  1  0  0.072507  0  0.949303  0  0  0.090968  0  1.015487  0  0  0.091535  0  1.015388  0  0  0.088862  0.090345  0  1.015846  0
H  H43  1  0.21411533  0.04846339  0.38190694  1  0  0.072417  0  0.949365  0  0  0.090879  0  1.015541  0  0  0.091447  0  1.015438  0  0  0.088818  0.090253  0  1.015905  0
H  H44  1  0.55182057  0.00265908  0.59471396  1  0  0.092711  0  0.952283  0  0  0.107683  0  1.018417  0  0  0.108665  0  1.017874  0  0  0.100589  0.106875  0  1.018906  0
H  H45  1  0.44817725  0.99733267  0.40528272  1  0  0.092722  0  0.952216  0  0  0.107662  0  1.01838  0  0  0.108644  0  1.017833  0  0  0.100584  0.106852  0  1.018865  0
C  C46  1  0.21485751  0.28292246  0.53191272  1  0  -0.083782  0  3.689494  0  0  -0.176993  0  3.956747  0  0  -0.171543  0  3.961543  0  0  -0.152267  -0.180372  0  3.9533  0
C  C47  1  0.78514012  0.71707902  0.46808686  1  0  -0.083667  0  3.689579  0  0  -0.17692  0  3.95682  0  0  -0.171468  0  3.961614  0  0  -0.152271  -0.180292  0  3.953355  0
C  C48  1  0.03701240  0.14682930  0.60753966  1  0  0.036883  0  3.664642  0  0  -0.022896  0  3.935845  0  0  -0.016514  0  3.941596  0  0  -0.08297  -0.027094  0  3.932009  0
C  C49  1  0.96298524  0.85317219  0.39245866  1  0  0.036836  0  3.664659  0  0  -0.022998  0  3.935818  0  0  -0.016628  0  3.941562  0  0  -0.08298  -0.0272  0  3.931983  0
C  C50  1  0.90540060  0.27939441  0.64993841  1  0  0.046162  0  3.668218  0  0  -0.012514  0  3.940173  0  0  -0.006726  0  3.946782  0  0  -0.081631  -0.016432  0  3.935871  0
C  C51  1  0.09459654  0.72060830  0.35005981  1  0  0.046175  0  3.668321  0  0  -0.012409  0  3.940209  0  0  -0.006619  0  3.946824  0  0  -0.081589  -0.016317  0  3.935907  0
C  C52  1  0.88679998  0.39918402  0.77627848  1  0  0.050827  0  3.659306  0  0  -0.00984  0  3.932895  0  0  -0.003709  0  3.938723  0  0  -0.079424  -0.013828  0  3.928816  0
C  C53  1  0.11320063  0.60081625  0.22372055  1  0  0.050888  0  3.659213  0  0  -0.009807  0  3.932873  0  0  -0.00368  0  3.938705  0  0  -0.079417  -0.013794  0  3.92879  0
C  C54  1  0.96077875  0.35544583  0.86733260  1  0  0.060754  0  3.672418  0  0  3.7e-05  0  3.949894  0  0  0.00647  0  3.955275  0  0  -0.077816  -0.004195  0  3.946089  0
C  C55  1  0.03922185  0.64455444  0.13266706  1  0  0.060788  0  3.672239  0  0  2.1e-05  0  3.949828  0  0  0.006457  0  3.955207  0  0  -0.077827  -0.00421  0  3.946022  0
C  C56  1  0.23833983  0.24475197  0.94709428  1  0  0.065371  0  3.671622  0  0  0.003774  0  3.947995  0  0  0.010075  0  3.953671  0  0  -0.075651  -0.000496  0  3.94446  0
C  C57  1  0.76165882  0.75525316  0.05290559  1  0  0.065328  0  3.671633  0  0  0.003645  0  3.948104  0  0  0.009948  0  3.953788  0  0  -0.075686  -0.000626  0  3.94457  0
C  C58  1  0.43400895  0.21177952  0.93700686  1  0  0.051298  0  3.659802  0  0  -0.004786  0  3.929658  0  0  0.001122  0  3.935819  0  0  -0.081115  -0.008937  0  3.925727  0
C  C59  1  0.56599018  0.78822441  0.06299185  1  0  0.051369  0  3.659814  0  0  -0.004812  0  3.929808  0  0  0.001088  0  3.935978  0  0  -0.081154  -0.008963  0  3.925881  0
C  C60  1  0.67062707  0.09763159  0.84790996  1  0  0.062269  0  3.669349  0  0  -0.000991  0  3.946933  0  0  0.005511  0  3.952785  0  0  -0.075302  -0.005343  0  3.94315  0
C  C61  1  0.32936633  0.90237111  0.15208325  1  0  0.06223  0  3.669519  0  0  -0.000999  0  3.947059  0  0  0.005502  0  3.952904  0  0  -0.075315  -0.005351  0  3.943284  0
C  C62  1  0.73056281  0.98611891  0.78247692  1  0  0.047841  0  3.656741  0  0  -0.008466  0  3.926675  0  0  -0.002538  0  3.932497  0  0  -0.079237  -0.012477  0  3.922745  0
C  C63  1  0.26942389  0.01387891  0.21751996  1  0  0.047751  0  3.656837  0  0  -0.008453  0  3.926757  0  0  -0.002545  0  3.932607  0  0  -0.079236  -0.012461  0  3.922825  0
C  C64  1  0.65833462  0.95236187  0.64467937  1  0  -0.080917  0  3.682491  0  0  -0.173017  0  3.95029  0  0  -0.167517  0  3.954799  0  0  -0.15019  -0.176552  0  3.947301  0
C  C65  1  0.34166072  0.04762987  0.35531734  1  0  -0.080686  0  3.682306  0  0  -0.172676  0  3.950101  0  0  -0.167166  0  3.954598  0  0  -0.149987  -0.176211  0  3.947106  0
C  C66  1  0.22418136  0.72034570  0.91088640  1  0  0.607828  0  3.657887  0  0  0.532653  0  4.033845  0  0  0.561741  0  4.007034  0  0  0.297597  0.51211  0  4.052713  0
C  C67  1  0.77586290  0.27965097  0.08912636  1  0  0.607903  0  3.658183  0  0  0.532928  0  4.033841  0  0  0.561994  0  4.00706  0  0  0.297712  0.512383  0  4.052715  0
C  C68  1  0.37473837  0.65811095  0.60069226  1  0  0.59151  0  3.693329  0  0  0.524728  0  4.055651  0  0  0.553511  0  4.028889  0  0  0.293959  0.504051  0  4.075282  0
C  C69  1  0.62524737  0.34188929  0.39930694  1  0  0.591203  0  3.693664  0  0  0.524447  0  4.055923  0  0  0.553147  0  4.029325  0  0  0.293762  0.503749  0  4.075603  0
S  S70  1  0.37804164  0.73347545  0.82153282  1  0  1.085988  0  5.587406  0  0  0.990497  0  6.120248  0  0  1.031205  0  6.106055  0  0  0.546447  0.96244  0  6.129184  0
S  S71  1  0.62196592  0.26652604  0.17846665  1  0  1.086165  0  5.58746  0  0  0.990637  0  6.120242  0  0  1.031343  0  6.106047  0  0  0.546515  0.962583  0  6.12918  0
S  S72  1  0.26467194  0.59316312  0.69746728  1  0  1.093941  0  5.588704  0  0  1.001585  0  6.115501  0  0  1.042622  0  6.10112  0  0  0.546531  0.973131  0  6.12535  0
S  S73  1  0.73532595  0.40683470  0.30253768  1  0  1.093898  0  5.58879  0  0  1.001552  0  6.115565  0  0  1.042612  0  6.10119  0  0  0.546479  0.973103  0  6.125429  0
N  N74  1  0.39188437  0.58490865  0.77504919  1  0  -0.68207  0  2.977227  0  0  -0.650744  0  3.310724  0  0  -0.671226  0  3.306699  0  0  -0.402477  -0.636294  0  3.312785  0
N  N75  1  0.60811551  0.41509039  0.22495501  1  0  -0.682211  0  2.977497  0  0  -0.650856  0  3.310978  0  0  -0.671347  0  3.306961  0  0  -0.402449  -0.636396  0  3.313028  0
O  O76  1  0.20827430  0.16106172  0.60062083  1  0  -0.304289  0  2.300934  0  0  -0.228256  0  2.553131  0  0  -0.24311  0  2.554689  0  0  -0.27857  -0.217991  0  2.551437  0
O  O77  1  0.79172308  0.83893733  0.39937771  1  0  -0.304413  0  2.300943  0  0  -0.228268  0  2.55308  0  0  -0.243119  0  2.554637  0  0  -0.278576  -0.218001  0  2.551389  0
O  O78  1  0.97103696  0.25964111  0.73575898  1  0  -0.34759  0  2.290479  0  0  -0.275146  0  2.545544  0  0  -0.290534  0  2.546676  0  0  -0.274451  -0.264535  0  2.544498  0
O  O79  1  0.02896290  0.74035794  0.26424017  1  0  -0.347612  0  2.29054  0  0  -0.275155  0  2.545588  0  0  -0.290543  0  2.546723  0  0  -0.27444  -0.264549  0  2.544541  0
O  O80  1  0.14833275  0.31956634  0.86590670  1  0  -0.342657  0  2.301944  0  0  -0.272641  0  2.559585  0  0  -0.287727  0  2.560522  0  0  -0.267681  -0.262107  0  2.558545  0
O  O81  1  0.85166613  0.68043514  0.13409287  1  0  -0.342634  0  2.301917  0  0  -0.272595  0  2.559614  0  0  -0.287681  0  2.560548  0  0  -0.267665  -0.262061  0  2.558575  0
O  O82  1  0.49954841  0.10266611  0.87643288  1  0  -0.348623  0  2.263524  0  0  -0.276503  0  2.515608  0  0  -0.291744  0  2.516388  0  0  -0.274286  -0.265889  0  2.514506  0
O  O83  1  0.50044577  0.89733780  0.12356526  1  0  -0.348654  0  2.263589  0  0  -0.276468  0  2.51564  0  0  -0.291703  0  2.516419  0  0  -0.274259  -0.265852  0  2.514538  0
O  O84  1  0.60807315  0.05201075  0.70965084  1  0  -0.319242  0  2.293877  0  0  -0.245335  0  2.551539  0  0  -0.260246  0  2.552101  0  0  -0.285772  -0.235019  0  2.550808  0
O  O85  1  0.39191349  0.94797489  0.29034715  1  0  -0.3192  0  2.293817  0  0  -0.245469  0  2.551538  0  0  -0.260372  0  2.552095  0  0  -0.285875  -0.23515  0  2.550808  0
O  O86  1  0.28828787  0.89447241  0.77269041  1  0  -0.588569  0  2.027296  0  0  -0.561819  0  2.297129  0  0  -0.578026  0  2.283971  0  0  -0.3488  -0.550352  0  2.305424  0
O  O87  1  0.71171298  0.10552420  0.22731273  1  0  -0.588668  0  2.027198  0  0  -0.56188  0  2.297026  0  0  -0.578126  0  2.283961  0  0  -0.348819  -0.550411  0  2.305314  0
O  O88  1  0.54746755  0.69671900  0.86470668  1  0  -0.529198  0  1.972323  0  0  -0.498955  0  2.220892  0  0  -0.517303  0  2.211338  0  0  -0.29825  -0.486126  0  2.226732  0
O  O89  1  0.45255483  0.30328254  0.13528380  1  0  -0.529196  0  1.972278  0  0  -0.498994  0  2.220848  0  0  -0.517333  0  2.211289  0  0  -0.298334  -0.486167  0  2.226691  0
O  O90  1  0.08652768  0.71468127  0.69093811  1  0  -0.55827  0  1.993032  0  0  -0.531202  0  2.249769  0  0  -0.549592  0  2.240142  0  0  -0.307271  -0.518424  0  2.256029  0
O  O91  1  0.91346429  0.28531898  0.30906858  1  0  -0.558171  0  1.993179  0  0  -0.531151  0  2.24998  0  0  -0.549537  0  2.240346  0  0  -0.307243  -0.518371  0  2.256236  0
O  O92  1  0.28844244  0.42814173  0.68928460  1  0  -0.574041  0  2.020188  0  0  -0.546684  0  2.285975  0  0  -0.563622  0  2.273299  0  0  -0.351797  -0.534816  0  2.294334  0
O  O93  1  0.71155695  0.57185853  0.31071949  1  0  -0.574032  0  2.020157  0  0  -0.546704  0  2.285954  0  0  -0.563638  0  2.273265  0  0  -0.351804  -0.534838  0  2.294314  0
F  F94  1  0.17242669  0.85994890  0.94512626  1  0  -0.238041  0  1.199462  0  0  -0.196545  0  1.372939  0  0  -0.206928  0  1.357834  0  0  -0.085605  -0.189624  0  1.383864  0
F  F95  1  0.82763740  0.14004779  0.05488818  1  0  -0.238067  0  1.199607  0  0  -0.196659  0  1.373022  0  0  -0.207002  0  1.357887  0  0  -0.085584  -0.189738  0  1.383948  0
F  F96  1  0.07596392  0.70266247  0.88321017  1  0  -0.218978  0  1.224149  0  0  -0.169852  0  1.390148  0  0  -0.180512  0  1.376232  0  0  -0.076184  -0.162019  0  1.399464  0
F  F97  1  0.92406436  0.29734633  0.11681617  1  0  -0.219079  0  1.224194  0  0  -0.169922  0  1.390109  0  0  -0.180578  0  1.376197  0  0  -0.076243  -0.162089  0  1.399428  0
F  F98  1  0.30776941  0.59383929  0.97342865  1  0  -0.218379  0  1.239814  0  0  -0.172278  0  1.412899  0  0  -0.183164  0  1.399011  0  0  -0.073896  -0.164271  0  1.422097  0
F  F99  1  0.69228202  0.40615495  0.02658236  1  0  -0.218315  0  1.239763  0  0  -0.172332  0  1.412852  0  0  -0.183217  0  1.398971  0  0  -0.073961  -0.164325  0  1.422052  0
F  F100  1  0.35290475  0.81688070  0.59163639  1  0  -0.206593  0  1.24598  0  0  -0.169768  0  1.425269  0  0  -0.180122  0  1.411113  0  0  -0.072556  -0.162165  0  1.434895  0
F  F101  1  0.64707379  0.18312198  0.40835951  1  0  -0.206506  0  1.246179  0  0  -0.169687  0  1.425452  0  0  -0.180017  0  1.411334  0  0  -0.072476  -0.162077  0  1.435086  0
F  F102  1  0.55153286  0.56856182  0.60495666  1  0  -0.221562  0  1.237544  0  0  -0.184793  0  1.420124  0  0  -0.195494  0  1.405625  0  0  -0.080116  -0.177046  0  1.430176  0
F  F103  1  0.44845512  0.43144208  0.39504092  1  0  -0.221468  0  1.237554  0  0  -0.184703  0  1.420121  0  0  -0.195383  0  1.405656  0  0  -0.080053  -0.176951  0  1.430183  0
F  F104  1  0.30152011  0.63455262  0.52984487  1  0  -0.223528  0  1.214578  0  0  -0.184623  0  1.391412  0  0  -0.194576  0  1.375721  0  0  -0.083822  -0.177491  0  1.402343  0
F  F105  1  0.69845818  0.36544152  0.47015874  1  0  -0.22342  0  1.214662  0  0  -0.184512  0  1.391476  0  0  -0.194445  0  1.375822  0  0  -0.083763  -0.177375  0  1.402416  0
