# generated using pymatgen
data_CdH8C10(BrN)2
_symmetry_space_group_name_H-M   'P 1'
_cell_length_a   3.90138638
_cell_length_b   11.82896286
_cell_length_c   12.42331204
_cell_angle_alpha   90.00034945
_cell_angle_beta   89.99935651
_cell_angle_gamma   90.00026430
_symmetry_Int_Tables_number   1
_chemical_formula_structural   CdH8C10(BrN)2
_chemical_formula_sum   'Cd2 H16 C20 Br4 N4'
_cell_volume   573.32783183
_cell_formula_units_Z   2
loop_
 _symmetry_equiv_pos_site_id
 _symmetry_equiv_pos_as_xyz
  1  'x, y, z'
loop_
 _atom_site_type_symbol
 _atom_site_label
 _atom_site_symmetry_multiplicity
 _atom_site_fract_x
 _atom_site_fract_y
 _atom_site_fract_z
 _atom_site_occupancy
 _atom_site_hle17_bader_spin_density
 _atom_site_hle17_ddec_charge
 _atom_site_hle17_ddec_spin_density
 _atom_site_hle17_ddec_sum_bond_order
 _atom_site_hle17_magmom
 _atom_site_hse06_10hf_bader_spin_density
 _atom_site_hse06_10hf_ddec_charge
 _atom_site_hse06_10hf_ddec_spin_density
 _atom_site_hse06_10hf_ddec_sum_bond_order
 _atom_site_hse06_10hf_magmom
 _atom_site_hse06_bader_spin_density
 _atom_site_hse06_ddec_charge
 _atom_site_hse06_ddec_spin_density
 _atom_site_hse06_ddec_sum_bond_order
 _atom_site_hse06_magmom
 _atom_site_pbe_bader_spin_density
 _atom_site_pbe_cm5_charge
 _atom_site_pbe_ddec_charge
 _atom_site_pbe_ddec_spin_density
 _atom_site_pbe_ddec_sum_bond_order
 _atom_site_pbe_magmom
Cd  Cd0  1  0.50002731  0.24999601  0.24999681  1  0  0.848106  0  2.026064  0  0  0.680783  0  2.481458  0  0  0.728953  0  2.443927  0  0  0.545227  0.646936  0  2.507379  0
Cd  Cd1  1  0.49999385  0.75000679  0.75000018  1  0  0.848046  0  2.025957  0  0  0.680626  0  2.481477  0  0  0.728803  0  2.443948  0  0  0.545172  0.646795  0  2.507376  0
H  H2  1  0.65621923  0.04198159  0.09094737  1  0  0.073195  0  0.960621  0  0  0.081088  0  1.028009  0  0  0.083516  0  1.025703  0  0  0.101332  0.079242  0  1.029793  0
H  H3  1  0.34377631  0.54199470  0.59094001  1  0  0.07324  0  0.960373  0  0  0.08116  0  1.027755  0  0  0.083591  0  1.025451  0  0  0.101343  0.079311  0  1.02954  0
H  H4  1  0.65619530  0.54197903  0.90903259  1  0  0.073047  0  0.961329  0  0  0.080968  0  1.028632  0  0  0.083387  0  1.026334  0  0  0.101328  0.079124  0  1.030416  0
H  H5  1  0.65619672  0.95802124  0.59096160  1  0  0.073109  0  0.960999  0  0  0.081034  0  1.028322  0  0  0.083455  0  1.026026  0  0  0.101334  0.079187  0  1.030105  0
H  H6  1  0.34377886  0.95801107  0.90905847  1  0  0.073103  0  0.960575  0  0  0.081036  0  1.027946  0  0  0.083465  0  1.025644  0  0  0.101312  0.079189  0  1.029729  0
H  H7  1  0.65620640  0.45801655  0.40905456  1  0  0.073187  0  0.960608  0  0  0.081092  0  1.027993  0  0  0.08352  0  1.025688  0  0  0.101305  0.079237  0  1.029787  0
H  H8  1  0.34378228  0.45801194  0.09095474  1  0  0.073098  0  0.960887  0  0  0.081018  0  1.028242  0  0  0.083443  0  1.02594  0  0  0.101281  0.079172  0  1.030025  0
H  H9  1  0.34381418  0.04198832  0.40904424  1  0  0.073277  0  0.960633  0  0  0.081163  0  1.028018  0  0  0.083597  0  1.025705  0  0  0.101279  0.079305  0  1.02982  0
H  H10  1  0.66205171  0.83146836  0.08300731  1  0  0.107543  0  0.990102  0  0  0.113919  0  1.060197  0  0  0.117578  0  1.058278  0  0  0.090461  0.111176  0  1.061905  0
H  H11  1  0.33794098  0.33148763  0.58302365  1  0  0.107632  0  0.990584  0  0  0.113981  0  1.060615  0  0  0.11765  0  1.058684  0  0  0.090443  0.111199  0  1.062368  0
H  H12  1  0.66205296  0.33147286  0.91699522  1  0  0.107594  0  0.990033  0  0  0.113978  0  1.060099  0  0  0.117667  0  1.058146  0  0  0.090466  0.111202  0  1.061837  0
H  H13  1  0.66204244  0.16853273  0.58300974  1  0  0.107607  0  0.98998  0  0  0.114007  0  1.06004  0  0  0.117669  0  1.058115  0  0  0.090493  0.111222  0  1.061791  0
H  H14  1  0.33795920  0.16852176  0.91698967  1  0  0.107757  0  0.990302  0  0  0.114069  0  1.06042  0  0  0.117729  0  1.0585  0  0  0.09049  0.111322  0  1.062133  0
H  H15  1  0.66206479  0.66852024  0.41698702  1  0  0.107607  0  0.990262  0  0  0.113965  0  1.060332  0  0  0.117628  0  1.058407  0  0  0.090441  0.111203  0  1.06206  0
H  H16  1  0.33793487  0.66852064  0.08302350  1  0  0.107658  0  0.990388  0  0  0.113952  0  1.060531  0  0  0.117616  0  1.058604  0  0  0.090402  0.111177  0  1.062271  0
H  H17  1  0.33796590  0.83147599  0.41698241  1  0  0.10758  0  0.99047  0  0  0.11393  0  1.060552  0  0  0.117591  0  1.058623  0  0  0.090409  0.111159  0  1.062289  0
C  C18  1  0.58440221  0.99141834  0.16089857  1  0  0.131237  0  3.712905  0  0  0.100948  0  3.962294  0  0  0.107973  0  3.981277  0  0  0.040236  0.09645  0  3.949244  0
C  C19  1  0.41562601  0.49141573  0.66090820  1  0  0.131151  0  3.711994  0  0  0.100878  0  3.961354  0  0  0.1079  0  3.98035  0  0  0.040255  0.096378  0  3.948298  0
C  C20  1  0.58440120  0.49143333  0.83911321  1  0  0.131409  0  3.71264  0  0  0.101117  0  3.962014  0  0  0.108147  0  3.980999  0  0  0.040152  0.096614  0  3.94896  0
C  C21  1  0.58439300  0.00857977  0.66089525  1  0  0.131281  0  3.712305  0  0  0.101006  0  3.961677  0  0  0.108035  0  3.980658  0  0  0.040165  0.096506  0  3.948622  0
C  C22  1  0.41561639  0.00858615  0.83909600  1  0  0.131493  0  3.712388  0  0  0.101206  0  3.961753  0  0  0.10823  0  3.980744  0  0  0.040378  0.096705  0  3.948703  0
C  C23  1  0.58438233  0.50858115  0.33909925  1  0  0.131182  0  3.71282  0  0  0.100911  0  3.962174  0  0  0.107933  0  3.981167  0  0  0.040259  0.096409  0  3.949132  0
C  C24  1  0.41560201  0.50857032  0.16089666  1  0  0.131329  0  3.712075  0  0  0.10102  0  3.961468  0  0  0.108051  0  3.980447  0  0  0.040228  0.096519  0  3.948411  0
C  C25  1  0.41562047  0.99141965  0.33909852  1  0  0.131095  0  3.712075  0  0  0.100846  0  3.961428  0  0  0.107866  0  3.980411  0  0  0.040246  0.096347  0  3.948387  0
C  C26  1  0.58643140  0.87398876  0.15727681  1  0  -0.151655  0  3.686454  0  0  -0.167887  0  3.930426  0  0  -0.175326  0  3.951351  0  0  -0.084647  -0.163005  0  3.916343  0
C  C27  1  0.41355666  0.37397516  0.65726954  1  0  -0.151673  0  3.68676  0  0  -0.167871  0  3.930709  0  0  -0.175319  0  3.951618  0  0  -0.084677  -0.162972  0  3.916674  0
C  C28  1  0.58641488  0.37399701  0.84271979  1  0  -0.151741  0  3.68555  0  0  -0.167949  0  3.929498  0  0  -0.175414  0  3.950401  0  0  -0.084559  -0.163039  0  3.915435  0
C  C29  1  0.58640353  0.12601440  0.65728543  1  0  -0.151694  0  3.686095  0  0  -0.167931  0  3.930062  0  0  -0.175374  0  3.950985  0  0  -0.084651  -0.16303  0  3.916019  0
C  C30  1  0.41356412  0.12602418  0.84273306  1  0  -0.151788  0  3.686377  0  0  -0.167992  0  3.930383  0  0  -0.175432  0  3.951303  0  0  -0.084652  -0.16311  0  3.916311  0
C  C31  1  0.58643374  0.62600904  0.34272342  1  0  -0.151705  0  3.686916  0  0  -0.167913  0  3.930859  0  0  -0.175352  0  3.951786  0  0  -0.084663  -0.163015  0  3.916793  0
C  C32  1  0.41358064  0.62601847  0.15727478  1  0  -0.15184  0  3.686396  0  0  -0.167988  0  3.930356  0  0  -0.17543  0  3.951275  0  0  -0.084604  -0.16308  0  3.9163  0
C  C33  1  0.41357405  0.87397741  0.34272685  1  0  -0.151633  0  3.68642  0  0  -0.167862  0  3.93037  0  0  -0.175295  0  3.951285  0  0  -0.084606  -0.162958  0  3.916313  0
C  C34  1  0.50000865  0.81249841  0.25000004  1  0  0.097802  0  3.743429  0  0  0.11008  0  3.971471  0  0  0.113842  0  3.992915  0  0  0.013031  0.107768  0  3.956691  0
C  C35  1  0.49996991  0.31250352  0.74998765  1  0  0.097902  0  3.743117  0  0  0.110141  0  3.971212  0  0  0.113909  0  3.992643  0  0  0.013039  0.107832  0  3.956418  0
C  C36  1  0.49997662  0.18750017  0.75000821  1  0  0.097642  0  3.743465  0  0  0.109899  0  3.971569  0  0  0.113663  0  3.993003  0  0  0.012927  0.107592  0  3.956778  0
C  C37  1  0.50001024  0.68749252  0.24999887  1  0  0.097876  0  3.743604  0  0  0.110124  0  3.971646  0  0  0.113885  0  3.993093  0  0  0.013028  0.107813  0  3.95686  0
Br  Br38  1  0.00000802  0.24999853  0.08871539  1  0  -0.521771  0  1.082981  0  0  -0.464347  0  1.393924  0  0  -0.48267  0  1.371534  0  0  -0.248869  -0.450932  0  1.409931  0
Br  Br39  1  0.99999600  0.75000238  0.58871624  1  0  -0.521775  0  1.082988  0  0  -0.46435  0  1.393986  0  0  -0.482675  0  1.371589  0  0  -0.24887  -0.45093  0  1.409983  0
Br  Br40  1  0.00000195  0.74999937  0.91128572  1  0  -0.521729  0  1.082957  0  0  -0.464296  0  1.393939  0  0  -0.48262  0  1.371541  0  0  -0.248867  -0.45088  0  1.409941  0
Br  Br41  1  0.00000046  0.24999770  0.41125810  1  0  -0.521803  0  1.083137  0  0  -0.464462  0  1.39426  0  0  -0.482785  0  1.371864  0  0  -0.248923  -0.450965  0  1.410104  0
N  N42  1  0.50002061  0.04957353  0.24998898  1  0  -0.320693  0  3.294305  0  0  -0.242204  0  3.552509  0  0  -0.263085  0  3.575493  0  0  -0.331455  -0.22798  0  3.536472  0
N  N43  1  0.50001022  0.54958432  0.75000202  1  0  -0.320804  0  3.294083  0  0  -0.242342  0  3.552359  0  0  -0.263218  0  3.575315  0  0  -0.331486  -0.22811  0  3.536313  0
N  N44  1  0.50000055  0.95042504  0.75000559  1  0  -0.320838  0  3.294173  0  0  -0.242364  0  3.552457  0  0  -0.263237  0  3.575406  0  0  -0.331515  -0.228128  0  3.536405  0
N  N45  1  0.49999043  0.45041341  0.25000624  1  0  -0.320643  0  3.294159  0  0  -0.242183  0  3.552428  0  0  -0.263058  0  3.575386  0  0  -0.331418  -0.227957  0  3.53639  0
