# generated using pymatgen
data_Zn4H18C27O16
_symmetry_space_group_name_H-M   'P 1'
_cell_length_a   16.43007684
_cell_length_b   17.22786597
_cell_length_c   16.80314973
_cell_angle_alpha   124.63101104
_cell_angle_beta   114.25910595
_cell_angle_gamma   90.35325343
_symmetry_Int_Tables_number   1
_chemical_formula_structural   Zn4H18C27O16
_chemical_formula_sum   'Zn8 H36 C54 O32'
_cell_volume   3381.00304959
_cell_formula_units_Z   2
loop_
 _symmetry_equiv_pos_site_id
 _symmetry_equiv_pos_as_xyz
  1  'x, y, z'
loop_
 _atom_site_type_symbol
 _atom_site_label
 _atom_site_symmetry_multiplicity
 _atom_site_fract_x
 _atom_site_fract_y
 _atom_site_fract_z
 _atom_site_occupancy
 _atom_site_pbe_bader_charge
 _atom_site_pbe_bader_spin_density
 _atom_site_pbe_cm5_charge
 _atom_site_pbe_ddec_charge
 _atom_site_pbe_ddec_spin_density
 _atom_site_pbe_ddec_sum_bond_order
 _atom_site_pbe_magmom
Zn  Zn0  1  0.86236745  0.94593667  0.88648379  1  1.312174  0  0.674255  0.973496  0  2.33452  0
Zn  Zn1  1  0.06285154  0.95817666  0.90369869  1  1.304225  0  0.671621  0.958614  0  2.368264  0
Zn  Zn2  1  0.01897494  0.90037287  0.03515842  1  1.318321  0  0.675858  0.97155  0  2.378273  0
Zn  Zn3  1  0.05157299  0.12109521  0.11944798  1  1.316233  0  0.674589  0.96806  0  2.375276  0
Zn  Zn4  1  0.63456457  0.51832263  0.03329106  1  1.314227  0  0.674688  0.970524  0  2.37827  0
Zn  Zn5  1  0.48497950  0.56582095  0.11317272  1  1.314148  0  0.672508  0.967417  0  2.366951  0
Zn  Zn6  1  0.44630475  0.34582674  0.90677261  1  1.308036  0  0.673616  0.964894  0  2.381216  0
Zn  Zn7  1  0.43477689  0.51302421  0.87600065  1  1.318952  0  0.676039  0.974675  0  2.328088  0
H  H8  1  0.72126418  0.74307629  0.60871627  1  0.09413  0  0.104006  0.118149  0  0.997994  0
H  H9  1  0.69385843  0.61194806  0.50534208  1  0.023927  0  0.110429  0.116582  0  0.971094  0
H  H10  1  0.81365608  0.69145655  0.59284207  1  0.066555  0  0.099873  0.101012  0  0.995898  0
H  H11  1  0.80176820  0.80792111  0.31451759  1  0.071162  0  0.107764  0.112477  0  0.990461  0
H  H12  1  0.93504879  0.95524086  0.50026488  1  0.069666  0  0.099245  0.097893  0  1.017609  0
H  H13  1  0.97095797  0.97413072  0.67080750  1  0.071545  0  0.107827  0.11109  0  0.986489  0
H  H14  1  0.71370258  0.84801815  0.96912071  1  0.0635  0  0.105551  0.109847  0  0.985999  0
H  H15  1  0.72254664  0.87042190  0.09073724  1  0.070592  0  0.111142  0.116099  0  0.966687  0
H  H16  1  0.82421348  0.86622922  0.07469818  1  0.045819  0  0.098792  0.103663  0  1.003822  0
H  H17  1  0.59270414  0.41238390  0.66880592  1  0.043487  0  0.106076  0.105572  0  0.987614  0
H  H18  1  0.66652168  0.44071727  0.57948505  1  0.061262  0  0.100391  0.099569  0  1.000927  0
H  H19  1  0.76708216  0.61124258  0.68121272  1  0.061502  0  0.103371  0.101781  0  1.00441  0
H  H20  1  0.68979003  0.27033736  0.86766519  1  0.065604  0  0.101164  0.108496  0  0.997441  0
H  H21  1  0.68350694  0.14418406  0.77144411  1  0.08728  0  0.114493  0.121421  0  0.962802  0
H  H22  1  0.60580494  0.16892823  0.82668216  1  0.079159  0  0.105493  0.110486  0  0.986135  0
H  H23  1  0.65805046  0.37568288  0.19652158  1  0.052601  0  0.107329  0.108711  0  0.982802  0
H  H24  1  0.76729267  0.33582324  0.31346198  1  0.07709  0  0.101768  0.101246  0  0.998577  0
H  H25  1  0.86444894  0.23099880  0.24605962  1  0.0808  0  0.107271  0.109505  0  0.98589  0
H  H26  1  0.23151692  0.62844416  0.99816253  1  0.046184  0  0.10186  0.10002  0  0.997321  0
H  H27  1  0.11994952  0.58444921  0.87803789  1  0.086647  0  0.110021  0.1148  0  0.968188  0
H  H28  1  0.22056951  0.55889544  0.86207954  1  0.09529  0  0.101289  0.111155  0  0.999221  0
H  H29  1  0.52141631  0.86390222  0.21921645  1  0.069845  0  0.107598  0.110038  0  0.984665  0
H  H30  1  0.50251085  0.02873717  0.27679763  1  0.065367  0  0.10142  0.100485  0  0.998245  0
H  H31  1  0.34590732  0.03480803  0.16931254  1  0.067364  0  0.103987  0.103101  0  0.994209  0
H  H32  1  0.25557439  0.08815458  0.94930821  1  0.109393  0  0.103702  0.115204  0  0.996057  0
H  H33  1  0.37929360  0.15525527  0.04191031  1  0.073906  0  0.112848  0.118559  0  0.966583  0
H  H34  1  0.30098483  0.18299326  0.09676218  1  0.050158  0  0.099433  0.098488  0  0.997251  0
H  H35  1  0.20038549  0.48100118  0.02662340  1  0.081857  0  0.105183  0.105075  0  0.994918  0
H  H36  1  0.05818165  0.43298356  0.03031643  1  0.043375  0  0.106375  0.108341  0  0.990454  0
H  H37  1  0.03510603  0.29121197  0.03221608  1  0.089011  0  0.108981  0.112061  0  0.981778  0
H  H38  1  0.28234690  0.20196359  0.35000804  1  0.076354  0  0.099851  0.109389  0  1.006597  0
H  H39  1  0.39223885  0.22221829  0.45741833  1  0.073939  0  0.10473  0.106078  0  0.978888  0
H  H40  1  0.29614167  0.11006941  0.37032204  1  0.046838  0  0.101062  0.09843  0  0.997292  0
H  H41  1  0.17618279  0.20958753  0.68082911  1  0.085674  0  0.109781  0.113858  0  0.981691  0
H  H42  1  0.03054868  0.06947740  0.50567943  1  0.08759  0  0.100211  0.098074  0  1.014067  0
H  H43  1  0.00816269  0.00743138  0.32075002  1  0.096515  0  0.104795  0.108106  0  0.998687  0
C  C44  1  0.73965366  0.68586238  0.54874336  1  0.397238  0  -0.136131  -0.181247  0  3.902855  0
C  C45  1  0.77841661  0.76494575  0.48042614  1  0.571306  0  0.107074  0.235277  0  3.977978  0
C  C46  1  0.76051966  0.75277887  0.38304023  1  -0.036524  0  -0.026655  -0.14773  0  3.947781  0
C  C47  1  0.81726301  0.82099842  0.39150426  1  -0.00472  0  -0.081971  -0.070942  0  4.007997  0
C  C48  1  0.89176519  0.90204354  0.49436466  1  -0.031187  0  -0.107121  -0.12043  0  4.084805  0
C  C49  1  0.91143167  0.91268080  0.58935354  1  0.021985  0  -0.079749  -0.065287  0  3.991117  0
C  C50  1  0.85561284  0.84621418  0.58435717  1  -0.025599  0  -0.029892  -0.157626  0  3.955892  0
C  C51  1  0.88748546  0.87361232  0.69701717  1  1.553873  0  0.228682  0.624539  0  4.177821  0
C  C52  1  0.68384043  0.66774360  0.26781593  1  1.547295  0  0.229209  0.628578  0  4.142856  0
C  C53  1  0.74714506  0.83499008  0.03035154  1  0.400935  0  -0.133847  -0.173102  0  3.90085  0
C  C54  1  0.71043662  0.66163276  0.87568341  1  0.503529  0  0.097917  0.21575  0  4.004884  0
C  C55  1  0.65310871  0.56503402  0.81725303  1  0.000435  0  -0.019033  -0.120712  0  3.968406  0
C  C56  1  0.63739947  0.48628416  0.71175412  1  0.004491  0  -0.087123  -0.087778  0  4.021401  0
C  C57  1  0.67806214  0.50221441  0.66173222  1  0.023772  0  -0.107447  -0.116511  0  4.090338  0
C  C58  1  0.73396170  0.59750311  0.71840691  1  -0.089337  0  -0.090968  -0.092875  0  4.022921  0
C  C59  1  0.75178453  0.67766911  0.82558897  1  0.036527  0  -0.028286  -0.143589  0  3.969656  0
C  C60  1  0.82148862  0.77349611  0.88154653  1  1.564843  0  0.232338  0.627606  0  4.180508  0
C  C61  1  0.60935793  0.54769005  0.87088061  1  1.601285  0  0.236256  0.640418  0  4.159265  0
C  C62  1  0.67692349  0.19606612  0.84523441  1  0.354501  0  -0.133524  -0.175659  0  3.89646  0
C  C63  1  0.74488703  0.23350884  0.02674930  1  0.512554  0  0.098813  0.2197  0  4.010837  0
C  C64  1  0.69247278  0.29481920  0.06621704  1  0.026007  0  -0.027895  -0.1482  0  3.96778  0
C  C65  1  0.69981525  0.32881003  0.16797984  1  -0.020811  0  -0.085315  -0.081795  0  4.007827  0
C  C66  1  0.76097939  0.30689892  0.23355505  1  -0.03729  0  -0.107234  -0.117239  0  4.08661  0
C  C67  1  0.81470457  0.24831349  0.19599821  1  -0.104278  0  -0.08575  -0.082963  0  4.018789  0
C  C68  1  0.80496829  0.20943556  0.09246455  1  0.090282  0  -0.024335  -0.134243  0  3.967567  0
C  C69  1  0.86040224  0.14211804  0.05423914  1  1.571905  0  0.233484  0.638844  0  4.145632  0
C  C70  1  0.63248423  0.33545123  0.01306669  1  1.559089  0  0.231922  0.627913  0  4.177683  0
C  C71  1  0.19649182  0.61326228  0.91685917  1  0.350474  0  -0.132238  -0.168259  0  3.89253  0
C  C72  1  0.29166896  0.78284981  0.02159483  1  0.505741  0  0.101109  0.224131  0  4.009669  0
C  C73  1  0.38048051  0.77939451  0.07975850  1  -0.021257  0  -0.027073  -0.148847  0  3.971905  0
C  C74  1  0.45425886  0.86875065  0.17373647  1  0.047255  0  -0.081813  -0.072934  0  3.99793  0
C  C75  1  0.44356931  0.96047888  0.20571661  1  -0.086696  0  -0.10659  -0.118685  0  4.081525  0
C  C76  1  0.35649859  0.96382924  0.14568092  1  -0.037868  0  -0.086244  -0.084207  0  4.01771  0
C  C77  1  0.28031700  0.87637448  0.05703319  1  0.041681  0  -0.022988  -0.133874  0  3.968915  0
C  C78  1  0.18497922  0.88425008  0.00616434  1  1.572111  0  0.233507  0.638208  0  4.141559  0
C  C79  1  0.40526116  0.68581561  0.04439395  1  1.588787  0  0.228014  0.619887  0  4.18594  0
C  C80  1  0.30850191  0.16046725  0.02496616  1  0.348697  0  -0.133548  -0.170479  0  3.898219  0
C  C81  1  0.23361204  0.27824206  0.01194142  1  0.518349  0  0.100472  0.221216  0  3.997558  0
C  C82  1  0.24808199  0.36149562  0.01530125  1  -0.007724  0  -0.025431  -0.138968  0  3.968509  0
C  C83  1  0.18589623  0.41665685  0.02265414  1  0.012917  0  -0.08413  -0.079144  0  4.017647  0
C  C84  1  0.10746723  0.39072815  0.02598825  1  -0.024516  0  -0.103691  -0.114964  0  4.07312  0
C  C85  1  0.09438323  0.31123164  0.02636326  1  -0.026009  0  -0.081888  -0.073931  0  3.998879  0
C  C86  1  0.15572275  0.25401423  0.01864300  1  -0.010119  0  -0.030743  -0.15474  0  3.970932  0
C  C87  1  0.12868270  0.16927172  0.01614368  1  1.562656  0  0.226561  0.620341  0  4.178776  0
C  C88  1  0.33179788  0.39383785  0.01394965  1  1.585782  0  0.230884  0.633837  0  4.151367  0
C  C89  1  0.31532757  0.19028341  0.41224389  1  0.387356  0  -0.134833  -0.166593  0  3.910379  0
C  C90  1  0.21590381  0.19403596  0.48834244  1  0.537494  0  0.102285  0.22497  0  3.993186  0
C  C91  1  0.22865347  0.22731113  0.59240875  1  0.013225  0  -0.020765  -0.12545  0  3.956012  0
C  C92  1  0.16272632  0.18319156  0.59880052  1  -0.018927  0  -0.07889  -0.073641  0  3.987689  0
C  C93  1  0.08227991  0.10425502  0.50112145  1  -0.004877  0  -0.103055  -0.111671  0  4.073838  0
C  C94  1  0.06965547  0.06981506  0.39818871  1  -0.103185  0  -0.08579  -0.077834  0  4.006162  0
C  C95  1  0.13412809  0.11452957  0.38935010  1  0.00195  0  -0.03138  -0.160585  0  3.969707  0
C  C96  1  0.10497404  0.07698821  0.27377714  1  1.535114  0  0.225128  0.615711  0  4.172018  0
C  C97  1  0.31711456  0.30668859  0.69930686  1  1.588756  0  0.234219  0.63874  0  4.152845  0
O  O98  1  0.99679757  0.98098958  0.98575103  1  -1.236287  0  -0.578056  -1.037585  0  2.554864  0
O  O99  1  0.72206948  0.69217338  0.46211351  1  -1.070292  0  -0.176886  -0.138316  0  2.606801  0
O  O100  1  0.96832912  0.86717289  0.74354983  1  -1.175011  0  -0.322422  -0.558645  0  2.311701  0
O  O101  1  0.83594838  0.90773297  0.74067003  1  -1.153865  0  -0.309307  -0.540803  0  2.306019  0
O  O102  1  0.60564399  0.63328253  0.25325033  1  -1.154999  0  -0.315021  -0.544944  0  2.329548  0
O  O103  1  0.70318498  0.63778455  0.19029364  1  -1.166548  0  -0.318954  -0.555653  0  2.330182  0
O  O104  1  0.71856451  0.73113319  0.97753522  1  -1.078959  0  -0.185769  -0.158587  0  2.576461  0
O  O105  1  0.90302839  0.79631781  0.95943150  1  -1.164489  0  -0.310861  -0.539952  0  2.314947  0
O  O106  1  0.79515151  0.82052236  0.84344445  1  -1.165714  0  -0.311671  -0.555397  0  2.326044  0
O  O107  1  0.52363408  0.54411684  0.83934296  1  -1.166977  0  -0.308997  -0.541034  0  2.297625  0
O  O108  1  0.66239768  0.53611231  0.94132609  1  -1.157705  0  -0.31171  -0.540395  0  2.310917  0
O  O109  1  0.74713717  0.19651490  0.93173735  1  -1.079734  0  -0.184334  -0.154853  0  2.592513  0
O  O110  1  0.94874109  0.17754630  0.12334849  1  -1.177639  0  -0.316012  -0.550415  0  2.321637  0
O  O111  1  0.81516730  0.05512005  0.95988667  1  -1.160617  0  -0.314134  -0.547931  0  2.317775  0
O  O112  1  0.54344625  0.29733184  0.96345202  1  -1.14212  0  -0.312034  -0.545227  0  2.31531  0
O  O113  1  0.67563701  0.40780841  0.02749701  1  -1.171181  0  -0.310516  -0.548769  0  2.31498  0
O  O114  1  0.21351710  0.70326579  0.93101599  1  -1.08291  0  -0.18454  -0.153767  0  2.576191  0
O  O115  1  0.12134766  0.84992104  0.01294626  1  -1.167772  0  -0.314019  -0.551797  0  2.319873  0
O  O116  1  0.17665912  0.92893796  0.96447646  1  -1.146784  0  -0.313292  -0.544056  0  2.296608  0
O  O117  1  0.38815570  0.62617995  0.94356307  1  -1.166564  0  -0.309919  -0.542332  0  2.318095  0
O  O118  1  0.44528917  0.67666709  0.12016596  1  -1.171804  0  -0.315942  -0.551104  0  2.32877  0
O  O119  1  0.30198804  0.23450533  0.00990874  1  -1.067471  0  -0.178499  -0.144555  0  2.605623  0
O  O120  1  0.12926764  0.19286023  0.10352317  1  -1.169977  0  -0.319368  -0.556971  0  2.31937  0
O  O121  1  0.10239293  0.08111286  0.92582436  1  -1.169683  0  -0.311331  -0.548778  0  2.323811  0
O  O122  1  0.34445770  0.32921467  0.93402052  1  -1.164187  0  -0.31235  -0.546758  0  2.343394  0
O  O123  1  0.38216571  0.48539452  0.09277381  1  -1.174131  0  -0.316169  -0.549417  0  2.302884  0
O  O124  1  0.28831249  0.24171523  0.49580365  1  -1.083619  0  -0.184018  -0.154563  0  2.570994  0
O  O125  1  0.06222760  0.98354838  0.19588736  1  -1.177618  0  -0.317989  -0.556396  0  2.341327  0
O  O126  1  0.11995524  0.14038216  0.25992828  1  -1.161039  0  -0.310639  -0.544303  0  2.337709  0
O  O127  1  0.32497972  0.39649992  0.73774553  1  -1.152147  0  -0.307568  -0.536919  0  2.293146  0
O  O128  1  0.37554908  0.27652048  0.74474219  1  -1.173911  0  -0.322838  -0.556998  0  2.288688  0
O  O129  1  0.49968366  0.48638227  0.98110360  1  -1.234821  0  -0.577626  -1.039799  0  2.557057  0
