# generated using pymatgen
data_NiH13C20N3O4
_symmetry_space_group_name_H-M   'P 1'
_cell_length_a   8.80006357
_cell_length_b   9.98369351
_cell_length_c   15.36878835
_cell_angle_alpha   87.89179662
_cell_angle_beta   89.45088217
_cell_angle_gamma   73.59681460
_symmetry_Int_Tables_number   1
_chemical_formula_structural   NiH13C20N3O4
_chemical_formula_sum   'Ni2 H26 C40 N6 O8'
_cell_volume   1294.42273680
_cell_formula_units_Z   2
loop_
 _symmetry_equiv_pos_site_id
 _symmetry_equiv_pos_as_xyz
  1  'x, y, z'
loop_
 _atom_site_type_symbol
 _atom_site_label
 _atom_site_symmetry_multiplicity
 _atom_site_fract_x
 _atom_site_fract_y
 _atom_site_fract_z
 _atom_site_occupancy
 _atom_site_pbe_bader_charge
 _atom_site_pbe_bader_spin_density
 _atom_site_pbe_cm5_charge
 _atom_site_pbe_ddec_charge
 _atom_site_pbe_ddec_spin_density
 _atom_site_pbe_ddec_sum_bond_order
 _atom_site_pbe_magmom
Ni  Ni0  1  0.94572867  0.92154087  0.64395071  1  1.171995  1.538536  0.661099  0.723637  1.763825  2.542842  1.526
Ni  Ni1  1  0.05426894  0.07845711  0.35604962  1  1.171952  1.538519  0.66115  0.723648  1.763826  2.54336  1.526
H  H2  1  0.61792136  0.00894727  0.70692501  1  0.124311  0.001841  0.113105  0.085312  0.000598  1.024431  0.001
H  H3  1  0.38206912  0.99106219  0.29307704  1  0.124088  0.001842  0.113088  0.085299  0.000598  1.024484  0.001
H  H4  1  0.38422998  0.22173038  0.71065917  1  0.097841  0.001038  0.104844  0.11278  0.000503  0.995683  0.0
H  H5  1  0.61575909  0.77828327  0.28933564  1  0.097932  0.001039  0.104843  0.112832  0.000503  0.995627  0.0
H  H6  1  0.67992927  0.45390139  0.58736184  1  0.16536  0.000863  0.109606  0.140293  0.000396  1.043409  0.001
H  H7  1  0.32006263  0.54610704  0.41263242  1  0.165414  0.000863  0.109609  0.140277  0.000396  1.043507  0.001
H  H8  1  0.89232947  0.22674390  0.57820867  1  0.150834  0.00204  0.117919  0.09873  0.000878  1.03724  0.001
H  H9  1  0.10766448  0.77325825  0.42178833  1  0.151018  0.00204  0.11797  0.098744  0.000879  1.037296  0.001
H  H10  1  0.00225675  0.62825588  0.57741882  1  0.145772  0.001735  0.120131  0.099307  0.000618  1.024827  0.001
H  H11  1  0.99774131  0.37174420  0.42258145  1  0.145785  0.001735  0.120133  0.099304  0.000618  1.024871  0.001
H  H12  1  0.22275798  0.40765401  0.57080566  1  0.106817  0.001119  0.109475  0.13172  0.000601  1.014433  0.001
H  H13  1  0.77724144  0.59234188  0.42919600  1  0.106827  0.001119  0.109446  0.131731  0.000601  1.014421  0.001
H  H14  1  0.50137038  0.60113708  0.72732146  1  0.076033  0.00114  0.110376  0.123599  0.000538  0.986149  0.0
H  H15  1  0.49863877  0.39884630  0.27267848  1  0.076022  0.001141  0.110368  0.123601  0.000538  0.986187  0.0
H  H16  1  0.26863209  0.81417824  0.72711160  1  0.066398  0.002085  0.114569  0.08081  0.00077  1.01117  0.001
H  H17  1  0.73137619  0.18581141  0.27289014  1  0.066173  0.002085  0.114549  0.080815  0.00077  1.011113  0.001
H  H18  1  0.86923592  0.78984458  0.80743901  1  0.179248  0.002  0.125602  0.109615  0.000704  0.992103  0.001
H  H19  1  0.13076903  0.21015551  0.19257096  1  0.177955  0.002003  0.125603  0.109616  0.000704  0.992198  0.001
H  H20  1  0.88353408  0.81922833  0.96694454  1  0.071894  0.001214  0.108841  0.112119  0.000619  1.008279  0.0
H  H21  1  0.11646304  0.18077487  0.03306477  1  0.072319  0.001214  0.108825  0.112083  0.000619  1.008299  0.0
H  H22  1  0.10002638  0.15120562  0.90657562  1  0.075693  0.001237  0.109414  0.113189  0.000633  1.007438  0.0
H  H23  1  0.89998038  0.84879239  0.09343309  1  0.075606  0.001238  0.109449  0.113268  0.000633  1.007345  0.0
H  H24  1  0.07494222  0.10622092  0.75046157  1  0.14389  0.00195  0.123088  0.102648  0.000637  1.00338  0.001
H  H25  1  0.92506760  0.89377814  0.24954709  1  0.143662  0.00195  0.123077  0.102648  0.000637  1.003333  0.001
H  H26  1  0.40924578  0.85888760  0.61306898  1  0.067376  0.000122  0.097555  0.098585  1.6e-05  1.054117  0.0
H  H27  1  0.59076353  0.14111983  0.38693102  1  0.067241  0.000122  0.097542  0.0985  1.6e-05  1.054108  0.0
C  C28  1  0.62450790  0.10982702  0.68039388  1  0.43731  -0.003805  0.039025  0.086604  -0.004533  3.976672  -0.003
C  C29  1  0.37548539  0.89017722  0.31960438  1  0.437591  -0.003806  0.039036  0.086577  -0.004535  3.976706  -0.003
C  C30  1  0.49615564  0.22853570  0.68251758  1  -0.038691  0.004822  -0.085734  -0.17996  0.002711  3.967717  0.004
C  C31  1  0.50383798  0.77146750  0.31748004  1  -0.038885  0.004823  -0.085787  -0.180065  0.002712  3.967743  0.004
C  C32  1  0.51278854  0.35598335  0.64884469  1  -0.02249  -0.005619  0.013909  0.112043  -0.00618  3.980229  -0.004
C  C33  1  0.48720587  0.64402090  0.35115160  1  -0.02152  -0.00562  0.013944  0.111992  -0.006181  3.98022  -0.004
C  C34  1  0.65950792  0.35715440  0.61322255  1  -0.040584  0.005322  -0.08178  -0.173698  0.002984  3.893393  0.004
C  C35  1  0.34048338  0.64284879  0.38676859  1  -0.041558  0.005323  -0.081836  -0.173738  0.002985  3.893506  0.004
C  C36  1  0.77984350  0.23212646  0.61012768  1  0.454938  -0.003006  0.045931  0.100312  -0.003565  3.915531  -0.002
C  C37  1  0.22014428  0.76787358  0.38986421  1  0.454339  -0.003007  0.045945  0.100397  -0.003567  3.915391  -0.002
C  C38  1  0.11426965  0.61803163  0.61016019  1  0.480442  -0.003071  0.055196  0.114223  -0.003638  3.893783  -0.002
C  C39  1  0.88572921  0.38196949  0.38984005  1  0.480415  -0.003071  0.055202  0.114223  -0.003638  3.893826  -0.002
C  C40  1  0.23605960  0.49376063  0.60878228  1  0.000457  0.005326  -0.078734  -0.169939  0.002985  3.908078  0.004
C  C41  1  0.76393878  0.50623840  0.39121606  1  0.000446  0.005326  -0.078691  -0.169942  0.002985  3.908104  0.004
C  C42  1  0.37923681  0.48485074  0.65078396  1  -0.064361  -0.004965  0.013021  0.108157  -0.005471  3.985511  -0.003
C  C43  1  0.62076317  0.51515039  0.34921497  1  -0.064282  -0.004966  0.012946  0.108155  -0.005472  3.985479  -0.003
C  C44  1  0.39193688  0.60210864  0.69432425  1  -0.006464  0.004648  -0.08497  -0.180689  0.00261  3.960193  0.004
C  C45  1  0.60806867  0.39788937  0.30567536  1  -0.006622  0.004648  -0.084919  -0.180665  0.00261  3.960312  0.004
C  C46  1  0.26323572  0.72102117  0.69396475  1  0.502479  -0.002527  0.040359  0.079198  -0.003045  3.992082  -0.002
C  C47  1  0.73676528  0.27897683  0.30603490  1  0.50283  -0.002527  0.040316  0.079119  -0.003045  3.992113  -0.002
C  C48  1  0.91944399  0.86830562  0.83355297  1  0.472344  -0.00622  0.050955  0.090979  -0.006996  3.927588  -0.004
C  C49  1  0.08055766  0.13169760  0.16645566  1  0.473665  -0.006226  0.050931  0.091006  -0.007  3.927822  -0.004
C  C50  1  0.92828334  0.88638941  0.92235053  1  -0.052082  0.003188  -0.083863  -0.17507  0.001557  3.955205  0.003
C  C51  1  0.07171491  0.11361379  0.07765812  1  -0.051616  0.00319  -0.083899  -0.175121  0.001558  3.955287  0.003
C  C52  1  0.99390434  0.98896850  0.95300929  1  -0.01636  -0.010755  0.006312  0.095915  -0.011823  3.991445  -0.006
C  C53  1  0.00609800  0.01103263  0.04700068  1  0.02039  -0.010671  0.006324  0.095926  -0.011828  3.991632  -0.006
C  C54  1  0.04734014  0.06947570  0.88915402  1  -0.105035  0.004013  -0.084342  -0.174819  0.002064  3.95642  0.004
C  C55  1  0.95266581  0.93052126  0.11085407  1  -0.104483  0.004016  -0.084238  -0.174763  0.002065  3.956422  0.004
C  C56  1  0.03371949  0.04616107  0.80149894  1  0.510405  -0.006823  0.051898  0.092412  -0.007549  3.937992  -0.004
C  C57  1  0.96628646  0.95383589  0.19850916  1  0.510583  -0.006827  0.051825  0.092336  -0.007555  3.938059  -0.004
C  C58  1  0.72138735  0.77055357  0.59769822  1  1.599397  0.004007  0.200827  0.579088  0.00322  4.243236  0.003
C  C59  1  0.27860340  0.22943393  0.40229917  1  1.599283  0.004009  0.200949  0.579311  0.003223  4.243011  0.003
C  C60  1  0.61215842  0.88966371  0.54504046  1  0.012168  0.002061  -0.010741  -0.044089  0.00077  3.954561  0.001
C  C61  1  0.38784923  0.11033117  0.45495335  1  0.012173  0.002063  -0.010837  -0.044205  0.000772  3.954686  0.001
C  C62  1  0.45060568  0.92075628  0.56345826  1  0.003599  0.001804  -0.089039  -0.117678  0.001058  3.957221  0.001
C  C63  1  0.54940369  0.07924384  0.43653736  1  0.003621  0.001802  -0.088986  -0.117578  0.001057  3.957136  0.001
C  C64  1  0.66217802  0.97073666  0.47993519  1  -0.082035  0.005683  -0.01819  -0.064266  0.003181  3.975613  0.004
C  C65  1  0.33783302  0.02925824  0.52005729  1  -0.081693  0.005677  -0.018213  -0.064477  0.003179  3.975869  0.004
C  C66  1  0.83347323  0.94598480  0.45727725  1  1.561147  0.00771  0.215187  0.584946  0.006366  4.158351  0.006
C  C67  1  0.16654031  0.05401639  0.54271311  1  1.561426  0.007712  0.215153  0.585075  0.006365  4.157859  0.006
N  N68  1  0.76387863  0.10999230  0.64328572  1  -1.215304  0.070365  -0.324444  -0.240022  0.041113  3.592013  0.064
N  N69  1  0.23611680  0.89000882  0.35671194  1  -1.214973  0.070381  -0.324418  -0.239931  0.041123  3.591807  0.064
N  N70  1  0.12715767  0.73056393  0.65184064  1  -1.200419  0.072603  -0.318213  -0.20926  0.04261  3.539277  0.064
N  N71  1  0.87284233  0.26943720  0.34816024  1  -1.200328  0.072617  -0.318186  -0.209193  0.042617  3.539195  0.064
N  N72  1  0.97117697  0.94686985  0.77360681  1  -1.20928  0.067559  -0.322776  -0.209383  0.039766  3.603628  0.062
N  N73  1  0.02882375  0.05312918  0.22639867  1  -1.20969  0.06756  -0.322755  -0.20941  0.039767  3.603978  0.062
O  O74  1  0.78817040  0.80197831  0.66570894  1  -1.159145  0.066365  -0.341383  -0.600167  0.036768  2.334941  0.058
O  O75  1  0.21180678  0.19800913  0.33429441  1  -1.159376  0.066361  -0.341408  -0.600204  0.036766  2.33503  0.058
O  O76  1  0.73259816  0.64884569  0.57554962  1  -1.167526  0.024892  -0.318555  -0.543642  0.013482  2.139235  0.021
O  O77  1  0.26738711  0.35114807  0.42444180  1  -1.167079  0.024898  -0.318591  -0.543754  0.013485  2.139166  0.021
O  O78  1  0.93801717  0.88549231  0.51356194  1  -1.161021  0.062539  -0.304773  -0.537492  0.034868  2.429253  0.055
O  O79  1  0.06199121  0.11449317  0.48642624  1  -1.161135  0.062558  -0.304845  -0.537574  0.034881  2.429239  0.056
O  O80  1  0.86728608  0.98538320  0.38120396  1  -1.156122  0.076907  -0.310708  -0.555968  0.043337  2.342248  0.068
O  O81  1  0.13272291  0.01464621  0.61879356  1  -1.156743  0.076906  -0.31061  -0.555942  0.04334  2.341869  0.068
