# generated using pymatgen
data_ZnH6C10NO5
_symmetry_space_group_name_H-M   'P 1'
_cell_length_a   9.65520763
_cell_length_b   11.05511257
_cell_length_c   11.14926930
_cell_angle_alpha   89.00723274
_cell_angle_beta   88.82567967
_cell_angle_gamma   87.33196683
_symmetry_Int_Tables_number   1
_chemical_formula_structural   ZnH6C10NO5
_chemical_formula_sum   'Zn2 H12 C20 N2 O10'
_cell_volume   1188.36697029
_cell_formula_units_Z   2
loop_
 _symmetry_equiv_pos_site_id
 _symmetry_equiv_pos_as_xyz
  1  'x, y, z'
loop_
 _atom_site_type_symbol
 _atom_site_label
 _atom_site_symmetry_multiplicity
 _atom_site_fract_x
 _atom_site_fract_y
 _atom_site_fract_z
 _atom_site_occupancy
 _atom_site_pbe_bader_charge
 _atom_site_pbe_bader_spin_density
 _atom_site_pbe_cm5_charge
 _atom_site_pbe_ddec_charge
 _atom_site_pbe_ddec_spin_density
 _atom_site_pbe_ddec_sum_bond_order
 _atom_site_pbe_magmom
Zn  Zn0  1  0.34559625  0.50912282  0.49259947  1  1.286242  0  0.665723  0.813012  0  2.428876  0
Zn  Zn1  1  0.63348629  0.49486884  0.48626804  1  1.283385  0  0.669483  0.813857  0  2.427327  0
H  H2  1  0.70196451  0.50247083  0.87450793  1  0.110643  0  0.107174  0.1044  0  0.984172  0
H  H3  1  0.14049575  0.34541225  0.39766607  1  0.138271  0  0.139163  0.12458  0  0.971582  0
H  H4  1  0.68590696  0.21626555  0.33210753  1  0.069525  0  0.104902  0.052075  0  1.001974  0
H  H5  1  0.71912891  0.81989726  0.29533208  1  0.097811  0  0.106169  0.046621  0  0.946636  0
H  H6  1  0.70306271  0.47764320  0.09452426  1  0.100158  0  0.107038  0.104068  0  0.985054  0
H  H7  1  0.38425972  0.49085175  0.89370907  1  0.082104  0  0.1082  0.12514  0  0.990842  0
H  H8  1  0.38593218  0.52256355  0.08956862  1  0.04728  0  0.108671  0.126665  0  0.989514  0
H  H9  1  0.29478999  0.89693968  0.58412454  1  0.101322  0  0.113594  0.117274  0  0.984449  0
H  H10  1  0.30050512  0.12377977  0.58746229  1  0.091504  0  0.11218  0.119286  0  0.981085  0
H  H11  1  0.83929731  0.66432919  0.57402176  1  0.185765  0  0.141147  0.127809  0  0.972138  0
H  H12  1  0.87670590  0.33805370  0.39321924  1  0.159902  0  0.138324  0.115583  0  0.973234  0
H  H13  1  0.10252574  0.67273972  0.57527500  1  0.156041  0  0.14351  0.125874  0  0.954588  0
C  C14  1  0.49007612  0.26407804  0.48846804  1  1.554137  0  0.216699  0.588961  0  4.186988  0
C  C15  1  0.60102970  0.93138445  0.43350172  1  -0.066959  0  0.013844  0.018381  0  3.867365  0
C  C16  1  0.48915529  0.87421867  0.48870920  1  0.025176  0  -0.007364  -0.065988  0  3.934374  0
C  C17  1  0.49100775  0.12807400  0.48455613  1  0.000399  0  0.00664  -0.019578  0  3.912412  0
C  C18  1  0.38049282  0.94398027  0.54241745  1  -0.071331  0  -0.064065  -0.05523  0  3.949572  0
C  C19  1  0.38282901  0.06947364  0.54305309  1  0.023484  0  -0.079122  -0.103766  0  3.976847  0
C  C20  1  0.90691932  0.59302174  0.53553017  1  0.546772  0  0.085184  0.081033  0  3.840065  0
C  C21  1  0.92806170  0.41208102  0.43445117  1  0.527104  0  0.078231  0.064067  0  3.872114  0
C  C22  1  0.05094264  0.59761988  0.53625952  1  0.485243  0  0.085872  0.071809  0  3.840165  0
C  C23  1  0.07164497  0.41616170  0.43601678  1  0.478799  0  0.075911  0.057973  0  3.864284  0
C  C24  1  0.69699569  0.11627124  0.34222764  1  0.928657  0  0.095749  0.263913  0  3.955939  0
C  C25  1  0.48188440  0.73906505  0.48776420  1  1.589353  0  0.217354  0.591023  0  4.174329  0
C  C26  1  0.72680910  0.85899868  0.38592522  1  0.985792  0  0.102279  0.308038  0  3.982718  0
C  C27  1  0.49601857  0.49885156  0.25700864  1  1.50797  0  0.204781  0.628372  0  4.190397  0
C  C28  1  0.49187624  0.50217236  0.72120033  1  1.537618  0  0.206391  0.631758  0  4.180862  0
C  C29  1  0.60183058  0.49857691  0.92159754  1  -0.011456  0  -0.071995  -0.025545  0  3.985449  0
C  C30  1  0.60256817  0.49209699  0.05183308  1  -0.051655  0  -0.071875  -0.024911  0  3.98405  0
C  C31  1  0.48768538  0.49787357  0.85379029  1  -0.043117  0  -0.08829  -0.218627  0  3.877721  0
C  C32  1  0.48955584  0.50439785  0.12468972  1  -0.008487  0  -0.090081  -0.221699  0  3.878684  0
C  C33  1  0.59783601  0.05908073  0.42574287  1  0.022794  0  -0.011168  -0.040097  0  3.945342  0
N  N34  1  0.13180698  0.50883239  0.48767170  1  -1.228583  0  -0.291688  -0.147646  0  3.49882  0
N  N35  1  0.84697424  0.49992053  0.48508842  1  -1.201212  0  -0.29281  -0.151275  0  3.496886  0
O  O36  1  0.37390140  0.32026141  0.47303042  1  -1.169586  0  -0.311844  -0.548072  0  2.314209  0
O  O37  1  0.83043962  0.84295355  0.44695551  1  -1.108011  0  -0.287709  -0.402302  0  2.1489  0
O  O38  1  0.36673541  0.69408375  0.51627769  1  -1.162565  0  -0.312241  -0.539779  0  2.296162  0
O  O39  1  0.60490334  0.31105154  0.50961225  1  -1.15222  0  -0.31626  -0.549651  0  2.314363  0
O  O40  1  0.59253673  0.67944593  0.45620472  1  -1.15779  0  -0.298957  -0.534558  0  2.360363  0
O  O41  1  0.38186036  0.52579697  0.31286203  1  -1.158263  0  -0.325761  -0.554335  0  2.289158  0
O  O42  1  0.37618351  0.48594344  0.67114821  1  -1.153558  0  -0.327533  -0.553088  0  2.283187  0
O  O43  1  0.61136808  0.46911553  0.30614744  1  -1.161116  0  -0.325916  -0.564473  0  2.311011  0
O  O44  1  0.60659620  0.52058361  0.66632114  1  -1.165106  0  -0.324659  -0.558706  0  2.299871  0
O  O45  1  0.78281755  0.05742616  0.28127843  1  -1.052237  0  -0.254871  -0.342246  0  2.117232  0
