# generated using pymatgen
data_ZnPH8C4N3O4
_symmetry_space_group_name_H-M   'P 1'
_cell_length_a   8.81505557
_cell_length_b   9.34461432
_cell_length_c   10.04614717
_cell_angle_alpha   87.66584216
_cell_angle_beta   85.69572625
_cell_angle_gamma   88.25795424
_symmetry_Int_Tables_number   1
_chemical_formula_structural   ZnPH8C4N3O4
_chemical_formula_sum   'Zn4 P4 H32 C16 N12 O16'
_cell_volume   824.20499507
_cell_formula_units_Z   4
loop_
 _symmetry_equiv_pos_site_id
 _symmetry_equiv_pos_as_xyz
  1  'x, y, z'
loop_
 _atom_site_type_symbol
 _atom_site_label
 _atom_site_symmetry_multiplicity
 _atom_site_fract_x
 _atom_site_fract_y
 _atom_site_fract_z
 _atom_site_occupancy
 _atom_site_hle17_bader_spin_density
 _atom_site_hle17_ddec_charge
 _atom_site_hle17_ddec_spin_density
 _atom_site_hle17_ddec_sum_bond_order
 _atom_site_hle17_magmom
 _atom_site_hse06_10hf_bader_spin_density
 _atom_site_hse06_10hf_ddec_charge
 _atom_site_hse06_10hf_ddec_spin_density
 _atom_site_hse06_10hf_ddec_sum_bond_order
 _atom_site_hse06_10hf_magmom
 _atom_site_hse06_bader_spin_density
 _atom_site_hse06_ddec_charge
 _atom_site_hse06_ddec_spin_density
 _atom_site_hse06_ddec_sum_bond_order
 _atom_site_hse06_magmom
 _atom_site_pbe_bader_spin_density
 _atom_site_pbe_cm5_charge
 _atom_site_pbe_ddec_charge
 _atom_site_pbe_ddec_spin_density
 _atom_site_pbe_ddec_sum_bond_order
 _atom_site_pbe_magmom
Zn  Zn0  1  0.12234388  0.20079452  0.04294733  1  0  1.211822  0  1.800524  0  0  1.034815  0  2.29056  0  0  1.078495  0  2.228658  0  0  0.724758  1.004098  0  2.333467  0
Zn  Zn1  1  0.87765925  0.79920114  0.95705699  1  0  1.211833  0  1.800558  0  0  1.034826  0  2.290612  0  0  1.078514  0  2.228712  0  0  0.724738  1.004109  0  2.333521  0
Zn  Zn2  1  0.18094120  0.66783524  0.43344941  1  0  1.180069  0  1.808594  0  0  1.000486  0  2.298201  0  0  1.044498  0  2.237162  0  0  0.712765  0.970626  0  2.338439  0
Zn  Zn3  1  0.81906189  0.33216255  0.56654785  1  0  1.180121  0  1.808554  0  0  1.000552  0  2.298178  0  0  1.044552  0  2.237131  0  0  0.712793  0.970685  0  2.338412  0
P  P4  1  0.00762040  0.42009328  0.29607545  1  0  1.451926  0  4.91025  0  0  1.262402  0  5.410898  0  0  1.312493  0  5.374432  0  0  0.290876  1.227341  0  5.435842  0
P  P5  1  0.99237472  0.57990461  0.70392433  1  0  1.451983  0  4.910052  0  0  1.262466  0  5.410747  0  0  1.312591  0  5.374186  0  0  0.290929  1.227387  0  5.435685  0
P  P6  1  0.97841088  0.10744765  0.78680909  1  0  1.465314  0  4.988859  0  0  1.278  0  5.495709  0  0  1.329454  0  5.456898  0  0  0.28148  1.242251  0  5.522245  0
P  P7  1  0.02159104  0.89255232  0.21319613  1  0  1.465394  0  4.988909  0  0  1.278078  0  5.495749  0  0  1.329535  0  5.456937  0  0  0.281522  1.242328  0  5.522285  0
H  H8  1  0.90683129  0.53489723  0.26580072  1  0  -0.141954  0  0.898693  0  0  -0.107681  0  0.980153  0  0  -0.111519  0  0.976255  0  0  0.090671  -0.10474  0  0.982082  0
H  H9  1  0.09316383  0.46510065  0.73419608  1  0  -0.14195  0  0.898647  0  0  -0.107751  0  0.980219  0  0  -0.111592  0  0.976319  0  0  0.090646  -0.104782  0  0.982116  0
H  H10  1  0.11744169  0.05344492  0.72734782  1  0  -0.17211  0  0.929013  0  0  -0.137888  0  1.015531  0  0  -0.141659  0  1.010105  0  0  0.077925  -0.135655  0  1.019233  0
H  H11  1  0.88255689  0.94655078  0.27265083  1  0  -0.172082  0  0.928942  0  0  -0.137873  0  1.015478  0  0  -0.141639  0  1.010038  0  0  0.077933  -0.13564  0  1.01918  0
H  H12  1  0.67459884  0.09726363  0.93778266  1  0  0.131514  0  0.93433  0  0  0.144905  0  0.990457  0  0  0.147017  0  0.989753  0  0  0.122456  0.143067  0  0.991813  0
H  H13  1  0.32539963  0.90273851  0.06222072  1  0  0.131626  0  0.934262  0  0  0.144972  0  0.990403  0  0  0.147082  0  0.989705  0  0  0.122476  0.143141  0  0.991748  0
H  H14  1  0.64556729  0.23393338  0.81452190  1  0  0.112526  0  0.937204  0  0  0.125652  0  1.000388  0  0  0.127946  0  0.998461  0  0  0.118416  0.124129  0  1.002021  0
H  H15  1  0.35444141  0.76606863  0.18547284  1  0  0.112546  0  0.937269  0  0  0.125637  0  1.000429  0  0  0.127964  0  0.998469  0  0  0.118421  0.124115  0  1.00206  0
H  H16  1  0.81589413  0.35520837  0.98764858  1  0  0.130113  0  0.945957  0  0  0.149177  0  1.00391  0  0  0.150916  0  1.003072  0  0  0.113602  0.147754  0  1.00508  0
H  H17  1  0.18410547  0.64479375  0.01235074  1  0  0.130128  0  0.945963  0  0  0.149202  0  1.003894  0  0  0.150941  0  1.003059  0  0  0.113606  0.147778  0  1.005064  0
H  H18  1  0.75006328  0.31504294  0.15691004  1  0  0.089824  0  0.964649  0  0  0.10804  0  1.033194  0  0  0.108662  0  1.032991  0  0  0.099938  0.107577  0  1.03319  0
H  H19  1  0.24993626  0.68496347  0.84309110  1  0  0.089919  0  0.964598  0  0  0.108076  0  1.033188  0  0  0.108698  0  1.032985  0  0  0.099959  0.107614  0  1.033181  0
H  H20  1  0.69299797  0.47922773  0.07723678  1  0  0.103842  0  0.952079  0  0  0.121471  0  1.019529  0  0  0.122203  0  1.019691  0  0  0.105681  0.120667  0  1.019898  0
H  H21  1  0.30699814  0.52077871  0.92275961  1  0  0.103732  0  0.952095  0  0  0.121376  0  1.019539  0  0  0.122108  0  1.019703  0  0  0.105627  0.12056  0  1.019921  0
H  H22  1  0.45970871  0.45782074  0.21046061  1  0  0.359448  0  0.925647  0  0  0.335951  0  0.994531  0  0  0.345006  0  0.986157  0  0  0.304612  0.329526  0  1.00038  0
H  H23  1  0.54029096  0.54217709  0.78953688  1  0  0.359411  0  0.925658  0  0  0.335927  0  0.994539  0  0  0.344981  0  0.986169  0  0  0.304593  0.329502  0  1.00039  0
H  H24  1  0.27790591  0.39666689  0.18246059  1  0  0.343209  0  0.925868  0  0  0.322519  0  0.98985  0  0  0.330515  0  0.983381  0  0  0.307109  0.316896  0  0.994361  0
H  H25  1  0.72209597  0.60333520  0.81753659  1  0  0.343111  0  0.925984  0  0  0.322489  0  0.989878  0  0  0.330476  0  0.983421  0  0  0.307092  0.316867  0  0.994389  0
H  H26  1  0.74902872  0.65786936  0.48831130  1  0  0.135141  0  0.939799  0  0  0.147676  0  0.99809  0  0  0.150114  0  0.996535  0  0  0.122196  0.145766  0  0.9992  0
H  H27  1  0.25096998  0.34211995  0.51170253  1  0  0.135221  0  0.939843  0  0  0.147709  0  0.998165  0  0  0.150149  0  0.99661  0  0  0.1222  0.145798  0  0.99927  0
H  H28  1  0.72529445  0.80020178  0.36524912  1  0  0.118378  0  0.934147  0  0  0.129391  0  0.999694  0  0  0.131214  0  0.998589  0  0  0.119565  0.128489  0  0.999673  0
H  H29  1  0.27471335  0.19978743  0.63476211  1  0  0.118478  0  0.934111  0  0  0.129476  0  0.99965  0  0  0.131301  0  0.998547  0  0  0.119611  0.128574  0  0.999629  0
H  H30  1  0.79039311  0.91457380  0.59763988  1  0  0.128815  0  0.913923  0  0  0.152547  0  0.964903  0  0  0.153859  0  0.964092  0  0  0.119354  0.151612  0  0.965461  0
H  H31  1  0.20960301  0.08543263  0.40235651  1  0  0.128899  0  0.913857  0  0  0.152583  0  0.964872  0  0  0.153926  0  0.96402  0  0  0.119345  0.151636  0  0.965442  0
H  H32  1  0.66454740  0.86790604  0.73792575  1  0  0.096622  0  0.969512  0  0  0.110973  0  1.043484  0  0  0.111485  0  1.043665  0  0  0.100991  0.110565  0  1.043145  0
H  H33  1  0.33544767  0.13209506  0.26207192  1  0  0.096644  0  0.969394  0  0  0.110991  0  1.04339  0  0  0.111502  0  1.043575  0  0  0.100997  0.110581  0  1.04305  0
H  H34  1  0.62351031  0.02050500  0.63431814  1  0  0.095627  0  0.962744  0  0  0.112183  0  1.032201  0  0  0.112455  0  1.03294  0  0  0.101317  0.111632  0  1.032319  0
H  H35  1  0.37648584  0.97949931  0.36568431  1  0  0.09562  0  0.962754  0  0  0.112185  0  1.032215  0  0  0.112457  0  1.032958  0  0  0.101314  0.111635  0  1.032332  0
H  H36  1  0.37243285  0.92540866  0.71407366  1  0  0.363362  0  0.908561  0  0  0.340157  0  0.977923  0  0  0.348777  0  0.97002  0  0  0.309113  0.333953  0  0.983776  0
H  H37  1  0.62755761  0.07459569  0.28592020  1  0  0.363528  0  0.908367  0  0  0.340247  0  0.977831  0  0  0.348864  0  0.969928  0  0  0.309126  0.334042  0  0.983683  0
H  H38  1  0.23235298  0.81754744  0.65108736  1  0  0.359822  0  0.897828  0  0  0.339372  0  0.960746  0  0  0.347638  0  0.953483  0  0  0.308427  0.333657  0  0.965631  0
H  H39  1  0.76764433  0.18245576  0.34890609  1  0  0.359822  0  0.897802  0  0  0.339358  0  0.96074  0  0  0.347624  0  0.953475  0  0  0.308466  0.333642  0  0.965622  0
C  C40  1  0.43592403  0.14705342  0.90873831  1  0  0.603168  0  3.807715  0  0  0.559079  0  4.106065  0  0  0.58857  0  4.104712  0  0  0.242564  0.539185  0  4.106543  0
C  C41  1  0.56408124  0.85294970  0.09125860  1  0  0.603587  0  3.807447  0  0  0.559379  0  4.105884  0  0  0.588868  0  4.104534  0  0  0.2427  0.539479  0  4.106368  0
C  C42  1  0.60047923  0.18943643  0.91187600  1  0  -0.158692  0  3.632614  0  0  -0.214653  0  3.868749  0  0  -0.215577  0  3.877801  0  0  -0.053718  -0.214598  0  3.864163  0
C  C43  1  0.39952380  0.81056457  0.08811915  1  0  -0.158996  0  3.632894  0  0  -0.214795  0  3.868881  0  0  -0.215744  0  3.877916  0  0  -0.053736  -0.21474  0  3.864284  0
C  C44  1  0.71897696  0.36536977  0.06174779  1  0  -0.156005  0  3.629716  0  0  -0.253047  0  3.872392  0  0  -0.249181  0  3.881214  0  0  -0.134624  -0.255639  0  3.866757  0
C  C45  1  0.28102486  0.63463554  0.93825125  1  0  -0.155993  0  3.629722  0  0  -0.252999  0  3.87237  0  0  -0.249133  0  3.881186  0  0  -0.13463  -0.255579  0  3.86674  0
C  C46  1  0.44467488  0.30842564  0.06328162  1  0  0.617107  0  3.849737  0  0  0.551352  0  4.136779  0  0  0.580887  0  4.142109  0  0  0.356345  0.531173  0  4.133259  0
C  C47  1  0.55532696  0.69157859  0.93671448  1  0  0.617241  0  3.849559  0  0  0.551453  0  4.136638  0  0  0.58099  0  4.141962  0  0  0.356368  0.531274  0  4.133121  0
C  C48  1  0.53459182  0.66016845  0.39408898  1  0  0.604157  0  3.805257  0  0  0.559653  0  4.103739  0  0  0.589294  0  4.102097  0  0  0.243143  0.539983  0  4.104694  0
C  C49  1  0.46541121  0.33983256  0.60591016  1  0  0.604109  0  3.80547  0  0  0.559748  0  4.103763  0  0  0.589393  0  4.102123  0  0  0.243192  0.540077  0  4.104725  0
C  C50  1  0.66693589  0.73502999  0.44591258  1  0  -0.160853  0  3.635566  0  0  -0.21862  0  3.878358  0  0  -0.219516  0  3.886806  0  0  -0.051855  -0.218363  0  3.872722  0
C  C51  1  0.33306274  0.26496252  0.55409515  1  0  -0.161041  0  3.635736  0  0  -0.218803  0  3.878496  0  0  -0.219707  0  3.886956  0  0  -0.051966  -0.218543  0  3.872865  0
C  C52  1  0.67078754  0.91075118  0.63460634  1  0  -0.147481  0  3.635127  0  0  -0.247698  0  3.885642  0  0  -0.242887  0  3.894027  0  0  -0.134265  -0.250706  0  3.880153  0
C  C53  1  0.32920746  0.08925421  0.36539515  1  0  -0.14755  0  3.63503  0  0  -0.247736  0  3.885515  0  0  -0.242949  0  3.893889  0  0  -0.13425  -0.250734  0  3.880032  0
C  C54  1  0.44243399  0.79595487  0.55853004  1  0  0.624084  0  3.830673  0  0  0.557583  0  4.117251  0  0  0.587181  0  4.123163  0  0  0.35741  0.537589  0  4.113478  0
C  C55  1  0.55756225  0.20404407  0.44146864  1  0  0.624331  0  3.830599  0  0  0.557656  0  4.117408  0  0  0.587257  0  4.123307  0  0  0.35743  0.537645  0  4.113659  0
N  N56  1  0.34928735  0.22257059  0.00164059  1  0  -0.664817  0  3.105445  0  0  -0.592982  0  3.421656  0  0  -0.621706  0  3.419284  0  0  -0.380401  -0.572767  0  3.422365  0
N  N57  1  0.65072026  0.77742931  0.99836127  1  0  -0.665025  0  3.105337  0  0  -0.593126  0  3.421556  0  0  -0.621855  0  3.419195  0  0  -0.380449  -0.572913  0  3.422273  0
N  N58  1  0.58973563  0.29602397  0.01358961  1  0  -0.170185  0  3.446053  0  0  -0.076148  0  3.680723  0  0  -0.096088  0  3.703604  0  0  -0.27788  -0.062645  0  3.666034  0
N  N59  1  0.41026635  0.70397278  0.98641574  1  0  -0.170273  0  3.446193  0  0  -0.076226  0  3.680774  0  0  -0.096167  0  3.703662  0  0  -0.277885  -0.062723  0  3.666088  0
N  N60  1  0.39358685  0.39122999  0.16115128  1  0  -0.676709  0  3.117783  0  0  -0.636149  0  3.359633  0  0  -0.657015  0  3.354043  0  0  -0.563306  -0.620821  0  3.363285  0
N  N61  1  0.60641166  0.60877001  0.83885118  1  0  -0.676516  0  3.117844  0  0  -0.636028  0  3.359653  0  0  -0.656886  0  3.354082  0  0  -0.563208  -0.620699  0  3.363305  0
N  N62  1  0.40262303  0.70211072  0.46526671  1  0  -0.662346  0  3.064737  0  0  -0.588697  0  3.379135  0  0  -0.617902  0  3.377232  0  0  -0.375307  -0.56943  0  3.380628  0
N  N63  1  0.59737776  0.29788817  0.53472868  1  0  -0.662404  0  3.064697  0  0  -0.588724  0  3.379042  0  0  -0.617939  0  3.377169  0  0  -0.375295  -0.569454  0  3.380544  0
N  N64  1  0.59156892  0.82207128  0.54869447  1  0  -0.172  0  3.454433  0  0  -0.078359  0  3.691026  0  0  -0.098648  0  3.714188  0  0  -0.277749  -0.065141  0  3.675963  0
N  N65  1  0.40842729  0.17792980  0.45130512  1  0  -0.172082  0  3.454552  0  0  -0.078358  0  3.691163  0  0  -0.098647  0  3.714333  0  0  -0.277741  -0.065137  0  3.676101  0
N  N66  1  0.34142267  0.85496182  0.64566799  1  0  -0.677785  0  3.070135  0  0  -0.634542  0  3.310178  0  0  -0.655333  0  3.303578  0  0  -0.557401  -0.620354  0  3.314694  0
N  N67  1  0.65857120  0.14504249  0.35432565  1  0  -0.678051  0  3.069986  0  0  -0.634671  0  3.310153  0  0  -0.655463  0  3.303551  0  0  -0.557506  -0.620476  0  3.314679  0
O  O68  1  0.13667017  0.48083313  0.37106802  1  0  -0.871134  0  2.064762  0  0  -0.766829  0  2.371879  0  0  -0.794695  0  2.343957  0  0  -0.388559  -0.747044  0  2.389896  0
O  O69  1  0.86332721  0.51916580  0.62893058  1  0  -0.871157  0  2.064715  0  0  -0.766868  0  2.371861  0  0  -0.794734  0  2.343922  0  0  -0.388598  -0.747081  0  2.38988  0
O  O70  1  0.07180156  0.36192636  0.16232031  1  0  -0.860744  0  2.05483  0  0  -0.753301  0  2.349524  0  0  -0.782127  0  2.324588  0  0  -0.382041  -0.733174  0  2.366997  0
O  O71  1  0.92819576  0.63807578  0.83767716  1  0  -0.860762  0  2.054854  0  0  -0.753309  0  2.349514  0  0  -0.782157  0  2.324601  0  0  -0.382057  -0.733184  0  2.366992  0
O  O72  1  0.91746911  0.30681175  0.38278946  1  0  -0.866018  0  2.045438  0  0  -0.764546  0  2.337697  0  0  -0.792659  0  2.312833  0  0  -0.382692  -0.744562  0  2.353819  0
O  O73  1  0.08252837  0.69318182  0.61720835  1  0  -0.865999  0  2.045332  0  0  -0.764505  0  2.337569  0  0  -0.792625  0  2.312697  0  0  -0.382658  -0.744525  0  2.353703  0
O  O74  1  0.01595937  0.22534669  0.88124841  1  0  -0.862455  0  2.03624  0  0  -0.764155  0  2.343071  0  0  -0.792631  0  2.316232  0  0  -0.386996  -0.744136  0  2.36139  0
O  O75  1  0.98405173  0.77464890  0.11875638  1  0  -0.862514  0  2.036181  0  0  -0.764246  0  2.343051  0  0  -0.792722  0  2.316213  0  0  -0.387041  -0.744221  0  2.361363  0
O  O76  1  0.88809233  0.16875154  0.67229173  1  0  -0.876769  0  2.079068  0  0  -0.77327  0  2.393424  0  0  -0.803239  0  2.36728  0  0  -0.396479  -0.753155  0  2.410571  0
O  O77  1  0.11190621  0.83124632  0.32771281  1  0  -0.876738  0  2.079171  0  0  -0.773233  0  2.393549  0  0  -0.803212  0  2.367417  0  0  -0.396471  -0.753115  0  2.410682  0
O  O78  1  0.89805167  0.98097778  0.85905984  1  0  -0.890314  0  2.116228  0  0  -0.787743  0  2.434509  0  0  -0.816427  0  2.406254  0  0  -0.39336  -0.767143  0  2.453027  0
O  O79  1  0.10195028  0.01902112  0.14094841  1  0  -0.890368  0  2.116322  0  0  -0.787778  0  2.434599  0  0  -0.816461  0  2.406336  0  0  -0.393382  -0.767181  0  2.453112  0
O  O80  1  0.38707603  0.05733825  0.83592352  1  0  -0.579718  0  1.961362  0  0  -0.53454  0  2.192765  0  0  -0.555876  0  2.185755  0  0  -0.300407  -0.51942  0  2.197382  0
O  O81  1  0.61292460  0.94267027  0.16406951  1  0  -0.579943  0  1.961314  0  0  -0.534694  0  2.192747  0  0  -0.55603  0  2.185734  0  0  -0.300508  -0.519587  0  2.197396  0
O  O82  1  0.54716865  0.57725889  0.30055373  1  0  -0.557853  0  1.974806  0  0  -0.512589  0  2.20129  0  0  -0.534045  0  2.19501  0  0  -0.293684  -0.498086  0  2.205141  0
O  O83  1  0.45284013  0.42273884  0.69944416  1  0  -0.557784  0  1.974965  0  0  -0.512612  0  2.201409  0  0  -0.53406  0  2.19512  0  0  -0.29369  -0.498109  0  2.205268  0
