# generated using pymatgen
data_ZnH16C24(NO)4
_symmetry_space_group_name_H-M   'P 1'
_cell_length_a   9.22905589
_cell_length_b   10.59028730
_cell_length_c   12.91673705
_cell_angle_alpha   70.55532764
_cell_angle_beta   74.72710121
_cell_angle_gamma   66.61359846
_symmetry_Int_Tables_number   1
_chemical_formula_structural   ZnH16C24(NO)4
_chemical_formula_sum   'Zn2 H32 C48 N8 O8'
_cell_volume   1080.01426934
_cell_formula_units_Z   2
loop_
 _symmetry_equiv_pos_site_id
 _symmetry_equiv_pos_as_xyz
  1  'x, y, z'
loop_
 _atom_site_type_symbol
 _atom_site_label
 _atom_site_symmetry_multiplicity
 _atom_site_fract_x
 _atom_site_fract_y
 _atom_site_fract_z
 _atom_site_occupancy
 _atom_site_pbe_bader_charge
 _atom_site_pbe_bader_spin_density
 _atom_site_pbe_cm5_charge
 _atom_site_pbe_ddec_charge
 _atom_site_pbe_ddec_spin_density
 _atom_site_pbe_ddec_sum_bond_order
 _atom_site_pbe_magmom
Zn  Zn0  1  0.72938425  0.46875266  0.23330774  1  1.251209  0  0.694635  0.766907  0  2.304382  0
Zn  Zn1  1  0.27061686  0.53124710  0.76669594  1  1.251155  0  0.694619  0.766941  0  2.304401  0
H  H2  1  0.86826670  0.84247737  0.85054296  1  0.090956  0  0.097111  0.095403  0  1.043734  0
H  H3  1  0.13173666  0.15752240  0.14945487  1  0.090852  0  0.097105  0.095441  0  1.043761  0
H  H4  1  0.96870898  0.04720283  0.78040109  1  0.051439  0  0.094734  0.092047  0  1.013847  0
H  H5  1  0.03129856  0.95279481  0.21959655  1  0.051494  0  0.0947  0.092029  0  1.013863  0
H  H6  1  0.92284546  0.79373648  0.18232222  1  0.050656  0  0.099487  0.098775  0  1.046887  0
H  H7  1  0.07716015  0.20626329  0.81767364  1  0.05065  0  0.099475  0.098775  0  1.046908  0
H  H8  1  0.61903856  0.22337422  0.30006267  1  0.075077  0  0.109444  0.072068  0  1.046712  0
H  H9  1  0.38096836  0.77661916  0.69994321  1  0.075201  0  0.109455  0.072118  0  1.046674  0
H  H10  1  0.54928677  0.08211940  0.21129010  1  0.133574  0  0.110196  0.114176  0  1.021638  0
H  H11  1  0.45072231  0.91787717  0.78870985  1  0.133563  0  0.110201  0.11415  0  1.021676  0
H  H12  1  0.66382866  0.35598358  0.89346339  1  0.13003  0  0.109961  0.132551  0  1.035445  0
H  H13  1  0.33618490  0.64401300  0.10654037  1  0.130023  0  0.109922  0.132493  0  1.035534  0
H  H14  1  0.74049062  0.48149952  0.99616078  1  0.195108  0  0.116499  0.101777  0  1.060962  0
H  H15  1  0.25951886  0.51849599  0.00384558  1  0.195185  0  0.116501  0.101816  0  1.061007  0
H  H16  1  0.56468812  0.17955597  0.89374053  1  0.133709  0  0.11945  0.100215  0  1.00855  0
H  H17  1  0.43531943  0.82044167  0.10626252  1  0.133701  0  0.119467  0.10026  0  1.008653  0
H  H18  1  0.76697817  0.26347676  0.45786299  1  0.123151  0  0.122936  0.104165  0  0.994823  0
H  H19  1  0.23301386  0.73652620  0.54214695  1  0.123291  0  0.122962  0.104143  0  0.994835  0
H  H20  1  0.98592852  0.10494866  0.57162320  1  0.089084  0  0.109833  0.116619  0  0.998967  0
H  H21  1  0.01406473  0.89505110  0.42838738  1  0.089111  0  0.109862  0.116602  0  0.999042  0
H  H22  1  0.31870697  0.24171740  0.29337119  1  0.143082  0  0.111626  0.116688  0  1.032779  0
H  H23  1  0.68128801  0.75827492  0.70663568  1  0.143089  0  0.11164  0.116744  0  1.032804  0
H  H24  1  0.08779097  0.39006398  0.19018243  1  0.164754  0  0.124462  0.108367  0  1.004399  0
H  H25  1  0.91220309  0.60993366  0.80982548  1  0.164436  0  0.124416  0.108374  0  1.004339  0
H  H26  1  0.12581309  0.64788768  0.29659925  1  0.089718  0  0.102186  0.106173  0  1.026123  0
H  H27  1  0.87417979  0.35212487  0.70339089  1  0.089595  0  0.102139  0.106079  0  1.026201  0
H  H28  1  0.41021901  0.34889800  0.54654622  1  0.124803  0  0.106146  0.116367  0  0.992343  0
H  H29  1  0.58977283  0.65111135  0.45344498  1  0.124894  0  0.106182  0.11652  0  0.992368  0
H  H30  1  0.26775194  0.01693107  0.59383510  1  0.096744  0  0.11778  0.078952  0  0.996657  0
H  H31  1  0.73224591  0.98306550  0.40617084  1  0.096726  0  0.117792  0.079  0  0.996576  0
H  H32  1  0.16986618  0.30772381  0.67116108  1  0.090179  0  0.100598  0.108133  0  1.033748  0
H  H33  1  0.83012689  0.69228235  0.32882844  1  0.090161  0  0.100544  0.108048  0  1.033824  0
C  C34  1  0.89204664  0.80478984  0.02080275  1  -0.044958  0  -0.016844  -0.022532  0  3.969826  0
C  C35  1  0.10795785  0.19520993  0.97919410  1  -0.044962  0  -0.016884  -0.022636  0  3.969832  0
C  C36  1  0.90577165  0.87723487  0.90632113  1  0.001399  0  -0.089824  -0.094825  0  3.995239  0
C  C37  1  0.09423396  0.12276490  0.09367552  1  0.001603  0  -0.089842  -0.094857  0  3.995294  0
C  C38  1  0.96092046  0.99012128  0.86825329  1  -0.085393  0  -0.090104  -0.12496  0  3.988913  0
C  C39  1  0.03908709  0.00987637  0.13174202  1  -0.085498  0  -0.090088  -0.124985  0  3.988994  0
C  C40  1  0.00704664  0.03629034  0.94207094  1  0.041159  0  -0.009947  0.069773  0  4.008835  0
C  C41  1  0.99296050  0.96370837  0.05792571  1  -0.003069  0  -0.009998  0.069683  0  4.00892  0
C  C42  1  0.93444076  0.84888534  0.09444807  1  -0.026556  0  -0.082407  -0.143089  0  3.941026  0
C  C43  1  0.06556719  0.15111124  0.90554746  1  -0.026632  0  -0.082389  -0.14311  0  3.941111  0
C  C44  1  0.83023062  0.68244038  0.05854369  1  1.547301  0  0.204436  0.570712  0  4.211394  0
C  C45  1  0.16976815  0.31756258  0.94145260  1  1.547364  0  0.204464  0.570735  0  4.211313  0
C  C46  1  0.63114439  0.24686209  0.20997487  1  0.452495  0  0.034933  0.069755  0  3.969924  0
C  C47  1  0.36886590  0.75313129  0.79002883  1  0.451923  0  0.034927  0.069623  0  3.969856  0
C  C48  1  0.59003389  0.17045187  0.16073516  1  -0.047326  0  -0.076879  -0.161018  0  3.926802  0
C  C49  1  0.40997671  0.82954364  0.83926789  1  -0.046708  0  -0.076908  -0.160964  0  3.926794  0
C  C50  1  0.60047417  0.20928701  0.04432084  1  0.008962  0  0.021253  0.129565  0  3.961262  0
C  C51  1  0.39953634  0.79071170  0.95568214  1  0.00893  0  0.021232  0.129491  0  3.961331  0
C  C52  1  0.65561477  0.32259694  0.98369476  1  0.009636  0  -0.073967  -0.15405  0  3.891703  0
C  C53  1  0.34439655  0.67739964  0.01630942  1  0.01082  0  -0.073873  -0.153897  0  3.891613  0
C  C54  1  0.69737855  0.39235696  0.03894981  1  0.3812  0  0.046981  0.092886  0  3.923273  0
C  C55  1  0.30262990  0.60763535  0.96105607  1  0.379964  0  0.046914  0.09274  0  3.923448  0
C  C56  1  0.55840437  0.13736174  0.98416072  1  0.636544  0  0.083426  0.059631  0  3.880408  0
C  C57  1  0.44160030  0.86263164  0.01584635  1  0.636248  0  0.083475  0.059641  0  3.880083  0
C  C58  1  0.89164390  0.25258320  0.42476182  1  0.483012  0  0.049421  0.092178  0  3.934034  0
C  C59  1  0.10834742  0.74741870  0.57524777  1  0.483495  0  0.049367  0.09229  0  3.933991  0
C  C60  1  0.01370423  0.16615394  0.48722856  1  -0.014656  0  -0.077049  -0.170344  0  3.960489  0
C  C61  1  0.98629168  0.83384476  0.51278258  1  -0.015038  0  -0.077051  -0.17032  0  3.960723  0
C  C62  1  0.17166678  0.15919886  0.44092150  1  -0.028803  0  0.011079  0.101342  0  4.01594  0
C  C63  1  0.82833484  0.84079665  0.55908480  1  -0.028629  0  0.011111  0.101366  0  4.015858  0
C  C64  1  0.19879189  0.24236865  0.33233277  1  -0.024096  0  -0.067045  -0.133397  0  3.882708  0
C  C65  1  0.80120492  0.75762473  0.66767424  1  -0.024417  0  -0.067078  -0.133434  0  3.882675  0
C  C66  1  0.07058768  0.32608225  0.27521627  1  0.456528  0  0.055457  0.09601  0  3.917718  0
C  C67  1  0.92940526  0.67391539  0.72479108  1  0.457376  0  0.055564  0.096109  0  3.917632  0
C  C68  1  0.42573557  0.52874264  0.33907063  1  1.547109  0  0.194773  0.558285  0  4.225103  0
C  C69  1  0.57425883  0.47126884  0.66092493  1  1.545842  0  0.19493  0.558531  0  4.225111  0
C  C70  1  0.28070550  0.50164504  0.41406040  1  -0.107375  0  -0.019807  -0.03193  0  3.988178  0
C  C71  1  0.71928593  0.49836538  0.58593059  1  -0.107753  0  -0.019926  -0.032122  0  3.988417  0
C  C72  1  0.13301558  0.57265369  0.37839977  1  0.007408  0  -0.081353  -0.147465  0  3.947174  0
C  C73  1  0.86697811  0.42735673  0.62159002  1  0.007881  0  -0.08113  -0.147157  0  3.947114  0
C  C74  1  0.29335162  0.40320374  0.51988952  1  -0.073731  0  -0.086055  -0.086774  0  3.977743  0
C  C75  1  0.70664256  0.59680242  0.48009901  1  -0.073753  0  -0.086179  -0.087163  0  3.978259  0
C  C76  1  0.30009072  0.06772168  0.50595473  1  0.586175  0  0.083964  0.059854  0  3.912131  0
C  C77  1  0.69990191  0.93227382  0.49405094  1  0.586374  0  0.084019  0.059837  0  3.912035  0
C  C78  1  0.15941644  0.37927485  0.58823485  1  -0.065434  0  -0.091792  -0.134827  0  3.976016  0
C  C79  1  0.84057285  0.62073237  0.41175587  1  -0.065476  0  -0.091713  -0.13454  0  3.976225  0
C  C80  1  0.99336455  0.54929340  0.44608599  1  0.034883  0  -0.011132  0.068813  0  4.005465  0
C  C81  1  0.00662810  0.45071383  0.55390099  1  -0.013483  0  -0.011284  0.068835  0  4.005386  0
N  N82  1  0.68428723  0.35640544  0.15053666  1  -1.236557  0  -0.329373  -0.232094  0  3.574487  0
N  N83  1  0.31572266  0.64358900  0.84946915  1  -1.236376  0  -0.329333  -0.231975  0  3.574594  0
N  N84  1  0.91949727  0.33084639  0.32023887  1  -1.24497  0  -0.321326  -0.223629  0  3.534037  0
N  N85  1  0.08049598  0.66915337  0.67977094  1  -1.245682  0  -0.321359  -0.223837  0  3.533912  0
N  N86  1  0.51599792  0.02694549  0.03633031  1  -0.740733  0  -0.20814  -0.166929  0  3.2992  0
N  N87  1  0.48401280  0.97305854  0.96367041  1  -0.762353  0  -0.208065  -0.166887  0  3.298614  0
N  N88  1  0.44861522  0.04515550  0.46214628  1  -0.755659  0  -0.202541  -0.15649  0  3.299696  0
N  N89  1  0.55138466  0.95483575  0.53785764  1  -0.734187  0  -0.202593  -0.156448  0  3.299778  0
O  O90  1  0.80565764  0.64021861  0.98741375  1  -1.174516  0  -0.308926  -0.53586  0  2.183516  0
O  O91  1  0.19433492  0.35979180  0.01258167  1  -1.174595  0  -0.308898  -0.53578  0  2.183433  0
O  O92  1  0.80666163  0.62901340  0.16559453  1  -1.158042  0  -0.333486  -0.556764  0  2.357021  0
O  O93  1  0.19334519  0.37098318  0.83440120  1  -1.158077  0  -0.333531  -0.5568  0  2.356919  0
O  O94  1  0.56316072  0.44201192  0.36779023  1  -1.171697  0  -0.333008  -0.563011  0  2.32298  0
O  O95  1  0.43683163  0.55799317  0.63220668  1  -1.170677  0  -0.333034  -0.563119  0  2.323069  0
O  O96  1  0.41134066  0.62852782  0.25209893  1  -1.180211  0  -0.321744  -0.558218  0  2.176772  0
O  O97  1  0.58865885  0.37148792  0.74790147  1  -1.179951  0  -0.321893  -0.558363  0  2.176717  0
