# generated using pymatgen
data_FeH12C22O5
_symmetry_space_group_name_H-M   'P 1'
_cell_length_a   13.53231450
_cell_length_b   15.85672977
_cell_length_c   30.54827292
_cell_angle_alpha   90.03993280
_cell_angle_beta   90.50629949
_cell_angle_gamma   91.71215284
_symmetry_Int_Tables_number   1
_chemical_formula_structural   FeH12C22O5
_chemical_formula_sum   'Fe8 H96 C176 O40'
_cell_volume   6551.80972564
_cell_formula_units_Z   8
loop_
 _symmetry_equiv_pos_site_id
 _symmetry_equiv_pos_as_xyz
  1  'x, y, z'
loop_
 _atom_site_type_symbol
 _atom_site_label
 _atom_site_symmetry_multiplicity
 _atom_site_fract_x
 _atom_site_fract_y
 _atom_site_fract_z
 _atom_site_occupancy
 _atom_site_pbe_bader_charge
 _atom_site_pbe_bader_spin_density
 _atom_site_pbe_cm5_charge
 _atom_site_pbe_ddec_charge
 _atom_site_pbe_ddec_spin_density
 _atom_site_pbe_ddec_sum_bond_order
 _atom_site_pbe_magmom
Fe  Fe0  1  0.87137989  0.99817264  0.74895863  1  1.517283  1.247158  0.809408  1.130045  1.373718  3.247392  1.242
Fe  Fe1  1  0.62864371  0.99358221  0.24883952  1  1.744539  4.083902  0.875584  1.39229  4.516679  2.622754  4.054
Fe  Fe2  1  0.87980385  0.99360180  0.24855818  1  1.727254  4.04065  0.872839  1.37195  4.461189  2.634085  4.011
Fe  Fe3  1  0.62259721  0.00025184  0.74924651  1  1.73475  4.043912  0.87735  1.38143  4.466285  2.630289  4.016
Fe  Fe4  1  0.37164877  0.00151104  0.75088311  1  1.748663  4.093771  0.878967  1.400497  4.528396  2.611482  4.065
Fe  Fe5  1  0.12824322  0.00166174  0.25209482  1  1.513463  1.239541  0.805907  1.123018  1.36536  3.246324  1.235
Fe  Fe6  1  0.37715979  0.00311760  0.25064629  1  1.731015  4.041677  0.87468  1.37576  4.46426  2.618308  4.013
Fe  Fe7  1  0.12043801  0.99916668  0.75064330  1  1.731484  4.044973  0.872544  1.378405  4.462812  2.615863  4.016
H  H8  1  0.76161689  0.04828818  0.69521921  1  0.596405  0.004792  0.319527  0.40388  0.002036  0.878918  0.005
H  H9  1  0.76516617  0.28315187  0.95587624  1  0.096341  1.1e-05  0.100947  0.104927  -8e-06  1.013154  0.0
H  H10  1  0.75185726  0.49835132  0.84559402  1  0.084655  -2e-06  0.102266  0.109732  -1.4e-05  1.001141  0.0
H  H11  1  0.75872149  0.04027446  0.30401815  1  0.609173  0.006285  0.31211  0.411498  0.003035  0.882118  0.008
H  H12  1  0.76476653  0.28239366  0.03610516  1  0.081067  1.4e-05  0.100789  0.104062  1e-06  1.015641  0.0
H  H13  1  0.75410467  0.49580513  0.14738869  1  0.037818  1.2e-05  0.101504  0.107614  3e-06  1.005365  0.0
H  H14  1  0.73945845  0.71109830  0.03716633  1  0.071433  2e-05  0.1012  0.10496  2e-06  1.014234  0.0
H  H15  1  0.73820101  0.71163598  0.95686198  1  0.062504  1.1e-05  0.100594  0.104362  -1.2e-05  1.012324  0.0
H  H16  1  0.01721038  0.05532473  0.19960036  1  0.620159  0.003972  0.318977  0.404346  0.001806  0.877602  0.005
H  H17  1  0.01403149  0.28416666  0.46102896  1  0.066623  0.0  0.100789  0.104872  -3e-06  1.012729  0.0
H  H18  1  0.01259541  0.49790936  0.34968375  1  0.081537  1e-06  0.10174  0.108506  -4e-06  1.003942  0.0
H  H19  1  0.98077609  0.95199179  0.80430625  1  0.607681  0.004872  0.320794  0.405792  0.002123  0.875026  0.006
H  H20  1  0.00560518  0.28449199  0.54107109  1  0.062608  1e-06  0.100352  0.103505  -4e-06  1.016421  0.0
H  H21  1  0.98023977  0.49908761  0.65117757  1  0.050536  1e-06  0.101829  0.108252  -5e-06  1.003723  0.0
H  H22  1  0.97749604  0.71294740  0.53978922  1  0.091496  1e-06  0.101365  0.105129  -2e-06  1.012583  0.0
H  H23  1  0.98685651  0.71268725  0.45970304  1  0.085525  2e-06  0.10091  0.10462  -2e-06  1.013145  0.0
H  H24  1  0.85190360  0.28961731  0.59342099  1  0.06919  0.000184  0.105225  0.108349  7.9e-05  0.992005  0.0
H  H25  1  0.85485635  0.16097538  0.64007476  1  0.088362  -7e-06  0.106332  0.10751  -0.000117  0.997506  0.0
H  H26  1  0.64144898  0.38396270  0.65254281  1  0.036866  0.000217  0.10275  0.105259  7.1e-05  0.995333  0.0
H  H27  1  0.64283131  0.25380500  0.69882376  1  0.113718  0.000433  0.108034  0.113488  0.000102  0.994696  0.0
H  H28  1  0.90794996  0.23603654  0.80838917  1  0.10196  0.000126  0.110593  0.117205  -1.1e-05  0.989934  0.0
H  H29  1  0.61670761  0.16434448  0.85241073  1  0.08591  0.000432  0.111686  0.121296  0.000106  0.986531  0.0
H  H30  1  0.61173861  0.29625647  0.89740284  1  0.0698  -5.3e-05  0.104158  0.107109  -5.1e-05  0.994167  0.0
H  H31  1  0.90158693  0.36996359  0.85146511  1  0.036139  0.000184  0.102216  0.104994  6.7e-05  0.996935  0.0
H  H32  1  0.89433615  0.82553569  0.85064676  1  0.069322  3e-06  0.105639  0.106092  -0.000113  1.001554  0.0
H  H33  1  0.89488332  0.69706357  0.89765830  1  0.059471  0.000182  0.104355  0.108603  7.6e-05  0.992383  0.0
H  H34  1  0.60120611  0.62880074  0.85217608  1  0.062599  -3.8e-05  0.103429  0.106802  -3.4e-05  0.993582  0.0
H  H35  1  0.59964760  0.75959432  0.80652679  1  0.100461  0.000443  0.10868  0.114665  0.00011  0.994832  0.0
H  H36  1  0.63884137  0.83693702  0.64508658  1  0.104058  0.000509  0.110389  0.118719  0.000145  0.988233  0.0
H  H37  1  0.83977355  0.62613760  0.64753578  1  0.049276  0.000192  0.101746  0.103884  7.3e-05  0.998166  0.0
H  H38  1  0.83673445  0.75839390  0.69185874  1  0.091086  0.000125  0.109672  0.116052  -7e-06  0.991111  0.0
H  H39  1  0.64555923  0.70695681  0.59853417  1  0.074612  0.000208  0.102807  0.10501  6.5e-05  0.996654  0.0
H  H40  1  0.65972383  0.23957298  0.31011691  1  0.090757  0.000475  0.106641  0.112311  0.000114  0.99676  0.0
H  H41  1  0.86608645  0.16612765  0.35651821  1  0.087538  0.000344  0.106212  0.11  6.6e-05  0.997292  0.0
H  H42  1  0.65397975  0.37214291  0.35456606  1  0.051449  0.000216  0.101724  0.10363  7.1e-05  0.998059  0.0
H  H43  1  0.86424737  0.29681750  0.40201366  1  0.070871  -5.8e-05  0.103853  0.106901  -5.1e-05  0.993933  0.0
H  H44  1  0.86844516  0.62103623  0.34822517  1  0.047937  -4.3e-05  0.102878  0.10503  -3.8e-05  0.995314  0.0
H  H45  1  0.86872780  0.75106683  0.30201627  1  0.119141  0.000438  0.110916  0.117903  0.000114  0.99041  0.0
H  H46  1  0.64028784  0.82622136  0.34905280  1  0.112033  0.000586  0.111849  0.121186  0.000161  0.987377  0.0
H  H47  1  0.64747351  0.69844327  0.39723023  1  0.077276  0.000194  0.103885  0.106225  6e-05  0.993443  0.0
H  H48  1  0.88876930  0.83116146  0.14005237  1  0.114355  0.000525  0.110529  0.117447  0.000151  0.988238  0.0
H  H49  1  0.89033942  0.70319110  0.09196461  1  0.084975  0.000204  0.103923  0.106224  6.3e-05  0.994687  0.0
H  H50  1  0.61014143  0.74691448  0.19315551  1  0.129098  0.000483  0.110117  0.116626  0.000117  0.990125  0.0
H  H51  1  0.61406072  0.61615381  0.14720642  1  0.087697  0.000212  0.102228  0.104207  6.8e-05  0.996855  0.0
H  H52  1  0.61933473  0.15990347  0.13743241  1  0.081582  0.000433  0.10533  0.108273  9.3e-05  0.996887  0.0
H  H53  1  0.89818738  0.24395871  0.19258269  1  0.094036  0.000416  0.106509  0.112338  9.6e-05  0.997911  0.0
H  H54  1  0.89373426  0.37488353  0.14712652  1  0.064165  0.000219  0.102047  0.10436  7.5e-05  0.996715  0.0
H  H55  1  0.61639089  0.28862810  0.09039112  1  0.084264  0.000202  0.104196  0.107231  6.7e-05  0.99264  0.0
H  H56  1  0.24779165  0.04650789  0.69451764  1  0.604001  0.008707  0.315343  0.41234  0.004012  0.879241  0.01
H  H57  1  0.26293154  0.28626016  0.96504029  1  0.042519  1.6e-05  0.101473  0.104802  2e-06  1.012672  0.0
H  H58  1  0.25109281  0.49716985  0.85255298  1  0.035796  1e-05  0.101966  0.107951  2e-06  1.003651  0.0
H  H59  1  0.24108109  0.95065361  0.30415079  1  0.59902  0.003952  0.317643  0.402031  0.001719  0.881139  0.005
H  H60  1  0.26181891  0.28861226  0.04524858  1  0.069045  1.3e-05  0.100533  0.103951  -9e-06  1.015888  0.0
H  H61  1  0.24300189  0.50612073  0.15431485  1  0.088847  -1e-06  0.102003  0.108216  -1.4e-05  1.003727  0.0
H  H62  1  0.23735031  0.71731311  0.04177897  1  0.089293  1e-05  0.101184  0.104947  -8e-06  1.013278  0.0
H  H63  1  0.24021603  0.71496642  0.96158224  1  0.073299  1.6e-05  0.100431  0.103975  1e-06  1.014623  0.0
H  H64  1  0.50722648  0.04349621  0.19245216  1  0.612601  0.008178  0.315515  0.413605  0.003887  0.877214  0.009
H  H65  1  0.52093251  0.28526857  0.46131806  1  0.071813  2.3e-05  0.100803  0.10473  -4e-06  1.012771  0.0
H  H66  1  0.50488449  0.49541209  0.34861958  1  0.042781  9e-06  0.10204  0.108878  -4e-06  1.001606  0.0
H  H67  1  0.49589020  0.95797811  0.80787439  1  0.605797  0.009017  0.316129  0.413041  0.004178  0.877577  0.01
H  H68  1  0.51925202  0.28800668  0.54160305  1  0.054189  2.6e-05  0.100671  0.104361  -1e-06  1.014739  0.0
H  H69  1  0.50014369  0.50616562  0.65015021  1  0.022672  9e-06  0.102168  0.108617  -3e-06  1.003595  0.0
H  H70  1  0.49731165  0.71685386  0.53754942  1  0.097781  2.3e-05  0.101486  0.105699  -1e-06  1.012265  0.0
H  H71  1  0.49766574  0.71399055  0.45720443  1  0.079953  2.6e-05  0.101142  0.10515  -2e-06  1.01247  0.0
H  H72  1  0.36592594  0.29811857  0.59392896  1  0.035938  0.000198  0.104975  0.107863  6.3e-05  0.991508  0.0
H  H73  1  0.36536819  0.17054708  0.64195811  1  0.077066  0.000536  0.106424  0.109388  0.000135  0.995666  0.0
H  H74  1  0.12549812  0.37888406  0.65251992  1  0.061673  -4.5e-05  0.103492  0.106124  -3.8e-05  0.993915  0.0
H  H75  1  0.13039426  0.24775430  0.69771884  1  0.092605  0.00043  0.109023  0.114909  0.000111  0.993323  0.0
H  H76  1  0.39189679  0.24331885  0.80930425  1  0.07703  0.000503  0.109034  0.116784  0.000121  0.99155  0.0
H  H77  1  0.11019426  0.16502851  0.86141998  1  0.107641  0.000469  0.109108  0.116364  0.000137  0.98815  0.0
H  H78  1  0.11128169  0.29344553  0.90919803  1  0.074553  0.000213  0.103179  0.107119  7e-05  0.995016  0.0
H  H79  1  0.39070422  0.37464355  0.85477830  1  0.048272  0.000213  0.10141  0.103441  7e-05  0.997991  0.0
H  H80  1  0.38573943  0.83213438  0.85789997  1  0.07383  0.000541  0.105638  0.107813  0.000135  0.998745  0.0
H  H81  1  0.39028886  0.70438733  0.90555363  1  0.070599  0.000191  0.104274  0.107029  6.2e-05  0.99296  0.0
H  H82  1  0.10713920  0.62065012  0.85374301  1  0.07635  0.000217  0.102438  0.104705  7.3e-05  0.996776  0.0
H  H83  1  0.10133184  0.75070594  0.80759530  1  0.103507  0.000434  0.107323  0.112297  0.0001  0.995858  0.0
H  H84  1  0.12473496  0.83142348  0.64440143  1  0.120852  0.000409  0.111336  0.120104  0.000116  0.987597  0.0
H  H85  1  0.35382370  0.63128868  0.64141829  1  0.054629  0.00021  0.101578  0.103848  6.7e-05  0.997199  0.0
H  H86  1  0.34626079  0.76355914  0.68617008  1  0.108921  0.000502  0.109594  0.11733  0.000126  0.991089  0.0
H  H87  1  0.12589878  0.70149511  0.59794379  1  0.058096  -5.5e-05  0.103807  0.10637  -5e-05  0.994494  0.0
H  H88  1  0.15705125  0.23550331  0.31129007  1  0.108769  0.000155  0.110023  0.11609  1.3e-05  0.991357  0.0
H  H89  1  0.37224202  0.16328203  0.35658978  1  0.075037  0.000502  0.110834  0.119413  0.000135  0.987353  0.0
H  H90  1  0.15393239  0.36837291  0.35509804  1  0.080697  0.000185  0.10246  0.10445  7.2e-05  0.996971  0.0
H  H91  1  0.36794097  0.29363058  0.40301480  1  0.067155  0.000217  0.103649  0.107278  7e-05  0.993595  0.0
H  H92  1  0.35415506  0.62211198  0.35451637  1  0.050653  0.000231  0.101877  0.104702  7.5e-05  0.995986  0.0
H  H93  1  0.34582318  0.75224930  0.30827386  1  0.102162  0.000458  0.106691  0.11128  0.00011  0.997851  0.0
H  H94  1  0.14679515  0.83207210  0.35932480  1  0.058596  -3.4e-05  0.106169  0.107339  -0.000137  0.99824  0.0
H  H95  1  0.14458595  0.70475960  0.40707905  1  0.070362  0.000185  0.104587  0.107759  7.6e-05  0.992444  0.0
H  H96  1  0.38301207  0.83894450  0.14587505  1  0.098512  0.000441  0.110993  0.120239  0.000116  0.986899  0.0
H  H97  1  0.38656125  0.70753447  0.10056289  1  0.078659  -5.2e-05  0.104115  0.107128  -5e-05  0.993065  0.0
H  H98  1  0.09382990  0.76639650  0.19196515  1  0.085876  0.000138  0.110346  0.117629  -8e-06  0.990394  0.0
H  H99  1  0.09863521  0.63300039  0.14854998  1  0.081156  0.000178  0.101814  0.103845  6.8e-05  0.998438  0.0
H  H100  1  0.11097728  0.16875147  0.14455519  1  0.095404  -1.6e-05  0.106442  0.107775  -0.000125  0.998178  0.0
H  H101  1  0.38567871  0.25496199  0.20320847  1  0.09085  0.000452  0.109089  0.115039  0.000123  0.992303  0.0
H  H102  1  0.38334219  0.38522484  0.15719644  1  0.062156  -4.6e-05  0.103922  0.106731  -3.9e-05  0.992805  0.0
H  H103  1  0.11060171  0.29641483  0.09708737  1  0.075105  0.000187  0.10516  0.108004  8e-05  0.992823  0.0
C  C104  1  0.76368604  0.11239695  0.80244943  1  1.545845  0.001295  0.234062  0.596048  -0.000598  4.121775  0.003
C  C105  1  0.75958634  0.34225330  0.97379176  1  -0.141449  0.001343  -0.093503  -0.12855  0.000604  4.023293  0.001
C  C106  1  0.75152903  0.49721810  0.97314744  1  -0.009865  8e-05  0.002645  0.00841  1.6e-05  3.915003  0.0
C  C107  1  0.75352103  0.42070502  0.90321190  1  0.05868  0.001522  -0.006576  0.024364  0.000694  3.995314  0.001
C  C108  1  0.75371141  0.41922411  0.94958296  1  -0.046204  -9.6e-05  -0.007456  0.028025  -0.000179  4.002582  0.0
C  C109  1  0.75177122  0.49801842  0.88132978  1  -0.096978  -0.000385  -0.092596  -0.188932  -0.00047  4.004944  0.0
C  C110  1  0.84313572  0.25011975  0.82772156  1  -0.078026  0.00083  -0.081227  -0.085454  0.000137  3.979835  0.001
C  C111  1  0.83930066  0.32464263  0.85173510  1  0.041268  0.001055  -0.092127  -0.14221  0.000463  3.98664  0.001
C  C112  1  0.67649149  0.28308433  0.87778544  1  -0.032748  0.0002  -0.090153  -0.141445  7e-06  3.99346  0.0
C  C113  1  0.67900909  0.20951709  0.85306322  1  -0.013787  -0.000252  -0.079861  -0.082417  -0.000543  3.971611  0.0
C  C114  1  0.76207750  0.11678928  0.19564739  1  1.565394  0.005939  0.229521  0.621821  0.004199  4.136586  0.005
C  C115  1  0.75926017  0.34182987  0.01848226  1  0.0282  2e-06  -0.095037  -0.131427  -9.8e-05  4.027605  0.0
C  C116  1  0.75180275  0.49683180  0.01994948  1  -0.010181  -0.000204  0.002299  0.007757  -0.000265  3.912398  0.0
C  C117  1  0.75301242  0.41893249  0.08947545  1  -0.119049  0.000503  -0.006457  0.024874  0.000181  3.990379  0.0
C  C118  1  0.75328839  0.41830811  0.04308252  1  0.030055  0.001245  -0.006499  0.030515  0.00057  3.996751  0.001
C  C119  1  0.75337821  0.49602177  0.11165260  1  0.008396  -1.6e-05  -0.091908  -0.188551  -6.1e-05  4.007883  0.0
C  C120  1  0.74671723  0.87329151  0.19706100  1  1.544614  0.00804  0.234471  0.618391  0.006142  4.132874  0.007
C  C121  1  0.74457667  0.65194062  0.01925550  1  -0.042448  5.8e-05  -0.093761  -0.129971  -6.5e-05  4.025186  0.0
C  C122  1  0.75288826  0.57343826  0.08984003  1  0.059414  0.000495  -0.006404  0.024043  0.00019  3.995777  0.0
C  C123  1  0.75093039  0.57498884  0.04346523  1  -0.077204  0.001296  -0.006447  0.03107  0.000577  3.996889  0.001
C  C124  1  0.74892128  0.79659957  0.16900585  1  -0.000584  0.01444  -0.018054  -0.045758  0.006846  3.984907  0.011
C  C125  1  0.75195234  0.65151928  0.11638251  1  0.035629  0.002467  -0.001725  0.084497  0.001116  4.003629  0.001
C  C126  1  0.75917123  0.19402291  0.16767420  1  -0.045948  0.014236  -0.020139  -0.044973  0.006769  3.975203  0.011
C  C127  1  0.83654872  0.25469271  0.17026974  1  -0.058598  0.001949  -0.084436  -0.087813  0.000854  3.990938  0.001
C  C128  1  0.83374861  0.32747745  0.14493763  1  -0.020697  0.000732  -0.091736  -0.13931  0.000297  3.988143  0.0
C  C129  1  0.75500154  0.34031776  0.11561031  1  -0.021755  0.001369  -0.002262  0.083245  0.000599  4.00024  0.001
C  C130  1  0.67818492  0.27879382  0.11280816  1  -0.04406  0.000553  -0.090221  -0.140561  0.00022  3.990615  0.0
C  C131  1  0.67960554  0.20698159  0.13898397  1  -0.022144  0.001903  -0.083072  -0.084621  0.00084  3.987615  0.001
C  C132  1  0.74546623  0.87588173  0.79677571  1  1.55217  -0.003752  0.235979  0.610079  -0.005967  4.110635  -0.002
C  C133  1  0.74383533  0.65224648  0.97454760  1  -0.076998  0.001315  -0.094483  -0.130833  0.000595  4.027094  0.001
C  C134  1  0.75010128  0.57496656  0.90364771  1  0.034829  0.001539  -0.007399  0.022091  0.000669  3.994305  0.001
C  C135  1  0.74950793  0.57566533  0.94998343  1  -0.04225  -0.000143  -0.007762  0.029377  -0.000232  4.003833  0.0
C  C136  1  0.74688401  0.80031396  0.82576659  1  -0.049158  0.005549  -0.01953  -0.049285  0.002196  3.987495  0.004
C  C137  1  0.66405636  0.74499546  0.82649105  1  -0.013722  -0.001219  -0.082611  -0.085835  -0.0016  3.982532  -0.001
C  C138  1  0.66530585  0.67220597  0.85191192  1  -0.009205  0.000563  -0.090677  -0.140064  0.000162  3.985222  0.0
C  C139  1  0.74828433  0.65409425  0.87779166  1  -0.072336  -0.001443  -3.9e-05  0.086099  -0.001679  4.000442  -0.001
C  C140  1  0.83018085  0.71075890  0.87762902  1  -0.05837  0.001413  -0.089709  -0.141061  0.000608  3.98748  0.001
C  C141  1  0.83002231  0.78258905  0.85149261  1  0.016842  -0.000676  -0.082807  -0.083842  -0.001208  3.991336  0.0
C  C142  1  0.76279148  0.19221436  0.82826079  1  -0.037646  0.004721  -0.018116  -0.045368  0.001788  3.983071  0.004
C  C143  1  0.75647847  0.34168365  0.87735570  1  -0.057246  2e-05  -0.001788  0.083763  -0.000113  4.004325  0.0
C  C144  1  0.67139664  0.73614441  0.17112007  1  -0.122557  0.002982  -0.080692  -0.083251  0.001325  3.982481  0.002
C  C145  1  0.67382290  0.66374698  0.14549837  1  -0.07868  0.000596  -0.092548  -0.141923  0.000209  3.992257  0.0
C  C146  1  0.82897496  0.71286016  0.11417531  1  -0.097208  0.000566  -0.09017  -0.141202  0.000193  3.990054  0.0
C  C147  1  0.82831869  0.78418466  0.14074772  1  -0.021231  0.002788  -0.07978  -0.083222  0.001264  3.977085  0.002
C  C148  1  0.01218188  0.11346811  0.30466110  1  1.555718  -0.000695  0.233801  0.599128  -0.002538  4.114765  0.001
C  C149  1  0.00638943  0.34352828  0.47851671  1  -0.067173  0.000106  -0.09422  -0.130358  3e-05  4.027495  0.0
C  C150  1  0.99866238  0.49847652  0.47702317  1  -0.003897  -1.7e-05  0.002658  0.007891  -2e-05  3.908794  0.0
C  C151  1  0.00692168  0.42081926  0.40747264  1  0.043443  0.000298  -0.006528  0.022991  0.000102  3.989092  0.0
C  C152  1  0.00289802  0.42009710  0.45383539  1  -0.031479  3.6e-05  -0.006993  0.029825  -7e-06  3.999573  0.0
C  C153  1  0.00890894  0.49802241  0.38537130  1  -0.141799  -0.000137  -0.092953  -0.188662  -0.000163  4.004278  0.0
C  C154  1  0.01173333  0.19264514  0.33127894  1  -0.057227  0.004933  -0.018378  -0.044269  0.001917  3.980299  0.004
C  C155  1  0.59606883  0.25242477  0.33042436  1  -0.061393  0.002253  -0.084171  -0.087222  0.000982  3.990918  0.001
C  C156  1  0.59256662  0.32596341  0.35512891  1  -0.022066  0.000813  -0.092353  -0.141065  0.000329  3.990383  0.001
C  C157  1  0.51079251  0.34116793  0.38171440  1  -0.029896  0.001699  -0.001722  0.084473  0.000768  4.006878  0.001
C  C158  1  0.92838388  0.28353423  0.38202353  1  -0.076531  0.000288  -0.08996  -0.139951  3.5e-05  3.988146  0.0
C  C159  1  0.92916431  0.21047837  0.35674758  1  -0.016095  -0.001034  -0.082999  -0.086562  -0.001357  3.987115  -0.001
C  C160  1  0.99618610  0.12049856  0.70049541  1  1.541254  -0.004622  0.236651  0.611616  -0.007011  4.107913  -0.003
C  C161  1  0.00161177  0.34371845  0.52314381  1  -0.015403  0.00018  -0.094721  -0.1306  6.6e-05  4.027073  0.0
C  C162  1  0.99314861  0.49866506  0.52380000  1  -0.039674  2e-06  0.002799  0.008708  -6e-06  3.908836  0.0
C  C163  1  0.98697608  0.42165316  0.59359154  1  -0.065225  0.000411  -0.007444  0.023006  0.000132  3.989825  0.0
C  C164  1  0.99251667  0.42045447  0.54728253  1  0.042672  -0.000103  -0.007067  0.029924  -0.000143  3.998614  0.0
C  C165  1  0.98337349  0.49899653  0.61547343  1  0.016777  -0.000184  -0.092517  -0.188608  -0.000216  4.003238  0.0
C  C166  1  0.98854633  0.34310772  0.61987599  1  -0.080763  -0.001703  -0.001123  0.085187  -0.001963  3.997154  -0.001
C  C167  1  0.98109642  0.88242287  0.69700619  1  1.526581  -0.000798  0.234291  0.595246  -0.002639  4.119295  0.001
C  C168  1  0.98536634  0.65362494  0.52229847  1  -0.112777  0.000181  -0.093395  -0.128441  6.6e-05  4.023486  0.0
C  C169  1  0.98468998  0.57624939  0.59338875  1  -0.059918  0.000386  -0.00624  0.024307  0.000144  3.98642  0.0
C  C170  1  0.98875718  0.57705484  0.54699969  1  0.029938  -5.1e-05  -0.006785  0.029361  -8.6e-05  3.996517  0.0
C  C171  1  0.99305848  0.19637258  0.67171029  1  -0.021203  0.005773  -0.019227  -0.048538  0.00232  3.987639  0.004
C  C172  1  0.58221995  0.26462128  0.67597905  1  -0.040958  0.002287  -0.082331  -0.085357  0.001013  3.986013  0.001
C  C173  1  0.58117449  0.33685564  0.65019346  1  -0.028668  0.0008  -0.091239  -0.139802  0.000327  3.986379  0.001
C  C174  1  0.91296080  0.28057401  0.61634149  1  -0.027122  0.001424  -0.089332  -0.139168  0.000611  3.986471  0.001
C  C175  1  0.91447551  0.20855424  0.64236112  1  -0.032736  -0.000879  -0.083116  -0.086427  -0.001402  3.990689  0.0
C  C176  1  0.00702713  0.87465658  0.29843194  1  1.543213  -0.002715  0.237044  0.607902  -0.004778  4.111466  -0.001
C  C177  1  0.99063912  0.65347715  0.47766255  1  -0.017152  0.000103  -0.094594  -0.131036  2.7e-05  4.024264  0.0
C  C178  1  0.00592814  0.57548011  0.40722886  1  0.036217  0.000324  -0.006515  0.023344  0.0001  3.986616  0.0
C  C179  1  0.99976161  0.57671560  0.45353171  1  -0.032948  -7e-06  -0.006738  0.030262  -4.5e-05  3.997248  0.0
C  C180  1  0.49239447  0.79668002  0.32635133  1  0.000644  0.014096  -0.020191  -0.047919  0.006687  3.989142  0.011
C  C181  1  0.92925805  0.73970226  0.32481690  1  -0.063374  -0.000955  -0.079927  -0.082711  -0.001305  3.977428  -0.001
C  C182  1  0.92938359  0.66749357  0.35067086  1  -0.015928  0.000381  -0.090737  -0.138533  7.5e-05  3.985055  0.0
C  C183  1  0.00653333  0.65393328  0.38073273  1  -0.029509  -0.001125  -0.001072  0.083276  -0.00131  3.997012  -0.001
C  C184  1  0.58153234  0.71033069  0.37763626  1  -0.025545  0.000502  -0.089347  -0.139996  0.000192  3.990487  0.0
C  C185  1  0.57780407  0.78144467  0.35110596  1  -0.097363  0.002737  -0.079064  -0.082173  0.001224  3.973879  0.002
C  C186  1  0.49195860  0.80760651  0.66795054  1  -0.050303  0.014497  -0.019344  -0.043479  0.006808  3.98098  0.011
C  C187  1  0.90012790  0.74515973  0.67145321  1  0.00302  0.000259  -0.081908  -0.087579  -0.000283  3.980241  0.0
C  C188  1  0.90203142  0.67146430  0.64660900  1  0.001938  0.001196  -0.091529  -0.140134  0.000525  3.985876  0.001
C  C189  1  0.98263399  0.65518386  0.61945310  1  -0.09232  -0.00066  -0.002604  0.081239  -0.000795  4.000928  0.0
C  C190  1  0.57993822  0.71944931  0.61772884  1  -0.055587  0.000571  -0.091002  -0.142661  0.000222  3.991699  0.0
C  C191  1  0.57647833  0.79187554  0.64338833  1  -0.033216  0.002683  -0.08043  -0.082543  0.001228  3.975032  0.002
C  C192  1  0.25272646  0.11959692  0.80463066  1  1.549593  0.005273  0.22954  0.614322  0.003817  4.145298  0.005
C  C193  1  0.25701247  0.34603478  0.98232424  1  -0.065202  3.2e-05  -0.093481  -0.128565  -9.4e-05  4.023638  0.0
C  C194  1  0.25032528  0.50104734  0.98003817  1  -0.000103  -0.000198  0.003166  0.007802  -0.000253  3.912141  0.0
C  C195  1  0.25065390  0.42167323  0.91090313  1  -0.019452  0.000526  -0.005919  0.025057  0.000195  3.990455  0.0
C  C196  1  0.25138905  0.42202589  0.95729212  1  0.026601  0.001167  -0.007139  0.030419  0.000528  3.997328  0.001
C  C197  1  0.25102110  0.49831331  0.88828576  1  0.006702  -3.7e-05  -0.092514  -0.187932  -7.6e-05  4.005064  0.0
C  C198  1  0.33044348  0.25555203  0.83099805  1  -0.029692  0.002279  -0.081998  -0.083465  0.001028  3.980846  0.001
C  C199  1  0.32954055  0.32833782  0.85640108  1  0.035178  0.000703  -0.093231  -0.143734  0.000283  3.993589  0.0
C  C200  1  0.17269603  0.28249126  0.88719850  1  -0.055579  0.000724  -0.09167  -0.145319  0.000288  3.992355  0.0
C  C201  1  0.17190114  0.21081375  0.86079039  1  -0.053643  0.00208  -0.081235  -0.08423  0.000922  3.978149  0.001
C  C202  1  0.25148818  0.12776468  0.20512689  1  1.55151  -0.00442  0.235454  0.607374  -0.006814  4.112025  -0.003
C  C203  1  0.25637133  0.34737282  0.02702138  1  -0.010921  0.001302  -0.095057  -0.13193  0.00059  4.025923  0.001
C  C204  1  0.24903135  0.50244181  0.02686117  1  -0.036732  8.9e-05  0.002398  0.006871  1.7e-05  3.911359  0.0
C  C205  1  0.24655550  0.42724896  0.09715620  1  0.023987  0.001594  -0.007656  0.020821  0.000685  3.992635  0.001
C  C206  1  0.24944734  0.42478976  0.05080278  1  -0.005324  -0.000252  -0.00634  0.031476  -0.000342  3.996512  0.0
C  C207  1  0.24484559  0.50516502  0.11859542  1  -0.111571  -0.000404  -0.092681  -0.187786  -0.000491  4.004491  0.0
C  C208  1  0.23752192  0.89033004  0.19728208  1  1.561654  0.000664  0.233811  0.595386  -0.001246  4.119792  0.002
C  C209  1  0.24274167  0.65745193  0.02454198  1  0.031216  0.00125  -0.09421  -0.129535  0.000569  4.023919  0.001
C  C210  1  0.24525842  0.58180006  0.09601915  1  -0.078703  0.001558  -0.006032  0.024306  0.000697  3.988174  0.001
C  C211  1  0.24687465  0.58142265  0.04961922  1  0.038703  -0.000204  -0.006928  0.030435  -0.00028  3.996276  0.0
C  C212  1  0.23794555  0.81086526  0.17108729  1  -0.042701  0.004844  -0.017349  -0.042631  0.00183  3.980114  0.004
C  C213  1  0.24266552  0.66148276  0.12145968  1  -0.032073  -0.000277  -0.001217  0.083641  -0.000403  3.997775  0.0
C  C214  1  0.24871958  0.20397818  0.17665006  1  -0.044174  0.005978  -0.019255  -0.048177  0.00239  3.990868  0.005
C  C215  1  0.32550299  0.26508375  0.18003690  1  -0.020061  -0.001514  -0.082733  -0.087032  -0.001924  3.987722  -0.001
C  C216  1  0.32384953  0.33749526  0.15438415  1  -0.060943  0.000671  -0.090841  -0.137722  0.000203  3.9844  0.0
C  C217  1  0.24708454  0.34943324  0.12394648  1  -0.010681  -0.001705  -0.000547  0.08564  -0.001974  3.997014  -0.001
C  C218  1  0.17086620  0.28744640  0.12042669  1  -0.074739  0.001582  -0.08988  -0.139316  0.000684  3.986146  0.001
C  C219  1  0.17090041  0.21604017  0.14689404  1  -0.023529  -0.000903  -0.082915  -0.086481  -0.001436  3.990922  0.0
C  C220  1  0.23936282  0.87626716  0.80203372  1  1.579975  0.006711  0.233901  0.623915  0.005066  4.127507  0.007
C  C221  1  0.24434574  0.65613555  0.97984869  1  -0.11917  5e-06  -0.094282  -0.131065  -0.000123  4.025865  0.0
C  C222  1  0.25104582  0.57621333  0.90969718  1  0.014631  0.000502  -0.007095  0.02227  0.000188  3.99209  0.0
C  C223  1  0.24997562  0.57867291  0.95607620  1  -0.048158  0.001179  -0.007522  0.030765  0.000527  3.999503  0.001
C  C224  1  0.24291924  0.79941284  0.83013241  1  -0.049502  0.013889  -0.019693  -0.047454  0.006487  3.979969  0.01
C  C225  1  0.16443226  0.73966570  0.82903339  1  -0.068084  0.002258  -0.081814  -0.084542  0.000993  3.984741  0.001
C  C226  1  0.16801120  0.66735049  0.85472854  1  -0.014521  0.000689  -0.091245  -0.139576  0.000274  3.983901  0.0
C  C227  1  0.24879675  0.65401797  0.88287059  1  -0.039039  0.001668  -0.000203  0.086092  0.000737  3.996997  0.001
C  C228  1  0.32689958  0.71451456  0.88406494  1  -0.01781  0.000596  -0.09037  -0.140764  0.000236  3.988552  0.0
C  C229  1  0.32455404  0.78586479  0.85758377  1  -0.057094  0.002095  -0.082487  -0.084287  0.00092  3.987647  0.001
C  C230  1  0.25122307  0.19658995  0.83278397  1  -0.023769  0.014858  -0.018727  -0.04224  0.007061  3.974438  0.011
C  C231  1  0.25108482  0.34259202  0.88506762  1  -0.100896  0.001665  -0.002434  0.083786  0.000733  4.002932  0.001
C  C232  1  0.15783182  0.75270688  0.17202998  1  -0.039157  0.000596  -0.080917  -0.086258  -5.8e-05  3.979995  0.001
C  C233  1  0.16083777  0.67839584  0.14778145  1  -0.074683  0.001164  -0.092036  -0.140945  0.000505  3.985875  0.001
C  C234  1  0.32235045  0.72042402  0.12058302  1  -0.019651  0.000289  -0.090478  -0.141626  4.4e-05  3.990461  0.0
C  C235  1  0.32065039  0.79382926  0.14554151  1  -0.023808  -0.000559  -0.079625  -0.082786  -0.000859  3.972009  -0.001
C  C236  1  0.51924280  0.11588626  0.30387828  1  1.550153  0.006415  0.23041  0.61718  0.004618  4.140808  0.005
C  C237  1  0.51502344  0.34509682  0.47855461  1  -0.087821  0.001164  -0.094065  -0.130068  0.000535  4.026111  0.001
C  C238  1  0.50753459  0.50009031  0.47605747  1  0.077618  -6.4e-05  0.002324  0.006869  -0.000109  3.917965  0.0
C  C239  1  0.50801304  0.42050043  0.40714685  1  -0.022593  0.001635  -0.00721  0.023066  0.000748  4.00212  0.001
C  C240  1  0.50909709  0.42100397  0.45347346  1  -0.044972  0.000825  -0.006911  0.030837  0.000368  4.003681  0.0
C  C241  1  0.50598693  0.49676463  0.38434926  1  0.002721  -0.000241  -0.092555  -0.18922  -0.000317  4.009309  0.0
C  C242  1  0.51652466  0.19376873  0.33113082  1  -0.027249  0.014428  -0.02066  -0.045834  0.006861  3.984635  0.011
C  C243  1  0.09285998  0.24984529  0.33096646  1  -0.024816  0.000354  -0.081323  -0.084017  -0.000196  3.978514  0.0
C  C244  1  0.09083165  0.32388017  0.35548983  1  -0.057089  0.00106  -0.091098  -0.139697  0.000461  3.984222  0.001
C  C245  1  0.00901912  0.34156994  0.38163748  1  -0.021172  -0.000678  -0.001212  0.084319  -0.000807  3.997387  0.0
C  C246  1  0.43181921  0.28163059  0.38261429  1  -0.059471  0.00059  -0.090765  -0.143121  0.000241  3.993682  0.0
C  C247  1  0.43396938  0.20905076  0.35705853  1  0.012981  0.002365  -0.080306  -0.082897  0.001084  3.976973  0.002
C  C248  1  0.50585026  0.12752318  0.70097072  1  1.562664  0.007021  0.234203  0.624944  0.005228  4.125484  0.007
C  C249  1  0.51403899  0.34662534  0.52323629  1  -0.012189  0.000925  -0.095092  -0.132172  0.000425  4.028452  0.0
C  C250  1  0.50693355  0.50172091  0.52280892  1  -0.043761  -0.00012  0.002405  0.008007  -0.000175  3.915616  0.0
C  C251  1  0.50406400  0.42693807  0.59315689  1  -0.02396  0.001475  -0.007573  0.022815  0.000661  3.996673  0.001
C  C252  1  0.50720792  0.42420510  0.54684725  1  -0.022963  0.001047  -0.006876  0.0299  0.000477  3.999502  0.001
C  C253  1  0.50264721  0.50490910  0.61445326  1  -0.045458  -0.000196  -0.092921  -0.189733  -0.000268  4.009038  0.0
C  C254  1  0.50388333  0.34937140  0.62008487  1  -0.028849  0.001714  -0.000838  0.085944  0.000767  3.999471  0.001
C  C255  1  0.48756338  0.88467721  0.69570151  1  1.575544  0.006352  0.229715  0.61277  0.004761  4.147401  0.006
C  C256  1  0.50147724  0.65689274  0.52029835  1  0.01344  0.000872  -0.094262  -0.130274  0.00041  4.022915  0.0
C  C257  1  0.50379932  0.58129509  0.59170340  1  -0.074046  0.001412  -0.005878  0.026051  0.000634  3.997694  0.001
C  C258  1  0.50535680  0.58084385  0.54537751  1  0.06248  0.001061  -0.006406  0.030439  0.000489  4.000977  0.001
C  C259  1  0.50431250  0.20449842  0.67303790  1  -0.005327  0.013903  -0.020241  -0.047684  0.006556  3.983679  0.01
C  C260  1  0.06947032  0.25784811  0.67493776  1  -0.081267  -0.001568  -0.083453  -0.087732  -0.001968  3.986204  -0.001
C  C261  1  0.06636849  0.33081953  0.64973218  1  0.047497  0.000575  -0.08994  -0.137482  0.000153  3.984146  0.0
C  C262  1  0.42648217  0.28844107  0.61702922  1  -9.7e-05  0.00072  -0.090091  -0.140353  0.000297  3.988876  0.0
C  C263  1  0.42595304  0.21730663  0.64369084  1  -0.034101  0.002094  -0.082715  -0.085407  0.000913  3.988366  0.001
C  C264  1  0.48808858  0.87370512  0.29867463  1  1.54212  0.007553  0.233794  0.619195  0.005741  4.133936  0.007
C  C265  1  0.50166063  0.65530097  0.47560723  1  -0.159054  0.001219  -0.093279  -0.129424  0.000549  4.023254  0.001
C  C266  1  0.50523973  0.57461024  0.40569538  1  0.031827  0.001628  -0.007159  0.02388  0.000753  4.000039  0.001
C  C267  1  0.50600032  0.57752384  0.45200788  1  -0.034871  0.000837  -0.007024  0.030396  0.000367  4.001828  0.0
C  C268  1  0.00794768  0.79917891  0.32759568  1  -0.034119  0.005712  -0.01833  -0.046615  0.002306  3.98127  0.004
C  C269  1  0.41160511  0.73939276  0.32770937  1  -0.043896  0.002626  -0.083161  -0.086659  0.001181  3.992776  0.002
C  C270  1  0.41657354  0.66723115  0.35341306  1  -0.00206  0.000787  -0.091461  -0.141176  0.000315  3.988235  0.001
C  C271  1  0.50116416  0.65221134  0.37888959  1  -0.043161  0.002218  -0.001033  0.084964  0.001006  4.004285  0.001
C  C272  1  0.08418825  0.71466049  0.38392419  1  -0.055313  0.001308  -0.090043  -0.139966  0.000565  3.985597  0.001
C  C273  1  0.08560952  0.78592698  0.35726682  1  0.014062  -0.0004  -0.083189  -0.086707  -0.000941  3.988932  0.0
C  C274  1  0.98041277  0.80315979  0.67047578  1  -0.031638  0.005227  -0.017274  -0.04181  0.002038  3.976815  0.004
C  C275  1  0.41144013  0.74992521  0.66699776  1  -0.039967  0.002788  -0.081442  -0.083548  0.001243  3.982409  0.002
C  C276  1  0.41602282  0.67670606  0.64212578  1  -0.045266  0.000635  -0.09296  -0.142767  0.00023  3.994287  0.0
C  C277  1  0.50004416  0.66070626  0.61709206  1  -0.017282  0.002294  -0.00219  0.082541  0.001041  4.006876  0.001
C  C278  1  0.06252683  0.71396774  0.61856647  1  -0.055283  0.000276  -0.089853  -0.139809  2.4e-05  3.990487  0.0
C  C279  1  0.06214672  0.78653153  0.64422257  1  -0.02423  -0.000908  -0.081183  -0.085024  -0.001246  3.973163  -0.001
O  O280  1  0.75146643  0.00721876  0.71865723  1  -1.04748  0.173728  -0.546817  -0.782159  0.085112  2.210597  0.134
O  O281  1  0.84552655  0.09560930  0.78383654  1  -1.064996  0.01944  -0.281933  -0.46767  0.004965  2.361244  0.01
O  O282  1  0.75579878  0.99602442  0.28187831  1  -1.1362  0.304599  -0.568674  -0.861691  0.147192  2.091884  0.237
O  O283  1  0.68234832  0.07236782  0.19937318  1  -1.162823  0.109946  -0.310173  -0.583939  0.051482  2.310626  0.088
O  O284  1  0.82523938  0.91968436  0.19969650  1  -1.139988  0.130105  -0.304642  -0.553865  0.060543  2.30797  0.103
O  O285  1  0.84476770  0.10100259  0.21379748  1  -1.150095  0.110645  -0.309107  -0.57288  0.051748  2.304861  0.091
O  O286  1  0.66481580  0.89097624  0.77709657  1  -1.148859  0.111873  -0.30008  -0.548354  0.052608  2.321994  0.09
O  O287  1  0.68477070  0.06724560  0.80068327  1  -1.14752  0.110444  -0.302473  -0.553976  0.051703  2.333193  0.089
O  O288  1  0.82635272  0.91963079  0.79377903  1  -1.094036  0.002481  -0.289027  -0.511357  -0.006141  2.409951  0.002
O  O289  1  0.66617996  0.88773798  0.21663306  1  -1.136801  0.128517  -0.301237  -0.546046  0.059748  2.295525  0.102
O  O290  1  0.00911316  0.00930385  0.22061340  1  -1.066781  0.180818  -0.547363  -0.778537  0.088115  2.220255  0.14
O  O291  1  0.60108502  0.09981151  0.28568109  1  -1.142585  0.120739  -0.307549  -0.56975  0.056238  2.3058  0.099
O  O292  1  0.99078687  0.99064610  0.77980744  1  -1.059124  0.174512  -0.548138  -0.784335  0.085498  2.22247  0.134
O  O293  1  0.91567790  0.07636783  0.70383881  1  -1.091176  0.001993  -0.288656  -0.510962  -0.006367  2.408408  0.001
O  O294  1  0.56503632  0.93262573  0.69809251  1  -1.138414  0.125576  -0.310454  -0.567993  0.058321  2.315647  0.101
O  O295  1  0.58758895  0.11122076  0.71982193  1  -1.149036  0.115875  -0.305725  -0.559476  0.054268  2.289795  0.093
O  O296  1  0.92774686  0.88803130  0.27742062  1  -1.136828  0.115169  -0.296573  -0.535473  0.054097  2.322493  0.092
O  O297  1  0.93202114  0.07040795  0.30039433  1  -1.160595  0.099798  -0.303513  -0.567121  0.046863  2.313202  0.081
O  O298  1  0.56749311  0.91820475  0.29492630  1  -1.14555  0.133591  -0.302203  -0.550909  0.062367  2.335328  0.106
O  O299  1  0.89811185  0.90132025  0.71408104  1  -1.058082  0.021203  -0.283307  -0.469176  0.006045  2.36158  0.012
O  O300  1  0.24500232  0.00428418  0.71759956  1  -1.138517  0.292363  -0.570373  -0.867597  0.141532  2.099735  0.226
O  O301  1  0.33446655  0.10485469  0.78608822  1  -1.140855  0.126  -0.306091  -0.559823  0.058718  2.318082  0.103
O  O302  1  0.24861894  0.99509274  0.28220556  1  -1.046446  0.176095  -0.544997  -0.77691  0.086098  2.195694  0.137
O  O303  1  0.17093709  0.08376076  0.20846461  1  -1.09085  0.003443  -0.286756  -0.506432  -0.005463  2.411011  0.003
O  O304  1  0.31602117  0.93605420  0.19896136  1  -1.147246  0.110877  -0.302214  -0.55408  0.052008  2.330515  0.089
O  O305  1  0.33306710  0.11226665  0.22398891  1  -1.143425  0.116485  -0.300322  -0.546255  0.054728  2.319769  0.093
O  O306  1  0.15720105  0.89177388  0.78338021  1  -1.145041  0.11422  -0.30547  -0.559562  0.053403  2.292167  0.091
O  O307  1  0.17352415  0.07425072  0.80110508  1  -1.139774  0.119762  -0.30784  -0.566249  0.055806  2.2972  0.097
O  O308  1  0.31844670  0.92155851  0.79851062  1  -1.155455  0.121185  -0.306362  -0.570878  0.056622  2.312995  0.096
O  O309  1  0.15602018  0.90625966  0.21640730  1  -1.063266  0.020915  -0.281212  -0.465795  0.005671  2.36992  0.011
O  O310  1  0.50203226  0.00445110  0.21692122  1  -1.148889  0.296179  -0.568597  -0.868165  0.143225  2.099062  0.229
O  O311  1  0.09594885  0.09567622  0.28809587  1  -1.062859  0.020981  -0.283214  -0.469549  0.006379  2.367937  0.011
O  O312  1  0.49883778  0.99689216  0.78329976  1  -1.142523  0.292742  -0.570498  -0.869938  0.141712  2.103428  0.226
O  O313  1  0.42616456  0.08287971  0.70410475  1  -1.155045  0.122688  -0.305794  -0.570148  0.057241  2.309166  0.097
O  O314  1  0.06165985  0.92489895  0.70052470  1  -1.145994  0.109653  -0.299064  -0.54913  0.051363  2.321856  0.089
O  O315  1  0.07735627  0.10562532  0.71978004  1  -1.149497  0.110682  -0.300044  -0.55007  0.052193  2.320631  0.089
O  O316  1  0.40540563  0.89076751  0.28082263  1  -1.145386  0.117754  -0.305928  -0.55986  0.055035  2.287499  0.095
O  O317  1  0.43977137  0.07081695  0.30070560  1  -1.14485  0.122036  -0.307723  -0.56441  0.056641  2.319737  0.098
O  O318  1  0.08672780  0.92038197  0.29655804  1  -1.091612  -7.3e-05  -0.287757  -0.510047  -0.007979  2.398683  0.0
O  O319  1  0.40655022  0.89744281  0.71514728  1  -1.139151  0.125323  -0.302999  -0.552688  0.058352  2.309701  0.102
