# generated using pymatgen
data_Tb2H29C33NO17
_symmetry_space_group_name_H-M   'P 1'
_cell_length_a   12.43591440
_cell_length_b   13.69387663
_cell_length_c   27.73753975
_cell_angle_alpha   104.28369635
_cell_angle_beta   96.10130246
_cell_angle_gamma   96.38009837
_symmetry_Int_Tables_number   1
_chemical_formula_structural   Tb2H29C33NO17
_chemical_formula_sum   'Tb8 H116 C132 N4 O68'
_cell_volume   4505.16018937
_cell_formula_units_Z   4
loop_
 _symmetry_equiv_pos_site_id
 _symmetry_equiv_pos_as_xyz
  1  'x, y, z'
loop_
 _atom_site_type_symbol
 _atom_site_label
 _atom_site_symmetry_multiplicity
 _atom_site_fract_x
 _atom_site_fract_y
 _atom_site_fract_z
 _atom_site_occupancy
 _atom_site_pbe_bader_charge
 _atom_site_pbe_bader_spin_density
 _atom_site_pbe_cm5_charge
 _atom_site_pbe_ddec_charge
 _atom_site_pbe_ddec_spin_density
 _atom_site_pbe_ddec_sum_bond_order
 _atom_site_pbe_magmom
Tb  Tb0  1  0.86560841  0.41829745  0.44788139  1  2.190732  0  1.510231  2.103789  0  2.149954  0
Tb  Tb1  1  0.13438773  0.58170673  0.55211871  1  2.190651  0  1.510288  2.103858  0  2.149919  0
Tb  Tb2  1  0.45112055  0.03019314  0.58402283  1  2.173826  0  1.499026  2.053887  0  2.192665  0
Tb  Tb3  1  0.54886856  0.96980256  0.41598017  1  2.173722  0  1.499034  2.053962  0  2.192646  0
Tb  Tb4  1  0.02922884  0.07824243  0.93908656  1  2.186452  0  1.520319  2.07487  0  2.199155  0
Tb  Tb5  1  0.97076753  0.92175795  0.06091418  1  2.186396  0  1.520395  2.074871  0  2.199238  0
Tb  Tb6  1  0.52861117  0.61243016  0.08280550  1  2.181324  0  1.508155  2.093192  0  2.152616  0
Tb  Tb7  1  0.47138343  0.38756868  0.91719387  1  2.181356  0  1.508137  2.093137  0  2.152677  0
H  H8  1  0.73735535  0.75048212  0.47864042  1  0.073971  0  0.110258  0.116694  0  0.999261  0
H  H9  1  0.26263905  0.24952278  0.52136400  1  0.073891  0  0.110298  0.116777  0  0.999261  0
H  H10  1  0.73134954  0.97210831  0.61784599  1  0.08291  0  0.107241  0.107681  0  1.037056  0
H  H11  1  0.26865015  0.02788755  0.38215655  1  0.082826  0  0.107229  0.10763  0  1.037005  0
H  H12  1  0.92782821  0.72844559  0.61299119  1  0.111087  0  0.114596  0.125466  0  1.017885  0
H  H13  1  0.07218932  0.27156576  0.38700705  1  0.111398  0  0.114578  0.125445  0  1.018054  0
H  H14  1  0.02061263  0.82871281  0.67768705  1  0.099816  0  0.101912  0.111364  0  1.03407  0
H  H15  1  0.97939148  0.17128998  0.32231189  1  0.099837  0  0.101939  0.111324  0  1.034084  0
H  H16  1  0.07885714  0.89814701  0.76933734  1  0.103418  0  0.104607  0.110382  0  1.002585  0
H  H17  1  0.92115729  0.10185441  0.23066203  1  0.103254  0  0.104575  0.11026  0  1.002595  0
H  H18  1  0.79044056  0.04186844  0.78329341  1  0.072963  0  0.101897  0.105318  0  1.003704  0
H  H19  1  0.20957572  0.95814667  0.21670809  1  0.072172  0  0.102015  0.105543  0  1.00381  0
H  H20  1  0.72833522  0.97152056  0.69196217  1  0.063793  0  0.101826  0.104837  0  1.024955  0
H  H21  1  0.27167770  0.02848310  0.30804136  1  0.063576  0  0.101784  0.104711  0  1.025053  0
H  H22  1  0.72888598  0.30302720  0.55978573  1  0.131989  0  0.113732  0.12395  0  1.006379  0
H  H23  1  0.27111412  0.69696338  0.44020970  1  0.131148  0  0.113765  0.124014  0  1.00632  0
H  H24  1  0.03802181  0.39732974  0.65300861  1  0.1077  0  0.108699  0.1145  0  1.014792  0
H  H25  1  0.96198292  0.60266471  0.34698647  1  0.107683  0  0.10866  0.114455  0  1.014794  0
H  H26  1  0.79577564  0.18149440  0.68742006  1  0.096871  0  0.103516  0.110617  0  1.016648  0
H  H27  1  0.20423071  0.81849326  0.31257177  1  0.096954  0  0.103492  0.110655  0  1.01653  0
H  H28  1  0.96735705  0.12021258  0.70566292  1  0.066571  0  0.099597  0.102526  0  1.029778  0
H  H29  1  0.03265187  0.87978803  0.29433063  1  0.066713  0  0.099592  0.102458  0  1.02968  0
H  H30  1  0.11012810  0.10945256  0.77322667  1  0.097596  0  0.105031  0.108354  0  1.031775  0
H  H31  1  0.88987611  0.89053808  0.22676793  1  0.097572  0  0.10504  0.108362  0  1.03182  0
H  H32  1  0.20433384  0.43344890  0.81021234  1  0.070472  0  0.101555  0.102279  0  1.026951  0
H  H33  1  0.79567000  0.56655236  0.18978749  1  0.070504  0  0.101529  0.102221  0  1.026895  0
H  H34  1  0.06269494  0.44589397  0.74269760  1  0.064103  0  0.099258  0.101266  0  1.028528  0
H  H35  1  0.93731213  0.55410659  0.25730052  1  0.064014  0  0.099255  0.101194  0  1.028591  0
H  H36  1  0.75473144  0.68547552  0.94497494  1  0.077952  0  0.104994  0.103683  0  1.042691  0
H  H37  1  0.24527096  0.31452116  0.05502425  1  0.078002  0  0.10499  0.103688  0  1.04271  0
H  H38  1  0.53862939  0.60983044  0.80550716  1  0.088817  0  0.103738  0.103424  0  1.03799  0
H  H39  1  0.46136645  0.39017146  0.19449229  1  0.088816  0  0.103746  0.103501  0  1.038039  0
H  H40  1  0.77705061  0.88193506  0.84672055  1  0.126431  0  0.114379  0.123323  0  1.008957  0
H  H41  1  0.22293512  0.11807124  0.15328282  1  0.12668  0  0.114316  0.123226  0  1.008938  0
H  H42  1  0.60610270  0.93219947  0.80754607  1  0.051722  0  0.102412  0.102368  0  0.997859  0
H  H43  1  0.39389973  0.06780936  0.19245496  1  0.051777  0  0.102477  0.102449  0  0.9979  0
H  H44  1  0.52827626  0.96855946  0.72803272  1  0.087222  0  0.108224  0.110811  0  0.991904  0
H  H45  1  0.47173358  0.03144342  0.27196513  1  0.087319  0  0.108228  0.110816  0  0.991871  0
H  H46  1  0.52331834  0.65667496  0.64847057  1  0.108515  0  0.109523  0.111153  0  0.993077  0
H  H47  1  0.47665748  0.34331976  0.35153587  1  0.108481  0  0.109573  0.111167  0  0.99309  0
H  H48  1  0.60066043  0.61900971  0.72733322  1  0.053317  0  0.098562  0.094693  0  1.011843  0
H  H49  1  0.39932355  0.38099047  0.27267146  1  0.05255  0  0.098578  0.09474  0  1.011811  0
H  H50  1  0.72589709  0.22773393  0.98212662  1  0.078493  0  0.110064  0.117275  0  0.999443  0
H  H51  1  0.27411329  0.77227350  0.01787362  1  0.078554  0  0.110044  0.117265  0  0.999412  0
H  H52  1  0.85338866  0.16760279  0.12014617  1  0.100584  0  0.116017  0.125863  0  1.006379  0
H  H53  1  0.14660817  0.83239456  0.87985314  1  0.100576  0  0.116012  0.125854  0  1.006378  0
H  H54  1  0.67746434  0.42406316  0.12293015  1  0.101954  0  0.110276  0.108997  0  1.029779  0
H  H55  1  0.32254438  0.57594499  0.87707296  1  0.101688  0  0.110277  0.109001  0  1.029833  0
H  H56  1  0.62925185  0.37268310  0.19156004  1  0.050607  0  0.096505  0.093482  0  1.042962  0
H  H57  1  0.37074847  0.62729910  0.80843944  1  0.050265  0  0.096431  0.093461  0  1.042914  0
H  H58  1  0.65254904  0.40009705  0.28496672  1  0.070705  0  0.098891  0.094947  0  1.041378  0
H  H59  1  0.34744348  0.59989189  0.71502952  1  0.071127  0  0.098899  0.094923  0  1.041405  0
H  H60  1  0.97231619  0.31216162  0.28191027  1  0.096534  0  0.108218  0.111982  0  1.004434  0
H  H61  1  0.02768799  0.68784267  0.71809139  1  0.096608  0  0.108206  0.111982  0  1.004395  0
H  H62  1  0.95161752  0.28586950  0.18906454  1  0.067808  0  0.104559  0.106379  0  1.000003  0
H  H63  1  0.04839184  0.71413715  0.81093770  1  0.067738  0  0.104513  0.106313  0  1.000136  0
H  H64  1  0.49805788  0.22906895  0.70138289  1  0.125248  0  0.133518  0.058031  0  0.972765  0
H  H65  1  0.50193189  0.77093590  0.29861657  1  0.131362  0  0.133552  0.058128  0  0.972778  0
H  H66  1  0.22710790  0.36572987  0.68856076  1  0.072585  0  0.104766  0.119283  0  1.021287  0
H  H67  1  0.77288858  0.63427735  0.31144117  1  0.072322  0  0.104767  0.119258  0  1.021217  0
H  H68  1  0.25498537  0.27960994  0.63260910  1  0.075446  0  0.117768  0.138356  0  0.983702  0
H  H69  1  0.74500037  0.72040093  0.36739085  1  0.075311  0  0.117759  0.138352  0  0.983679  0
H  H70  1  0.31148122  0.41152243  0.64852494  1  0.113044  0  0.117442  0.144899  0  0.974325  0
H  H71  1  0.68851283  0.58849158  0.35148020  1  0.113579  0  0.117406  0.144906  0  0.974437  0
H  H72  1  0.37479979  0.41235587  0.76479129  1  0.092398  0  0.110682  0.132471  0  1.000814  0
H  H73  1  0.62519013  0.58764517  0.23521060  1  0.092627  0  0.110656  0.132445  0  1.000803  0
H  H74  1  0.45982496  0.47133370  0.72891831  1  0.058836  0  0.106124  0.116992  0  1.000921  0
H  H75  1  0.54016847  0.52866434  0.27108594  1  0.058903  0  0.106097  0.116926  0  1.000804  0
H  H76  1  0.50442137  0.37347917  0.75527984  1  0.077455  0  0.112833  0.124911  0  0.991619  0
H  H77  1  0.49556662  0.62651956  0.24472166  1  0.077134  0  0.112813  0.124846  0  0.991608  0
H  H78  1  0.06242811  0.32402052  0.01346733  1  0.095062  0  0.127608  0.049542  0  1.00578  0
H  H79  1  0.93756502  0.67598589  0.98653431  1  0.094985  0  0.127612  0.049541  0  1.005847  0
H  H80  1  0.11674216  0.57569365  0.01086811  1  0.050031  0  0.104833  0.1162  0  1.011021  0
H  H81  1  0.88325800  0.42430601  0.98913600  1  0.050045  0  0.104812  0.116216  0  1.01101  0
H  H82  1  0.23288291  0.51427100  0.02271828  1  0.063889  0  0.106447  0.1295  0  1.034204  0
H  H83  1  0.76711898  0.48573702  0.97729128  1  0.063892  0  0.106494  0.129583  0  1.034279  0
H  H84  1  0.11079195  0.48596641  0.04792762  1  0.048154  0  0.108577  0.117996  0  0.994714  0
H  H85  1  0.88920277  0.51403394  0.95207373  1  0.048089  0  0.10857  0.117976  0  0.994732  0
H  H86  1  0.08499927  0.51177652  0.91964957  1  0.050812  0  0.101822  0.111579  0  0.996484  0
H  H87  1  0.91503651  0.48822141  0.08035060  1  0.031782  0  0.101883  0.111635  0  0.996451  0
H  H88  1  0.06807796  0.37641302  0.89249818  1  0.089421  0  0.115259  0.139632  0  0.989402  0
H  H89  1  0.93195168  0.62358860  0.10750570  1  0.089017  0  0.115193  0.139507  0  0.989479  0
H  H90  1  0.20106212  0.44581915  0.91596215  1  0.118804  0  0.11047  0.129314  0  1.028589  0
H  H91  1  0.79895361  0.55417768  0.08404684  1  0.11908  0  0.110413  0.129345  0  1.028296  0
H  H92  1  0.65020054  0.46579300  0.46137184  1  0.62459  0  0.326122  0.414921  0  0.875626  0
H  H93  1  0.34978897  0.53419967  0.53863045  1  0.624323  0  0.3261  0.414863  0  0.875692  0
H  H94  1  0.61513126  0.34770678  0.43407309  1  0.646479  0  0.300161  0.401309  0  0.928552  0
H  H95  1  0.38486569  0.65228527  0.56592450  1  0.646633  0  0.30013  0.401326  0  0.928548  0
H  H96  1  0.75505154  0.20828640  0.45722925  1  0.646389  0  0.308454  0.417001  0  0.898607  0
H  H97  1  0.24494472  0.79171247  0.54276949  1  0.646395  0  0.308436  0.416976  0  0.898642  0
H  H98  1  0.81958466  0.18477798  0.41126091  1  0.618752  0  0.32784  0.422643  0  0.8672  0
H  H99  1  0.18041400  0.81521560  0.58873949  1  0.618753  0  0.327829  0.422616  0  0.867259  0
H  H100  1  0.38961276  0.84050214  0.49424395  1  0.646639  0  0.308665  0.413632  0  0.901705  0
H  H101  1  0.61038477  0.15950129  0.50575866  1  0.646546  0  0.308695  0.413737  0  0.901591  0
H  H102  1  0.41366540  0.81556502  0.54863905  1  0.628436  0  0.296393  0.378225  0  0.967347  0
H  H103  1  0.58632672  0.18443378  0.45136125  1  0.628359  0  0.296365  0.378251  0  0.967305  0
H  H104  1  0.24448032  0.05283758  0.62060865  1  0.622039  0  0.325541  0.410525  0  0.886735  0
H  H105  1  0.75550992  0.94716500  0.37939128  1  0.62213  0  0.325592  0.410639  0  0.886562  0
H  H106  1  0.22082659  0.00695395  0.56316427  1  0.619956  0  0.326829  0.41286  0  0.882425  0
H  H107  1  0.77916596  0.99304790  0.43683607  1  0.619987  0  0.326901  0.412866  0  0.882427  0
H  H108  1  0.25353726  0.08012342  0.93740062  1  0.617232  0  0.329849  0.417896  0  0.870955  0
H  H109  1  0.74646731  0.91987859  0.06260295  1  0.617258  0  0.32985  0.417877  0  0.87092  0
H  H110  1  0.23202155  0.14186033  0.89676995  1  0.652113  0  0.311486  0.404892  0  0.920882  0
H  H111  1  0.76798011  0.85813709  0.10323001  1  0.652094  0  0.311477  0.404843  0  0.920947  0
H  H112  1  0.32310360  0.67927082  0.08834285  1  0.63819  0  0.325374  0.415818  0  0.886755  0
H  H113  1  0.67689120  0.32073030  0.91165897  1  0.638122  0  0.325367  0.415805  0  0.886765  0
H  H114  1  0.31695054  0.63763918  0.13603595  1  0.611934  0  0.342729  0.428602  0  0.846751  0
H  H115  1  0.68304721  0.36235970  0.86396540  1  0.61192  0  0.342742  0.428506  0  0.846884  0
H  H116  1  0.62029768  0.81880347  0.13162902  1  0.645943  0  0.289369  0.375788  0  0.979802  0
H  H117  1  0.37970053  0.18119313  0.86837280  1  0.64567  0  0.289385  0.375861  0  0.979708  0
H  H118  1  0.48969852  0.82244090  0.12863634  1  0.612577  0  0.327913  0.420861  0  0.863874  0
H  H119  1  0.51030145  0.17755574  0.87136271  1  0.612832  0  0.327897  0.420867  0  0.863866  0
H  H120  1  0.64141165  0.62839598  0.99278677  1  0.646558  0  0.304779  0.411632  0  0.913382  0
H  H121  1  0.35859052  0.37160983  0.00721063  1  0.646552  0  0.304826  0.411764  0  0.913211  0
H  H122  1  0.68679247  0.73588622  0.03492596  1  0.663165  0  0.308224  0.420569  0  0.891628  0
H  H123  1  0.31320929  0.26411729  0.96507331  1  0.663281  0  0.308255  0.420638  0  0.891536  0
C  C124  1  0.83531985  0.73043390  0.54358951  1  -0.037347  0  -0.009917  -0.020077  0  3.97731  0
C  C125  1  0.16466721  0.26956789  0.45640689  1  -0.037056  0  -0.009864  -0.020103  0  3.977176  0
C  C126  1  0.76504969  0.78041840  0.51873275  1  0.009238  0  -0.073504  -0.103916  0  3.93306  0
C  C127  1  0.23494220  0.21958495  0.48126881  1  0.009832  0  -0.073527  -0.104022  0  3.933043  0
C  C128  1  0.72934830  0.86796809  0.54594951  1  -0.011312  0  -0.018235  -0.042818  0  4.008983  0
C  C129  1  0.27064710  0.13203758  0.45405326  1  -0.011943  0  -0.018299  -0.042828  0  4.009231  0
C  C130  1  0.76182436  0.90411111  0.59774457  1  -0.025372  0  -0.075208  -0.131726  0  3.911252  0
C  C131  1  0.23817783  0.09589620  0.40225699  1  -0.025088  0  -0.075178  -0.131646  0  3.911148  0
C  C132  1  0.83453738  0.85584366  0.62301368  1  0.00416  0  -0.007719  0.061322  0  4.008031  0
C  C133  1  0.16546135  0.14416282  0.37698973  1  0.004214  0  -0.007857  0.061116  0  4.008331  0
C  C134  1  0.87178115  0.76889784  0.59500376  1  -0.000518  0  -0.067582  -0.122597  0  3.868983  0
C  C135  1  0.12822049  0.23111024  0.40499460  1  -0.000927  0  -0.06747  -0.122374  0  3.869361  0
C  C136  1  0.87021782  0.89577549  0.67765743  1  -0.079996  0  -0.003217  0.075714  0  3.988395  0
C  C137  1  0.12977840  0.10423020  0.32234539  1  -0.079437  0  -0.003259  0.075586  0  3.988235  0
C  C138  1  0.96894991  0.87504240  0.70040360  1  -0.14731  0  -0.091696  -0.142118  0  3.961146  0
C  C139  1  0.03105332  0.12495812  0.29958998  1  -0.14777  0  -0.091774  -0.142182  0  3.961839  0
C  C140  1  0.00213771  0.91356591  0.75180755  1  0.031428  0  -0.082865  -0.084413  0  3.972754  0
C  C141  1  0.99787899  0.08643935  0.24818990  1  0.032325  0  -0.082802  -0.084168  0  3.973297  0
C  C142  1  0.93808192  0.97419500  0.78189115  1  -0.046995  0  -0.021641  -0.040087  0  3.982096  0
C  C143  1  0.06192115  0.02580700  0.21811017  1  -0.047135  0  -0.021635  -0.039986  0  3.981987  0
C  C144  1  0.83971156  0.99480037  0.75959235  1  -0.080918  0  -0.084981  -0.089289  0  3.99376  0
C  C145  1  0.16030532  0.00520715  0.24040791  1  -0.080371  0  -0.085166  -0.089644  0  3.993638  0
C  C146  1  0.80610897  0.95595604  0.70831887  1  0.043355  0  -0.091744  -0.139514  0  3.980132  0
C  C147  1  0.19390305  0.04405142  0.29168110  1  0.043025  0  -0.091587  -0.139197  0  3.97966  0
C  C148  1  0.86952162  0.63431213  0.51488519  1  1.590142  0  0.231014  0.649826  0  4.162304  0
C  C149  1  0.13048138  0.36568986  0.48511720  1  1.589844  0  0.231038  0.649965  0  4.162219  0
C  C150  1  0.65437357  0.92116243  0.51950125  1  1.552161  0  0.245361  0.683151  0  4.119828  0
C  C151  1  0.34561782  0.07883711  0.48049946  1  1.552247  0  0.245414  0.6832  0  4.120269  0
C  C152  1  0.97475085  0.01832796  0.83661970  1  1.527361  0  0.181716  0.568156  0  4.244235  0
C  C153  1  0.02525471  0.98166801  0.16337922  1  1.527385  0  0.181568  0.567652  0  4.244327  0
C  C154  1  0.75039306  0.23646707  0.62290697  1  -0.025002  0  -0.022962  -0.038788  0  3.999661  0
C  C155  1  0.24961357  0.76351829  0.37708892  1  -0.023435  0  -0.022966  -0.038837  0  3.999524  0
C  C156  1  0.78307582  0.29863008  0.59244359  1  -0.073408  0  -0.069639  -0.091469  0  3.900529  0
C  C157  1  0.21692683  0.70134914  0.40754952  1  -0.072457  0  -0.06953  -0.09134  0  3.900403  0
C  C158  1  0.88698178  0.35589810  0.60363608  1  -0.01258  0  -0.012784  -0.026576  0  3.962279  0
C  C159  1  0.11301882  0.64408339  0.39635575  1  -0.014957  0  -0.012924  -0.026896  0  3.962486  0
C  C160  1  0.95712025  0.35243450  0.64573364  1  -0.056843  0  -0.073283  -0.122568  0  3.907663  0
C  C161  1  0.04288407  0.64755009  0.35425769  1  -0.056895  0  -0.073215  -0.122351  0  3.907705  0
C  C162  1  0.92636099  0.28963043  0.67644094  1  -0.042797  0  -0.012099  0.051634  0  4.029735  0
C  C163  1  0.07364092  0.71036095  0.32355289  1  -0.042561  0  -0.012097  0.051505  0  4.029886  0
C  C164  1  0.82244412  0.23118137  0.66441938  1  -0.0124  0  -0.078199  -0.130365  0  3.91313  0
C  C165  1  0.17756729  0.76879647  0.33557298  1  -0.012518  0  -0.078275  -0.130455  0  3.912893  0
C  C166  1  0.00537058  0.28363637  0.71898231  1  -0.030006  0  -0.001126  0.081375  0  3.993415  0
C  C167  1  0.99463100  0.71635955  0.28101494  1  -0.029983  0  -0.001089  0.081302  0  3.993712  0
C  C168  1  0.01850605  0.18928445  0.72868058  1  0.033616  0  -0.089239  -0.129752  0  3.957265  0
C  C169  1  0.98150079  0.81070850  0.27131660  1  0.03367  0  -0.089203  -0.129525  0  3.956758  0
C  C170  1  0.09834875  0.18264454  0.76633453  1  -0.03813  0  -0.080691  -0.076958  0  3.966769  0
C  C171  1  0.90165059  0.81735136  0.23365898  1  -0.038292  0  -0.080757  -0.077094  0  3.966586  0
C  C172  1  0.16637408  0.27026269  0.79562931  1  -0.027637  0  -0.025992  -0.059809  0  3.995775  0
C  C173  1  0.83362583  0.72973927  0.20437002  1  -0.027682  0  -0.026006  -0.059901  0  3.995955  0
C  C174  1  0.15218195  0.36517617  0.78707525  1  -0.044873  0  -0.087821  -0.09372  0  3.99959  0
C  C175  1  0.84782563  0.63482286  0.21292453  1  -0.044853  0  -0.087812  -0.093616  0  3.999621  0
C  C176  1  0.07285765  0.37175307  0.74912105  1  -0.076761  0  -0.09461  -0.149512  0  3.995051  0
C  C177  1  0.92713832  0.62824277  0.25087479  1  -0.076764  0  -0.094621  -0.14942  0  3.995226  0
C  C178  1  0.64002376  0.17427805  0.61092767  1  1.520582  0  0.19027  0.574058  0  4.219911  0
C  C179  1  0.35997691  0.82571027  0.38906608  1  1.520719  0  0.190302  0.574036  0  4.220096  0
C  C180  1  0.92545800  0.41714869  0.56902051  1  1.622782  0  0.233476  0.649656  0  4.159643  0
C  C181  1  0.07454010  0.58284490  0.43097481  1  1.623147  0  0.233598  0.650088  0  4.159386  0
C  C182  1  0.25396436  0.26111912  0.83446553  1  1.525302  0  0.227934  0.616417  0  4.160225  0
C  C183  1  0.74603682  0.73887450  0.16553322  1  1.525228  0  0.228003  0.616667  0  4.159808  0
C  C184  1  0.77543432  0.78901030  0.89902792  1  0.029246  0  -0.013881  -0.028439  0  3.959516  0
C  C185  1  0.22455617  0.21099456  0.10097338  1  0.0294  0  -0.013896  -0.028676  0  3.959625  0
C  C186  1  0.72571152  0.70227173  0.90995065  1  -0.044637  0  -0.08187  -0.109953  0  3.951443  0
C  C187  1  0.27428200  0.29773090  0.09004875  1  -0.045021  0  -0.081849  -0.109913  0  3.951549  0
C  C188  1  0.64068650  0.63791049  0.87629973  1  -0.03327  0  -0.027165  -0.037077  0  4.032347  0
C  C189  1  0.35930440  0.36208601  0.12370202  1  -0.051921  0  -0.027163  -0.03692  0  4.032295  0
C  C190  1  0.60525642  0.66078359  0.83133584  1  -0.026689  0  -0.076104  -0.130203  0  3.917193  0
C  C191  1  0.39474019  0.33921906  0.16866663  1  -0.026315  0  -0.076169  -0.130436  0  3.917496  0
C  C192  1  0.65170520  0.74933758  0.82016083  1  -0.00358  0  -0.000637  0.066817  0  3.992383  0
C  C193  1  0.34828559  0.25067031  0.17984338  1  -0.001142  0  -0.000599  0.066838  0  3.992222  0
C  C194  1  0.73769402  0.81332540  0.85454043  1  -0.089017  0  -0.062499  -0.10918  0  3.851736  0
C  C195  1  0.26229935  0.18668254  0.14546105  1  -0.090771  0  -0.062444  -0.108976  0  3.851363  0
C  C196  1  0.60819582  0.77290554  0.77311893  1  -0.043487  0  -0.002966  0.077508  0  3.990406  0
C  C197  1  0.39179997  0.22709710  0.22688384  1  -0.044187  0  -0.002878  0.077702  0  3.990099  0
C  C198  1  0.58790490  0.87158996  0.77267743  1  0.012816  0  -0.087218  -0.133368  0  3.984031  0
C  C199  1  0.41209580  0.12841201  0.22732230  1  0.012855  0  -0.087341  -0.133546  0  3.983879  0
C  C200  1  0.54399341  0.89206590  0.72852117  1  -0.020619  0  -0.077293  -0.076761  0  3.973625  0
C  C201  1  0.45601140  0.10793614  0.27147772  1  -0.020641  0  -0.077297  -0.076807  0  3.973613  0
C  C202  1  0.52066612  0.81491405  0.68344479  1  -0.0129  0  -0.014635  -0.043056  0  3.958499  0
C  C203  1  0.47932760  0.18508402  0.31655371  1  -0.012995  0  -0.014728  -0.0431  0  3.95857  0
C  C204  1  0.54078400  0.71632670  0.68358416  1  -0.068471  0  -0.077027  -0.075157  0  3.97331  0
C  C205  1  0.45920927  0.28367515  0.31641802  1  -0.068252  0  -0.07703  -0.075279  0  3.973328  0
C  C206  1  0.58341424  0.69567081  0.72785945  1  -0.051896  0  -0.091982  -0.139594  0  3.985376  0
C  C207  1  0.41656965  0.30432786  0.27214288  1  -0.051152  0  -0.091982  -0.139577  0  3.985423  0
C  C208  1  0.86915323  0.85361462  0.93595670  1  1.614149  0  0.234152  0.655559  0  4.167676  0
C  C209  1  0.13084408  0.14638654  0.06404382  1  1.614221  0  0.234152  0.655655  0  4.167625  0
C  C210  1  0.58783802  0.54724019  0.88931752  1  1.494149  0  0.188664  0.564052  0  4.24076  0
C  C211  1  0.41215816  0.45276475  0.11068375  1  1.510928  0  0.188695  0.563987  0  4.24062  0
C  C212  1  0.47943503  0.83888125  0.63553483  1  1.570296  0  0.229334  0.619004  0  4.167967  0
C  C213  1  0.52055310  0.16111750  0.36446379  1  1.570421  0  0.229504  0.619354  0  4.167565  0
C  C214  1  0.69303352  0.33083770  0.04997123  1  -0.072154  0  -0.022559  -0.058549  0  4.012204  0
C  C215  1  0.30697147  0.66916511  0.95002633  1  -0.072182  0  -0.02256  -0.05871  0  4.012224  0
C  C216  1  0.73742027  0.24822339  0.02299208  1  -0.068907  0  -0.076639  -0.102946  0  3.939861  0
C  C217  1  0.26258122  0.75177859  0.97700806  1  -0.068551  0  -0.076655  -0.102897  0  3.93969  0
C  C218  1  0.79533611  0.19048700  0.04858931  1  0.022987  0  -0.015063  -0.033444  0  3.993609  0
C  C219  1  0.20466454  0.80951497  0.95141150  1  0.02264  0  -0.014989  -0.033424  0  3.993541  0
C  C220  1  0.81058468  0.21585332  0.10101307  1  -0.067332  0  -0.068351  -0.12409  0  3.881951  0
C  C221  1  0.18941314  0.78414557  0.89898685  1  -0.067306  0  -0.068342  -0.123993  0  3.881796  0
C  C222  1  0.77043658  0.30127802  0.12865338  1  0.053525  0  -0.004926  0.067956  0  4.014907  0
C  C223  1  0.22956740  0.69872400  0.87134583  1  0.053438  0  -0.004904  0.067904  0  4.014956  0
C  C224  1  0.71060299  0.35787399  0.10259662  1  -0.00149  0  -0.075958  -0.13534  0  3.91796  0
C  C225  1  0.28939305  0.64212336  0.89740192  1  -0.001274  0  -0.075975  -0.135248  0  3.917979  0
C  C226  1  0.78817428  0.32656357  0.18397123  1  -0.055768  0  -0.008766  0.067651  0  4.013498  0
C  C227  1  0.21182691  0.67344220  0.81602972  1  -0.056099  0  -0.008823  0.067589  0  4.013245  0
C  C228  1  0.70534786  0.36157235  0.21156204  1  -0.009078  0  -0.093976  -0.137051  0  3.987528  0
C  C229  1  0.29465921  0.63842288  0.78843688  1  -0.008914  0  -0.093844  -0.136964  0  3.987485  0
C  C230  1  0.71770481  0.37656048  0.26335000  1  -0.033054  0  -0.08515  -0.092257  0  3.989868  0
C  C231  1  0.28229163  0.62342392  0.73665240  1  -0.033477  0  -0.085196  -0.092255  0  3.990256  0
C  C232  1  0.81305276  0.35682231  0.28867135  1  -0.034574  0  -0.01407  -0.017764  0  3.955929  0
C  C233  1  0.18694783  0.64317889  0.71132865  1  -0.034804  0  -0.01411  -0.01794  0  3.95588  0
C  C234  1  0.89770998  0.32558815  0.26171408  1  -0.012356  0  -0.078709  -0.085329  0  3.973528  0
C  C235  1  0.10228998  0.67440999  0.73828948  1  -0.011927  0  -0.078606  -0.085158  0  3.973555  0
C  C236  1  0.88556339  0.31088392  0.20987141  1  -0.094223  0  -0.089656  -0.13692  0  3.982063  0
C  C237  1  0.11443976  0.68912416  0.79012921  1  -0.094036  0  -0.08965  -0.136909  0  3.982283  0
C  C238  1  0.62783296  0.38941916  0.02212663  1  1.570493  0  0.238001  0.660115  0  4.149928  0
C  C239  1  0.37217538  0.61058520  0.97787312  1  1.569626  0  0.238086  0.660296  0  4.149667  0
C  C240  1  0.84465868  0.10316701  0.01998621  1  1.605669  0  0.239887  0.667698  0  4.159759  0
C  C241  1  0.15534130  0.89683114  0.98001698  1  1.606041  0  0.239732  0.667478  0  4.16008  0
C  C242  1  0.82234553  0.36687740  0.34378913  1  1.547361  0  0.18515  0.569271  0  4.258568  0
C  C243  1  0.17765850  0.63312538  0.65621125  1  1.547331  0  0.185206  0.569409  0  4.259094  0
C  C244  1  0.42346782  0.23564505  0.67774508  1  1.364421  0  0.194719  0.335104  0  4.085626  0
C  C245  1  0.57652330  0.76435755  0.32225346  1  1.358017  0  0.194715  0.335152  0  4.085608  0
C  C246  1  0.28862188  0.34614637  0.66357946  1  0.233649  0  -0.125316  -0.266184  0  3.836749  0
C  C247  1  0.71136430  0.65386298  0.33642359  1  0.233434  0  -0.125219  -0.266174  0  3.836934  0
C  C248  1  0.43351613  0.39923274  0.73780244  1  0.245111  0  -0.124888  -0.277015  0  3.907278  0
C  C249  1  0.56647404  0.60076375  0.26219783  1  0.244798  0  -0.124811  -0.276798  0  3.906753  0
C  C250  1  0.06664127  0.32941067  0.97463052  1  1.371228  0  0.182715  0.314625  0  4.113249  0
C  C251  1  0.93335744  0.67059431  0.02536911  1  1.371214  0  0.18279  0.314682  0  4.113103  0
C  C252  1  0.14333294  0.50439033  0.01547103  1  0.29382  0  -0.135114  -0.286992  0  3.905516  0
C  C253  1  0.85666096  0.49561076  0.98453254  1  0.293855  0  -0.135221  -0.287201  0  3.905603  0
C  C254  1  0.11489512  0.44024069  0.92175828  1  0.228084  0  -0.133162  -0.276151  0  3.870613  0
C  C255  1  0.88514436  0.55976183  0.07824591  1  0.247182  0  -0.133114  -0.276188  0  3.870573  0
N  N256  1  0.38370253  0.32289078  0.69210883  1  -1.197882  0  -0.266756  0.045318  0  3.706778  0
N  N257  1  0.61628951  0.67711408  0.30789400  1  -1.197214  0  -0.266757  0.045303  0  3.70668  0
N  N258  1  0.10245674  0.42239106  0.97062843  1  -1.198544  0  -0.280626  0.031506  0  3.71685  0
N  N259  1  0.89755914  0.57761111  0.02937653  1  -1.198352  0  -0.280502  0.031723  0  3.716705  0
O  O260  1  0.96277248  0.61289299  0.52862364  1  -1.21743  0  -0.408475  -0.722548  0  2.423263  0
O  O261  1  0.03723062  0.38711509  0.47137806  1  -1.217418  0  -0.408526  -0.722623  0  2.423066  0
O  O262  1  0.80288795  0.57732187  0.47804591  1  -1.183496  0  -0.385145  -0.644401  0  2.211783  0
O  O263  1  0.19710458  0.42268605  0.52195588  1  -1.183526  0  -0.385146  -0.644453  0  2.211804  0
O  O264  1  0.58183347  0.96294153  0.54251662  1  -1.211948  0  -0.422122  -0.706007  0  2.413728  0
O  O265  1  0.41815539  0.03705797  0.45748574  1  -1.211836  0  -0.422124  -0.70597  0  2.41405  0
O  O266  1  0.66551132  0.92166203  0.47427007  1  -1.202916  0  -0.408701  -0.691679  0  2.275124  0
O  O267  1  0.33447740  0.07833521  0.52572876  1  -1.203022  0  -0.408721  -0.691737  0  2.275094  0
O  O268  1  0.06526149  0.99902280  0.85671847  1  -1.1848  0  -0.405134  -0.658028  0  2.186607  0
O  O269  1  0.93474582  0.00097395  0.14328029  1  -1.184651  0  -0.405108  -0.657839  0  2.186819  0
O  O270  1  0.91537832  0.07448242  0.86317237  1  -1.184258  0  -0.400263  -0.642673  0  2.148428  0
O  O271  1  0.08464580  0.92551381  0.13682910  1  -1.184388  0  -0.400107  -0.642396  0  2.148051  0
O  O272  1  0.61001075  0.12123709  0.64055952  1  -1.177856  0  -0.393881  -0.649388  0  2.21454  0
O  O273  1  0.38998654  0.87875042  0.35943466  1  -1.177271  0  -0.393941  -0.649397  0  2.214561  0
O  O274  1  0.57597935  0.17243372  0.57100284  1  -1.190789  0  -0.36925  -0.63878  0  2.191873  0
O  O275  1  0.42401337  0.82756283  0.42899505  1  -1.191315  0  -0.369235  -0.638735  0  2.191933  0
O  O276  1  0.85969241  0.41135402  0.52983110  1  -1.192846  0  -0.404936  -0.660804  0  2.316603  0
O  O277  1  0.14030753  0.58864794  0.47016787  1  -1.192706  0  -0.405031  -0.661057  0  2.316392  0
O  O278  1  0.02052370  0.46770312  0.58130665  1  -1.195064  0  -0.391143  -0.661507  0  2.316254  0
O  O279  1  0.97947811  0.53229506  0.41869268  1  -1.195105  0  -0.391126  -0.6616  0  2.316468  0
O  O280  1  0.26266191  0.17321501  0.84136483  1  -1.183188  0  -0.308497  -0.550685  0  2.187302  0
O  O281  1  0.73733374  0.82677929  0.15863296  1  -1.183023  0  -0.308506  -0.550748  0  2.18708  0
O  O282  1  0.31852265  0.34222548  0.85867106  1  -1.215024  0  -0.427551  -0.700158  0  2.316256  0
O  O283  1  0.68148486  0.65776672  0.14132679  1  -1.215115  0  -0.427539  -0.700291  0  2.316162  0
O  O284  1  0.92324344  0.92374521  0.92263259  1  -1.20361  0  -0.407197  -0.675272  0  2.377911  0
O  O285  1  0.07676002  0.07625301  0.07736612  1  -1.20366  0  -0.407172  -0.67527  0  2.377896  0
O  O286  1  0.88844848  0.83241219  0.97792776  1  -1.198122  0  -0.391756  -0.683544  0  2.328567  0
O  O287  1  0.11155251  0.16758598  0.02207153  1  -1.198175  0  -0.391759  -0.683579  0  2.32854  0
O  O288  1  0.51657150  0.48203910  0.85746633  1  -1.183895  0  -0.384943  -0.636339  0  2.203163  0
O  O289  1  0.48342432  0.51796963  0.14253683  1  -1.182726  0  -0.384998  -0.636318  0  2.203107  0
O  O290  1  0.61472451  0.53451594  0.93335395  1  -1.199473  0  -0.375374  -0.667201  0  2.316502  0
O  O291  1  0.38528161  0.46548991  0.06664585  1  -1.199528  0  -0.375379  -0.667239  0  2.316503  0
O  O292  1  0.46346024  0.93103218  0.63838370  1  -1.202328  0  -0.433174  -0.691082  0  2.280127  0
O  O293  1  0.53652901  0.06896961  0.36161752  1  -1.202359  0  -0.433216  -0.691229  0  2.280091  0
O  O294  1  0.46465180  0.76958272  0.59451299  1  -1.195547  0  -0.298543  -0.554007  0  2.207119  0
O  O295  1  0.53533992  0.23040771  0.40548735  1  -1.195545  0  -0.298703  -0.554208  0  2.206859  0
O  O296  1  0.59975089  0.47219063  0.04603692  1  -1.212621  0  -0.414477  -0.690323  0  2.377024  0
O  O297  1  0.40025909  0.52781376  0.95396256  1  -1.211929  0  -0.414523  -0.690469  0  2.377026  0
O  O298  1  0.60334740  0.35364053  0.97463506  1  -1.211264  0  -0.405281  -0.693118  0  2.341435  0
O  O299  1  0.39665099  0.64635684  0.02536543  1  -1.21112  0  -0.405324  -0.693147  0  2.341395  0
O  O300  1  0.84853481  0.02630751  0.03790885  1  -1.207992  0  -0.39819  -0.691479  0  2.31772  0
O  O301  1  0.15146956  0.97369223  0.96209227  1  -1.208432  0  -0.398111  -0.691379  0  2.31756  0
O  O302  1  0.88077407  0.11375468  0.98027058  1  -1.190577  0  -0.397588  -0.664641  0  2.288988  0
O  O303  1  0.11922503  0.88624194  0.01972985  1  -1.190527  0  -0.397523  -0.66456  0  2.2893  0
O  O304  1  0.75973426  0.42015372  0.36946806  1  -1.183304  0  -0.389927  -0.650091  0  2.189457  0
O  O305  1  0.24025652  0.57984126  0.63053170  1  -1.183184  0  -0.389926  -0.650092  0  2.189955  0
O  O306  1  0.89295524  0.32260039  0.36418120  1  -1.188818  0  -0.381768  -0.641787  0  2.193078  0
O  O307  1  0.10704579  0.67739854  0.63581963  1  -1.188794  0  -0.381851  -0.641922  0  2.193221  0
O  O308  1  0.66977540  0.39808204  0.45920258  1  -1.244068  0  -0.624981  -0.828806  0  2.032957  0
O  O309  1  0.33022147  0.60190924  0.54079455  1  -1.243913  0  -0.62494  -0.828781  0  2.032927  0
O  O310  1  0.81197174  0.23827475  0.44062952  1  -1.239035  0  -0.626784  -0.840042  0  2.028996  0
O  O311  1  0.18802984  0.76172799  0.55937108  1  -1.239018  0  -0.626757  -0.840004  0  2.029103  0
O  O312  1  0.38204211  0.16415789  0.63999117  1  -1.194461  0  -0.373808  -0.588322  0  2.390322  0
O  O313  1  0.61795620  0.83584938  0.36000655  1  -1.194383  0  -0.373872  -0.588511  0  2.390215  0
O  O314  1  0.37165251  0.85642869  0.52911460  1  -1.265191  0  -0.605539  -0.829826  0  2.072105  0
O  O315  1  0.62834373  0.14357092  0.47088675  1  -1.265101  0  -0.60554  -0.829974  0  2.071948  0
O  O316  1  0.24746272  0.99087789  0.59445161  1  -1.205376  0  -0.589145  -0.786468  0  1.991794  0
O  O317  1  0.75253031  0.00912851  0.40555219  1  -1.205479  0  -0.589263  -0.78659  0  1.991633  0
O  O318  1  0.03967857  0.25285928  0.93802924  1  -1.160886  0  -0.362132  -0.533273  0  2.341616  0
O  O319  1  0.96032275  0.74714726  0.06197108  1  -1.160906  0  -0.36221  -0.533319  0  2.341576  0
O  O320  1  0.22725220  0.14229833  0.93247930  1  -1.231588  0  -0.583676  -0.798449  0  2.064476  0
O  O321  1  0.77275046  0.85770062  0.06752127  1  -1.231605  0  -0.583681  -0.798394  0  2.064569  0
O  O322  1  0.36272796  0.68113074  0.12116538  1  -1.212924  0  -0.590103  -0.804318  0  1.982606  0
O  O323  1  0.63726920  0.31886965  0.87883576  1  -1.212921  0  -0.590139  -0.804217  0  1.98276  0
O  O324  1  0.54576919  0.79553801  0.10946981  1  -1.251205  0  -0.646095  -0.849042  0  2.031401  0
O  O325  1  0.45423165  0.20445940  0.89053046  1  -1.251204  0  -0.646043  -0.849074  0  2.031316  0
O  O326  1  0.64598414  0.66652109  0.02852290  1  -1.293364  0  -0.642852  -0.855661  0  2.028033  0
O  O327  1  0.35401445  0.33348238  0.97147473  1  -1.293488  0  -0.642912  -0.85584  0  2.027889  0
