# generated using pymatgen
data_ZnH9C12Br2N3O
_symmetry_space_group_name_H-M   'P 1'
_cell_length_a   7.28422254
_cell_length_b   12.05659781
_cell_length_c   15.00544043
_cell_angle_alpha   89.99993171
_cell_angle_beta   89.99991456
_cell_angle_gamma   96.91116773
_symmetry_Int_Tables_number   1
_chemical_formula_structural   ZnH9C12Br2N3O
_chemical_formula_sum   'Zn4 H36 C48 Br8 N12 O4'
_cell_volume   1308.24649926
_cell_formula_units_Z   4
loop_
 _symmetry_equiv_pos_site_id
 _symmetry_equiv_pos_as_xyz
  1  'x, y, z'
loop_
 _atom_site_type_symbol
 _atom_site_label
 _atom_site_symmetry_multiplicity
 _atom_site_fract_x
 _atom_site_fract_y
 _atom_site_fract_z
 _atom_site_occupancy
 _atom_site_hle17_bader_spin_density
 _atom_site_hle17_ddec_charge
 _atom_site_hle17_ddec_spin_density
 _atom_site_hle17_ddec_sum_bond_order
 _atom_site_hle17_magmom
 _atom_site_hse06_10hf_bader_spin_density
 _atom_site_hse06_10hf_ddec_charge
 _atom_site_hse06_10hf_ddec_spin_density
 _atom_site_hse06_10hf_ddec_sum_bond_order
 _atom_site_hse06_10hf_magmom
 _atom_site_hse06_bader_spin_density
 _atom_site_hse06_ddec_charge
 _atom_site_hse06_ddec_spin_density
 _atom_site_hse06_ddec_sum_bond_order
 _atom_site_hse06_magmom
 _atom_site_pbe_bader_spin_density
 _atom_site_pbe_cm5_charge
 _atom_site_pbe_ddec_charge
 _atom_site_pbe_ddec_spin_density
 _atom_site_pbe_ddec_sum_bond_order
 _atom_site_pbe_magmom
Zn  Zn0  1  0.81857832  0.42672901  0.23643973  1  0  0.832227  0  2.10593  0  0  0.668788  0  2.592817  0  0  0.711655  0  2.544356  0  0  0.51302  0.639255  0  2.625543  0
Zn  Zn1  1  0.68142051  0.07327232  0.73644260  1  0  0.832212  0  2.105963  0  0  0.668783  0  2.592818  0  0  0.711645  0  2.544373  0  0  0.51305  0.639254  0  2.625542  0
Zn  Zn2  1  0.18142402  0.57327163  0.76355939  1  0  0.832246  0  2.105839  0  0  0.66882  0  2.592698  0  0  0.711688  0  2.544244  0  0  0.51304  0.639289  0  2.625433  0
Zn  Zn3  1  0.31858695  0.92672661  0.26355918  1  0  0.832209  0  2.10596  0  0  0.668776  0  2.592829  0  0  0.711639  0  2.544378  0  0  0.513057  0.639244  0  2.625562  0
H  H4  1  0.71710524  0.57400163  0.83012104  1  0  0.114832  0  0.968115  0  0  0.118667  0  1.039825  0  0  0.122659  0  1.03696  0  0  0.092953  0.115758  0  1.04199  0
H  H5  1  0.78289226  0.92600094  0.33012486  1  0  0.114829  0  0.96814  0  0  0.118652  0  1.039879  0  0  0.122647  0  1.03701  0  0  0.092938  0.115743  0  1.042038  0
H  H6  1  0.28289456  0.42599987  0.16987941  1  0  0.114779  0  0.968151  0  0  0.118647  0  1.039824  0  0  0.12264  0  1.036956  0  0  0.092939  0.115738  0  1.041987  0
H  H7  1  0.21711365  0.07399717  0.66987825  1  0  0.114745  0  0.968205  0  0  0.118635  0  1.039867  0  0  0.12263  0  1.036999  0  0  0.092921  0.115727  0  1.042028  0
H  H8  1  0.79933828  0.77197099  0.87946768  1  0  0.090095  0  0.965743  0  0  0.097017  0  1.03343  0  0  0.099903  0  1.032347  0  0  0.087382  0.09488  0  1.034326  0
H  H9  1  0.70065575  0.72802901  0.37947175  1  0  0.090066  0  0.965852  0  0  0.096965  0  1.033554  0  0  0.09985  0  1.032473  0  0  0.087372  0.094857  0  1.034414  0
H  H10  1  0.20065758  0.22803138  0.12053343  1  0  0.090134  0  0.965768  0  0  0.097048  0  1.033457  0  0  0.099935  0  1.032375  0  0  0.087387  0.094931  0  1.034329  0
H  H11  1  0.29934448  0.27196830  0.62053069  1  0  0.090023  0  0.965878  0  0  0.096964  0  1.033541  0  0  0.09985  0  1.03246  0  0  0.08737  0.09487  0  1.034396  0
H  H12  1  0.85279728  0.81813014  0.03927770  1  0  0.083568  0  0.979031  0  0  0.096227  0  1.04037  0  0  0.098003  0  1.040718  0  0  0.088063  0.094873  0  1.040276  0
H  H13  1  0.64719904  0.68186960  0.53928250  1  0  0.083532  0  0.9791  0  0  0.0962  0  1.040425  0  0  0.097974  0  1.040785  0  0  0.08807  0.094859  0  1.040306  0
H  H14  1  0.14719411  0.18187059  0.96072474  1  0  0.083557  0  0.97906  0  0  0.096237  0  1.040371  0  0  0.098015  0  1.040719  0  0  0.088068  0.09486  0  1.040313  0
H  H15  1  0.35280412  0.31812853  0.46071995  1  0  0.083574  0  0.97905  0  0  0.09624  0  1.040376  0  0  0.098017  0  1.040727  0  0  0.088078  0.094898  0  1.04026  0
H  H16  1  0.84146605  0.66991089  0.15431539  1  0  0.114873  0  0.961931  0  0  0.12061  0  1.029872  0  0  0.124641  0  1.026438  0  0  0.098195  0.117626  0  1.032501  0
H  H17  1  0.65853483  0.83008610  0.65432003  1  0  0.11494  0  0.961836  0  0  0.120635  0  1.029822  0  0  0.124676  0  1.026377  0  0  0.098182  0.117653  0  1.032452  0
H  H18  1  0.15852871  0.33008647  0.84568506  1  0  0.114937  0  0.961841  0  0  0.120655  0  1.029806  0  0  0.1247  0  1.026357  0  0  0.098208  0.117671  0  1.03244  0
H  H19  1  0.34146459  0.16991373  0.34568241  1  0  0.114897  0  0.961866  0  0  0.120597  0  1.02986  0  0  0.124621  0  1.026433  0  0  0.098165  0.117614  0  1.032488  0
H  H20  1  0.54562143  0.25440021  0.19522353  1  0  0.115496  0  0.945334  0  0  0.122169  0  1.012027  0  0  0.126211  0  1.007173  0  0  0.127275  0.119123  0  1.01572  0
H  H21  1  0.95437343  0.24560123  0.69522469  1  0  0.115575  0  0.945254  0  0  0.122198  0  1.011996  0  0  0.126242  0  1.007143  0  0  0.127311  0.11915  0  1.015686  0
H  H22  1  0.45438540  0.74560207  0.80477758  1  0  0.115471  0  0.945393  0  0  0.122138  0  1.012087  0  0  0.126181  0  1.007237  0  0  0.12725  0.119092  0  1.015777  0
H  H23  1  0.04561851  0.75440201  0.30477708  1  0  0.115527  0  0.945286  0  0  0.122201  0  1.011979  0  0  0.126245  0  1.007124  0  0  0.127282  0.119156  0  1.015667  0
H  H24  1  0.80607730  0.18404182  0.94333146  1  0  0.103227  0  0.981902  0  0  0.107219  0  1.054923  0  0  0.111097  0  1.051284  0  0  0.098699  0.104337  0  1.057627  0
H  H25  1  0.69392461  0.31595744  0.44333145  1  0  0.103278  0  0.981892  0  0  0.107248  0  1.05494  0  0  0.111128  0  1.051298  0  0  0.098712  0.104365  0  1.057654  0
H  H26  1  0.19393015  0.81595710  0.05666832  1  0  0.103271  0  0.981942  0  0  0.107253  0  1.054977  0  0  0.111129  0  1.051341  0  0  0.09871  0.104371  0  1.057691  0
H  H27  1  0.30607837  0.68403985  0.55666566  1  0  0.103263  0  0.981905  0  0  0.107251  0  1.054932  0  0  0.111126  0  1.051296  0  0  0.098716  0.104366  0  1.057638  0
H  H28  1  0.76547199  0.98457819  0.98605760  1  0  0.112545  0  0.952771  0  0  0.119855  0  1.01472  0  0  0.123426  0  1.013654  0  0  0.103235  0.117299  0  1.015696  0
H  H29  1  0.73452856  0.51542157  0.48605518  1  0  0.112532  0  0.952774  0  0  0.119861  0  1.014707  0  0  0.123432  0  1.013641  0  0  0.103241  0.117303  0  1.015682  0
H  H30  1  0.23453036  0.01542245  0.01394484  1  0  0.112544  0  0.952759  0  0  0.119852  0  1.014712  0  0  0.123423  0  1.013646  0  0  0.103247  0.117298  0  1.015684  0
H  H31  1  0.26547323  0.48457657  0.51393860  1  0  0.112515  0  0.952768  0  0  0.119853  0  1.014684  0  0  0.123426  0  1.013614  0  0  0.103242  0.117293  0  1.015664  0
H  H32  1  0.62145719  0.92768530  0.13622191  1  0  0.105179  0  0.99172  0  0  0.110539  0  1.061081  0  0  0.114416  0  1.056879  0  0  0.109948  0.107695  0  1.064099  0
H  H33  1  0.87854467  0.57231590  0.63621797  1  0  0.105155  0  0.991813  0  0  0.110541  0  1.061152  0  0  0.114417  0  1.056951  0  0  0.109933  0.107696  0  1.064177  0
H  H34  1  0.37854086  0.07231455  0.86377920  1  0  0.105193  0  0.99171  0  0  0.110541  0  1.061086  0  0  0.114426  0  1.05686  0  0  0.109953  0.107698  0  1.064102  0
H  H35  1  0.12145375  0.42768561  0.36377714  1  0  0.105211  0  0.991634  0  0  0.110528  0  1.060994  0  0  0.11439  0  1.056839  0  0  0.10994  0.107684  0  1.064014  0
H  H36  1  0.66427653  0.35002849  0.90600431  1  0  0.308255  0  0.905887  0  0  0.290016  0  0.971809  0  0  0.298512  0  0.964535  0  0  0.294976  0.283933  0  0.977074  0
H  H37  1  0.83572139  0.14997088  0.40600702  1  0  0.308247  0  0.905818  0  0  0.290022  0  0.971719  0  0  0.298518  0  0.964446  0  0  0.294985  0.283941  0  0.976981  0
H  H38  1  0.33572426  0.64997133  0.09399480  1  0  0.308232  0  0.90593  0  0  0.289984  0  0.971869  0  0  0.298481  0  0.964596  0  0  0.294982  0.283921  0  0.977109  0
H  H39  1  0.16428862  0.85002719  0.59399476  1  0  0.308248  0  0.905874  0  0  0.289997  0  0.971797  0  0  0.298494  0  0.964524  0  0  0.294996  0.283932  0  0.977035  0
C  C40  1  0.73722007  0.51241584  0.96571121  1  0  0.17157  0  3.760195  0  0  0.161779  0  4.006819  0  0  0.166627  0  4.027985  0  0  0.097466  0.158496  0  3.992563  0
C  C41  1  0.76277488  0.98758317  0.46571366  1  0  0.17142  0  3.760391  0  0  0.161707  0  4.006953  0  0  0.16655  0  4.028127  0  0  0.097384  0.158427  0  3.992685  0
C  C42  1  0.26277798  0.48758401  0.03428923  1  0  0.17159  0  3.760249  0  0  0.161851  0  4.00682  0  0  0.166698  0  4.027986  0  0  0.097474  0.158575  0  3.992549  0
C  C43  1  0.23722399  0.01241416  0.53428679  1  0  0.17151  0  3.760337  0  0  0.161854  0  4.006786  0  0  0.166699  0  4.027958  0  0  0.097482  0.158563  0  3.992529  0
C  C44  1  0.74355496  0.59486769  0.89997168  1  0  -0.153411  0  3.735847  0  0  -0.171649  0  3.990843  0  0  -0.175005  0  4.010602  0  0  -0.102067  -0.169359  0  3.97759  0
C  C45  1  0.75644020  0.90513143  0.39997621  1  0  -0.15333  0  3.735975  0  0  -0.17159  0  3.990951  0  0  -0.174946  0  4.010711  0  0  -0.102028  -0.169303  0  3.977698  0
C  C46  1  0.25644209  0.40513384  0.10002743  1  0  -0.153343  0  3.735952  0  0  -0.171633  0  3.990935  0  0  -0.174988  0  4.010694  0  0  -0.10206  -0.169346  0  3.97768  0
C  C47  1  0.24356278  0.09486586  0.60002557  1  0  -0.153286  0  3.73599  0  0  -0.171651  0  3.990977  0  0  -0.175009  0  4.010738  0  0  -0.102087  -0.169356  0  3.977733  0
C  C48  1  0.78658401  0.70483111  0.92860389  1  0  -0.074464  0  3.78938  0  0  -0.090025  0  4.045508  0  0  -0.09357  0  4.071306  0  0  -0.10242  -0.087474  0  4.028015  0
C  C49  1  0.71341124  0.79516880  0.42860789  1  0  -0.07461  0  3.789517  0  0  -0.090149  0  4.045664  0  0  -0.093694  0  4.071462  0  0  -0.102494  -0.08762  0  4.028152  0
C  C50  1  0.21341167  0.29517043  0.07139655  1  0  -0.074612  0  3.789414  0  0  -0.090168  0  4.045578  0  0  -0.093715  0  4.071375  0  0  -0.102455  -0.087632  0  4.028062  0
C  C51  1  0.28658881  0.20482768  0.57139455  1  0  -0.074496  0  3.789483  0  0  -0.090063  0  4.045649  0  0  -0.093607  0  4.071448  0  0  -0.10246  -0.087553  0  4.02815  0
C  C52  1  0.81906047  0.73115921  0.01928234  1  0  -0.085846  0  3.791617  0  0  -0.101914  0  4.047137  0  0  -0.106407  0  4.073299  0  0  -0.106643  -0.098758  0  4.029339  0
C  C53  1  0.68093435  0.76883974  0.51928836  1  0  -0.085594  0  3.79165  0  0  -0.101651  0  4.047127  0  0  -0.106146  0  4.073291  0  0  -0.106558  -0.098507  0  4.029328  0
C  C54  1  0.18093384  0.26884234  0.98071677  1  0  -0.085718  0  3.791718  0  0  -0.101791  0  4.047219  0  0  -0.106286  0  4.073387  0  0  -0.106613  -0.098622  0  4.029417  0
C  C55  1  0.31906333  0.23115843  0.48071475  1  0  -0.085721  0  3.791602  0  0  -0.101791  0  4.047119  0  0  -0.106284  0  4.073276  0  0  -0.106582  -0.098644  0  4.029336  0
C  C56  1  0.81373071  0.64909822  0.08468600  1  0  -0.130395  0  3.728252  0  0  -0.151955  0  3.983229  0  0  -0.153286  0  4.001716  0  0  -0.098495  -0.150961  0  3.970799  0
C  C57  1  0.68627250  0.85090222  0.58468993  1  0  -0.130597  0  3.728423  0  0  -0.152115  0  3.983413  0  0  -0.153452  0  4.001887  0  0  -0.098563  -0.151124  0  3.970993  0
C  C58  1  0.18626597  0.35090163  0.91531378  1  0  -0.130533  0  3.728321  0  0  -0.152096  0  3.983326  0  0  -0.153441  0  4.00181  0  0  -0.098539  -0.151106  0  3.970898  0
C  C59  1  0.31372555  0.14909762  0.41531184  1  0  -0.130485  0  3.728425  0  0  -0.152023  0  3.983407  0  0  -0.153347  0  4.001895  0  0  -0.098543  -0.151029  0  3.970982  0
C  C60  1  0.77283320  0.53809096  0.05685482  1  0  0.152309  0  3.782008  0  0  0.147962  0  4.027978  0  0  0.151503  0  4.050525  0  0  0.084926  0.145488  0  4.012841  0
C  C61  1  0.72716580  0.96190873  0.55685996  1  0  0.152341  0  3.782072  0  0  0.147941  0  4.028084  0  0  0.151488  0  4.050634  0  0  0.084956  0.145464  0  4.012952  0
C  C62  1  0.22716796  0.46191053  0.94314362  1  0  0.15229  0  3.782028  0  0  0.147935  0  4.027982  0  0  0.15148  0  4.050531  0  0  0.084892  0.145463  0  4.012844  0
C  C63  1  0.27283207  0.03809028  0.44314115  1  0  0.152172  0  3.782016  0  0  0.147796  0  4.027989  0  0  0.151339  0  4.050536  0  0  0.084917  0.145324  0  4.012852  0
C  C64  1  0.71279498  0.35608004  0.04587692  1  0  0.367811  0  3.737871  0  0  0.332282  0  3.999794  0  0  0.350117  0  4.014839  0  0  0.239337  0.320763  0  3.989251  0
C  C65  1  0.78720273  0.14391996  0.54587964  1  0  0.367786  0  3.737978  0  0  0.3323  0  3.999851  0  0  0.350156  0  4.014875  0  0  0.239353  0.320773  0  3.989321  0
C  C66  1  0.28721011  0.64392058  0.95412219  1  0  0.367837  0  3.737861  0  0  0.332356  0  3.999684  0  0  0.350207  0  4.014713  0  0  0.239369  0.320828  0  3.989157  0
C  C67  1  0.21279906  0.85607818  0.45412147  1  0  0.36778  0  3.737911  0  0  0.332244  0  3.999794  0  0  0.350096  0  4.014818  0  0  0.239301  0.320727  0  3.98925  0
C  C68  1  0.60083596  0.20051454  0.14643056  1  0  0.000216  0  3.57264  0  0  -0.048534  0  3.828762  0  0  -0.03877  0  3.838054  0  0  0.04814  -0.054669  0  3.822623  0
C  C69  1  0.89915887  0.29948615  0.64643105  1  0  0.000153  0  3.572605  0  0  -0.048566  0  3.828727  0  0  -0.038795  0  3.838002  0  0  0.048134  -0.054688  0  3.822576  0
C  C70  1  0.39916521  0.79948695  0.85357055  1  0  0.000237  0  3.572849  0  0  -0.048534  0  3.82898  0  0  -0.038763  0  3.838257  0  0  0.048179  -0.054662  0  3.822833  0
C  C71  1  0.10083407  0.70051541  0.35356939  1  0  0.000227  0  3.572681  0  0  -0.048552  0  3.82879  0  0  -0.038791  0  3.838089  0  0  0.048134  -0.054688  0  3.822648  0
C  C72  1  0.68318489  0.23705116  0.06608832  1  0  -0.032514  0  3.810411  0  0  -0.00858  0  4.044725  0  0  -0.01548  0  4.065594  0  0  0.00486  -0.004664  0  4.030901  0
C  C73  1  0.81680883  0.26294968  0.56609024  1  0  -0.032511  0  3.81057  0  0  -0.008583  0  4.044836  0  0  -0.01549  0  4.0657  0  0  0.004828  -0.00467  0  4.03102  0
C  C74  1  0.31681628  0.76295033  0.93390946  1  0  -0.032514  0  3.810597  0  0  -0.008539  0  4.044813  0  0  -0.015443  0  4.06568  0  0  0.004869  -0.00462  0  4.030993  0
C  C75  1  0.18318904  0.73704933  0.43390887  1  0  -0.032575  0  3.810575  0  0  -0.008567  0  4.044777  0  0  -0.015475  0  4.065642  0  0  0.004871  -0.004655  0  4.030957  0
C  C76  1  0.74067713  0.15859949  0.00650195  1  0  -0.047209  0  3.692487  0  0  -0.082488  0  3.947735  0  0  -0.07611  0  3.96227  0  0  -0.072393  -0.0863  0  3.937999  0
C  C77  1  0.75932015  0.34139808  0.50650184  1  0  -0.047283  0  3.69245  0  0  -0.082538  0  3.947655  0  0  -0.076155  0  3.962183  0  0  -0.072388  -0.086355  0  3.937932  0
C  C78  1  0.25932466  0.84139865  0.99349916  1  0  -0.047296  0  3.692562  0  0  -0.082593  0  3.947792  0  0  -0.07621  0  3.962322  0  0  -0.072425  -0.086414  0  3.938076  0
C  C79  1  0.24068164  0.65860006  0.49349661  1  0  -0.047257  0  3.692335  0  0  -0.08258  0  3.947575  0  0  -0.076194  0  3.962101  0  0  -0.072414  -0.086393  0  3.937845  0
C  C80  1  0.71825078  0.04662326  0.03058061  1  0  -0.081733  0  3.757366  0  0  -0.091465  0  4.010321  0  0  -0.098626  0  4.0298  0  0  -0.080003  -0.087336  0  3.997669  0
C  C81  1  0.78174734  0.45337844  0.53057904  1  0  -0.081602  0  3.757396  0  0  -0.091352  0  4.010349  0  0  -0.098513  0  4.029823  0  0  -0.079945  -0.087209  0  3.997685  0
C  C82  1  0.28175019  0.95337740  0.96941983  1  0  -0.081635  0  3.757515  0  0  -0.091374  0  4.010473  0  0  -0.098538  0  4.029954  0  0  -0.079971  -0.087234  0  3.997812  0
C  C83  1  0.21825071  0.54662140  0.46941540  1  0  -0.081672  0  3.757282  0  0  -0.091467  0  4.010209  0  0  -0.098626  0  4.029678  0  0  -0.080064  -0.087334  0  3.997557  0
C  C84  1  0.64102744  0.01341523  0.11198780  1  0  0.022196  0  3.588114  0  0  -0.016968  0  3.840691  0  0  -0.007607  0  3.851188  0  0  0.038004  -0.022871  0  3.833913  0
C  C85  1  0.85897161  0.48658548  0.61198481  1  0  0.022066  0  3.588524  0  0  -0.017158  0  3.841172  0  0  -0.007797  0  3.85167  0  0  0.03792  -0.023067  0  3.834401  0
C  C86  1  0.35897042  0.98658377  0.88801531  1  0  0.022059  0  3.588418  0  0  -0.017095  0  3.840999  0  0  -0.007735  0  3.851502  0  0  0.037931  -0.022994  0  3.834212  0
C  C87  1  0.14102737  0.51341854  0.38801230  1  0  0.022132  0  3.58813  0  0  -0.0169  0  3.840598  0  0  -0.007547  0  3.851085  0  0  0.038011  -0.022803  0  3.833822  0
Br  Br88  1  0.55113366  0.46195506  0.31787761  1  0  -0.531642  0  0.989843  0  0  -0.468739  0  1.287633  0  0  -0.487612  0  1.264431  0  0  -0.267682  -0.454904  0  1.303382  0
Br  Br89  1  0.94886244  0.03804113  0.81787831  1  0  -0.53164  0  0.989842  0  0  -0.46875  0  1.287658  0  0  -0.487631  0  1.264459  0  0  -0.267696  -0.454911  0  1.303403  0
Br  Br90  1  0.44886788  0.53804810  0.68211750  1  0  -0.531648  0  0.9898  0  0  -0.468768  0  1.28762  0  0  -0.487642  0  1.264415  0  0  -0.26769  -0.454927  0  1.303373  0
Br  Br91  1  0.05114309  0.96195530  0.18212147  1  0  -0.531642  0  0.989786  0  0  -0.468754  0  1.287604  0  0  -0.487631  0  1.264404  0  0  -0.267696  -0.454916  0  1.303349  0
Br  Br92  1  0.94752518  0.26043754  0.28185328  1  0  -0.511077  0  1.053208  0  0  -0.455844  0  1.357601  0  0  -0.474584  0  1.335075  0  0  -0.232707  -0.442275  0  1.37291  0
Br  Br93  1  0.55246684  0.23956461  0.78185077  1  0  -0.511079  0  1.053255  0  0  -0.455825  0  1.357608  0  0  -0.474571  0  1.335075  0  0  -0.232696  -0.442253  0  1.372924  0
Br  Br94  1  0.05247443  0.73956313  0.71814849  1  0  -0.511066  0  1.053226  0  0  -0.455825  0  1.357599  0  0  -0.474571  0  1.335068  0  0  -0.232691  -0.442257  0  1.372912  0
Br  Br95  1  0.44753121  0.76043524  0.21814968  1  0  -0.511076  0  1.053251  0  0  -0.455829  0  1.357619  0  0  -0.474574  0  1.335089  0  0  -0.232708  -0.442262  0  1.372938  0
N  N96  1  0.75805506  0.43847900  0.10489545  1  0  -0.450233  0  3.192929  0  0  -0.376061  0  3.475447  0  0  -0.3986  0  3.48765  0  0  -0.34657  -0.360952  0  3.467027  0
N  N97  1  0.74194675  0.06152170  0.60489896  1  0  -0.450231  0  3.192937  0  0  -0.376048  0  3.475421  0  0  -0.398601  0  3.487629  0  0  -0.346586  -0.360943  0  3.467013  0
N  N98  1  0.24195295  0.56152243  0.89510299  1  0  -0.450214  0  3.192924  0  0  -0.376062  0  3.475429  0  0  -0.398614  0  3.487637  0  0  -0.34652  -0.360954  0  3.467019  0
N  N99  1  0.25805367  0.93847645  0.39510149  1  0  -0.450087  0  3.192869  0  0  -0.375941  0  3.475391  0  0  -0.398485  0  3.487591  0  0  -0.346541  -0.360835  0  3.466971  0
N  N100  1  0.70108609  0.39731051  0.96191732  1  0  -0.352055  0  3.351837  0  0  -0.292935  0  3.57455  0  0  -0.310798  0  3.586651  0  0  -0.361415  -0.280932  0  3.566338  0
N  N101  1  0.79891047  0.10268961  0.46192077  1  0  -0.351897  0  3.351902  0  0  -0.292836  0  3.574588  0  0  -0.310706  0  3.586689  0  0  -0.36134  -0.280828  0  3.566371  0
N  N102  1  0.29891370  0.60269099  0.03808245  1  0  -0.352003  0  3.351909  0  0  -0.292921  0  3.574616  0  0  -0.310788  0  3.586714  0  0  -0.361432  -0.280933  0  3.56638  0
N  N103  1  0.20109407  0.89730851  0.53808100  1  0  -0.351982  0  3.352014  0  0  -0.292865  0  3.574644  0  0  -0.310733  0  3.586744  0  0  -0.361388  -0.280872  0  3.566405  0
N  N104  1  0.58215689  0.09046727  0.16798947  1  0  0.272149  0  3.683686  0  0  0.324516  0  3.94237  0  0  0.32302  0  3.962839  0  0  -0.114253  0.324655  0  3.928591  0
N  N105  1  0.91783980  0.40953587  0.66798851  1  0  0.272117  0  3.683838  0  0  0.324505  0  3.94251  0  0  0.32301  0  3.962977  0  0  -0.114297  0.324639  0  3.928735  0
N  N106  1  0.41784309  0.90953507  0.83201031  1  0  0.272152  0  3.683808  0  0  0.324523  0  3.942478  0  0  0.323029  0  3.962949  0  0  -0.114273  0.324655  0  3.928702  0
N  N107  1  0.08215333  0.59046652  0.33200860  1  0  0.272186  0  3.683618  0  0  0.324518  0  3.942293  0  0  0.323027  0  3.962756  0  0  -0.114206  0.324656  0  3.928514  0
O  O108  1  0.51219986  0.06108476  0.24763996  1  0  -0.515954  0  1.869732  0  0  -0.460458  0  2.133179  0  0  -0.485294  0  2.128297  0  0  -0.241827  -0.4427  0  2.135978  0
O  O109  1  0.98780050  0.43891738  0.74763758  1  0  -0.515897  0  1.869756  0  0  -0.460416  0  2.133196  0  0  -0.485262  0  2.12833  0  0  -0.241779  -0.442658  0  2.135994  0
O  O110  1  0.48780112  0.93891590  0.75236115  1  0  -0.515905  0  1.86972  0  0  -0.460429  0  2.133175  0  0  -0.485268  0  2.128296  0  0  -0.241806  -0.442671  0  2.135973  0
O  O111  1  0.01219555  0.56108583  0.25235820  1  0  -0.515975  0  1.869781  0  0  -0.460501  0  2.133261  0  0  -0.485341  0  2.128386  0  0  -0.241819  -0.442741  0  2.136053  0
