# generated using pymatgen
data_GaH3C2O5
_symmetry_space_group_name_H-M   'P 1'
_cell_length_a   6.87184237
_cell_length_b   6.87182850
_cell_length_c   10.09825922
_cell_angle_alpha   100.15490177
_cell_angle_beta   100.15405646
_cell_angle_gamma   100.03203825
_symmetry_Int_Tables_number   1
_chemical_formula_structural   GaH3C2O5
_chemical_formula_sum   'Ga4 H12 C8 O20'
_cell_volume   451.55015090
_cell_formula_units_Z   4
loop_
 _symmetry_equiv_pos_site_id
 _symmetry_equiv_pos_as_xyz
  1  'x, y, z'
loop_
 _atom_site_type_symbol
 _atom_site_label
 _atom_site_symmetry_multiplicity
 _atom_site_fract_x
 _atom_site_fract_y
 _atom_site_fract_z
 _atom_site_occupancy
 _atom_site_hle17_bader_spin_density
 _atom_site_hle17_ddec_charge
 _atom_site_hle17_ddec_spin_density
 _atom_site_hle17_ddec_sum_bond_order
 _atom_site_hle17_magmom
 _atom_site_hse06_10hf_bader_spin_density
 _atom_site_hse06_10hf_ddec_charge
 _atom_site_hse06_10hf_ddec_spin_density
 _atom_site_hse06_10hf_ddec_sum_bond_order
 _atom_site_hse06_10hf_magmom
 _atom_site_hse06_bader_spin_density
 _atom_site_hse06_ddec_charge
 _atom_site_hse06_ddec_spin_density
 _atom_site_hse06_ddec_sum_bond_order
 _atom_site_hse06_magmom
 _atom_site_pbe_bader_spin_density
 _atom_site_pbe_cm5_charge
 _atom_site_pbe_ddec_charge
 _atom_site_pbe_ddec_spin_density
 _atom_site_pbe_ddec_sum_bond_order
 _atom_site_pbe_magmom
Ga  Ga0  1  0.75163900  0.24728003  0.74987518  1  0  1.636615  0  2.290449  0  0  1.478544  0  2.721699  0  0  1.536453  0  2.666379  0  0  0.583944  1.437824  0  2.759598  0
Ga  Ga1  1  0.75272243  0.24835762  0.25012585  1  0  1.636663  0  2.290429  0  0  1.478552  0  2.7217  0  0  1.536463  0  2.666372  0  0  0.583933  1.43783  0  2.759602  0
Ga  Ga2  1  0.75187397  0.74737268  0.74995344  1  0  1.627779  0  2.31082  0  0  1.476635  0  2.73853  0  0  1.533866  0  2.683291  0  0  0.584088  1.436589  0  2.776177  0
Ga  Ga3  1  0.25263473  0.24812319  0.25004672  1  0  1.627752  0  2.310822  0  0  1.476618  0  2.738528  0  0  1.533847  0  2.683295  0  0  0.584083  1.436572  0  2.776176  0
H  H4  1  0.22582593  0.04919032  0.64079612  1  0  0.029716  0  0.922227  0  0  0.036662  0  0.990304  0  0  0.036391  0  0.986643  0  0  0.122288  0.036629  0  0.993035  0
H  H5  1  0.95081002  0.77416955  0.35920811  1  0  0.029704  0  0.922274  0  0  0.036697  0  0.990279  0  0  0.036425  0  0.98662  0  0  0.122282  0.03666  0  0.993017  0
H  H6  1  0.44015676  0.85134376  0.40701790  1  0  0.038429  0  0.92018  0  0  0.043982  0  0.992713  0  0  0.044389  0  0.987652  0  0  0.127574  0.04341  0  0.996468  0
H  H7  1  0.14865862  0.55985125  0.59298003  1  0  0.038449  0  0.920221  0  0  0.044011  0  0.992739  0  0  0.044405  0  0.987693  0  0  0.127599  0.043439  0  0.996494  0
H  H8  1  0.06351084  0.64296189  0.09278170  1  0  0.040158  0  0.919807  0  0  0.04469  0  0.99318  0  0  0.045182  0  0.988025  0  0  0.128285  0.044122  0  0.996976  0
H  H9  1  0.35704946  0.93647817  0.90722180  1  0  0.040195  0  0.919786  0  0  0.044685  0  0.993194  0  0  0.045179  0  0.988034  0  0  0.128287  0.044119  0  0.996988  0
H  H10  1  0.80434559  0.46477457  0.57597621  1  0  0.437798  0  0.862952  0  0  0.404262  0  0.930745  0  0  0.416307  0  0.913239  0  0  0.3119  0.395601  0  0.943313  0
H  H11  1  0.53522726  0.19565106  0.42402357  1  0  0.437801  0  0.862962  0  0  0.404263  0  0.93076  0  0  0.416307  0  0.913255  0  0  0.311903  0.395603  0  0.943325  0
H  H12  1  0.70033529  0.03018852  0.92417551  1  0  0.437391  0  0.863401  0  0  0.404118  0  0.930767  0  0  0.416069  0  0.913411  0  0  0.312091  0.395499  0  0.943286  0
H  H13  1  0.96981454  0.29967180  0.07582504  1  0  0.437348  0  0.863461  0  0  0.404078  0  0.930824  0  0  0.416027  0  0.913473  0  0  0.312075  0.395461  0  0.943341  0
H  H14  1  0.27663129  0.44547569  0.85772802  1  0  0.030339  0  0.920156  0  0  0.037124  0  0.988517  0  0  0.036842  0  0.984858  0  0  0.122657  0.037106  0  0.991204  0
H  H15  1  0.55452501  0.72336450  0.14226807  1  0  0.030292  0  0.920175  0  0  0.037082  0  0.98853  0  0  0.036802  0  0.984872  0  0  0.122644  0.037063  0  0.991229  0
C  C16  1  0.07996623  0.02880228  0.67371612  1  0  0.621448  0  3.821687  0  0  0.547357  0  4.135141  0  0  0.58299  0  4.124661  0  0  0.184132  0.523154  0  4.141621  0
C  C17  1  0.97119962  0.92002803  0.32628579  1  0  0.621341  0  3.821833  0  0  0.547224  0  4.13529  0  0  0.582855  0  4.124814  0  0  0.184131  0.523022  0  4.141765  0
C  C18  1  0.53600047  0.89706883  0.51186525  1  0  0.624646  0  3.797927  0  0  0.542784  0  4.113574  0  0  0.578605  0  4.10266  0  0  0.188959  0.518508  0  4.120445  0
C  C19  1  0.10293266  0.46400353  0.48813582  1  0  0.624558  0  3.798055  0  0  0.542672  0  4.113705  0  0  0.578501  0  4.102791  0  0  0.188898  0.518394  0  4.120576  0
C  C20  1  0.96755239  0.59753671  0.98798211  1  0  0.624568  0  3.796084  0  0  0.543519  0  4.111545  0  0  0.579296  0  4.100556  0  0  0.189981  0.519201  0  4.118482  0
C  C21  1  0.40247014  0.03243623  0.01201915  1  0  0.624528  0  3.796067  0  0  0.543526  0  4.111526  0  0  0.579308  0  4.100524  0  0  0.189898  0.519207  0  4.118467  0
C  C22  1  0.42305437  0.46576476  0.82554936  1  0  0.622063  0  3.821105  0  0  0.547831  0  4.134647  0  0  0.583499  0  4.124157  0  0  0.183828  0.523621  0  4.141106  0
C  C23  1  0.53423936  0.57694191  0.17444856  1  0  0.622173  0  3.821147  0  0  0.547942  0  4.134687  0  0  0.583606  0  4.124204  0  0  0.183884  0.523726  0  4.14115  0
O  O24  1  0.77718271  0.48037519  0.66993969  1  0  -0.98548  0  1.961465  0  0  -0.912807  0  2.230491  0  0  -0.941172  0  2.195687  0  0  -0.481627  -0.892859  0  2.254334  0
O  O25  1  0.51963445  0.22281631  0.33005953  1  0  -0.985562  0  1.961542  0  0  -0.912857  0  2.230549  0  0  -0.941221  0  2.19574  0  0  -0.481644  -0.892908  0  2.254394  0
O  O26  1  0.01884568  0.85828422  0.70112914  1  0  -0.596606  0  2.103134  0  0  -0.536771  0  2.365111  0  0  -0.564601  0  2.353472  0  0  -0.261844  -0.517431  0  2.372368  0
O  O27  1  0.14171427  0.98115081  0.29887400  1  0  -0.596513  0  2.103184  0  0  -0.536707  0  2.365188  0  0  -0.564532  0  2.353546  0  0  -0.261824  -0.517366  0  2.372444  0
O  O28  1  0.72640505  0.01428401  0.82991264  1  0  -0.986125  0  1.961365  0  0  -0.913281  0  2.230097  0  0  -0.941683  0  2.19565  0  0  -0.482074  -0.893303  0  2.253673  0
O  O29  1  0.98572096  0.27359280  0.17008584  1  0  -0.986045  0  1.961333  0  0  -0.913226  0  2.230102  0  0  -0.94163  0  2.195656  0  0  -0.482041  -0.893248  0  2.253679  0
O  O30  1  0.56423952  0.08525804  0.56800502  1  0  -0.621107  0  2.144552  0  0  -0.547042  0  2.398685  0  0  -0.575979  0  2.386717  0  0  -0.259379  -0.526906  0  2.406348  0
O  O31  1  0.91474444  0.43576284  0.43199286  1  0  -0.621114  0  2.144637  0  0  -0.547013  0  2.398758  0  0  -0.57592  0  2.386731  0  0  -0.259349  -0.526876  0  2.40642  0
O  O32  1  0.60240490  0.76030987  0.56186514  1  0  -0.570181  0  2.129933  0  0  -0.507155  0  2.391651  0  0  -0.534455  0  2.380633  0  0  -0.250446  -0.488459  0  2.398671  0
O  O33  1  0.23969690  0.39759876  0.43813156  1  0  -0.570137  0  2.130009  0  0  -0.507082  0  2.391684  0  0  -0.534387  0  2.380665  0  0  -0.250405  -0.488384  0  2.398704  0
O  O34  1  0.99616324  0.18006334  0.67830297  1  0  -0.610564  0  2.118819  0  0  -0.548964  0  2.385595  0  0  -0.577722  0  2.375202  0  0  -0.265822  -0.528961  0  2.391976  0
O  O35  1  0.81993703  0.00383087  0.32170193  1  0  -0.610573  0  2.118828  0  0  -0.548938  0  2.385579  0  0  -0.577695  0  2.375181  0  0  -0.265877  -0.528935  0  2.391961  0
O  O36  1  0.93864041  0.40927633  0.93180699  1  0  -0.622169  0  2.144769  0  0  -0.548492  0  2.399089  0  0  -0.577354  0  2.386983  0  0  -0.260758  -0.528403  0  2.406912  0
O  O37  1  0.59073088  0.06135066  0.06819383  1  0  -0.622209  0  2.144805  0  0  -0.54851  0  2.399079  0  0  -0.577387  0  2.386979  0  0  -0.260681  -0.528422  0  2.406905  0
O  O38  1  0.90174462  0.73460455  0.93799654  1  0  -0.570819  0  2.129004  0  0  -0.507521  0  2.389911  0  0  -0.534816  0  2.378899  0  0  -0.251126  -0.488834  0  2.396949  0
O  O39  1  0.26540038  0.09824305  0.06200735  1  0  -0.570757  0  2.128898  0  0  -0.507518  0  2.389837  0  0  -0.534808  0  2.378815  0  0  -0.251099  -0.488832  0  2.396878  0
O  O40  1  0.48495487  0.63657020  0.79876557  1  0  -0.596995  0  2.104099  0  0  -0.536715  0  2.365876  0  0  -0.564557  0  2.354177  0  0  -0.261716  -0.517372  0  2.373176  0
O  O41  1  0.36343115  0.51503940  0.20122934  1  0  -0.597057  0  2.104063  0  0  -0.536782  0  2.365842  0  0  -0.564625  0  2.354148  0  0  -0.261744  -0.517438  0  2.373147  0
O  O42  1  0.50655965  0.31432220  0.82094493  1  0  -0.610879  0  2.120409  0  0  -0.548737  0  2.386317  0  0  -0.577534  0  2.375942  0  0  -0.264936  -0.528712  0  2.392693  0
O  O43  1  0.68567908  0.49343882  0.17905275  1  0  -0.610864  0  2.120438  0  0  -0.548741  0  2.386391  0  0  -0.577538  0  2.376016  0  0  -0.264952  -0.528714  0  2.392769  0
