# generated using pymatgen
data_CuH14C16S3IN2
_symmetry_space_group_name_H-M   'P 1'
_cell_length_a   9.21735353
_cell_length_b   14.39833537
_cell_length_c   16.45300000
_cell_angle_alpha   90.00000000
_cell_angle_beta   90.00000000
_cell_angle_gamma   105.47300552
_symmetry_Int_Tables_number   1
_chemical_formula_structural   CuH14C16S3IN2
_chemical_formula_sum   'Cu4 H56 C64 S12 I4 N8'
_cell_volume   2104.41232602
_cell_formula_units_Z   4
loop_
 _symmetry_equiv_pos_site_id
 _symmetry_equiv_pos_as_xyz
  1  'x, y, z'
loop_
 _atom_site_type_symbol
 _atom_site_label
 _atom_site_symmetry_multiplicity
 _atom_site_fract_x
 _atom_site_fract_y
 _atom_site_fract_z
 _atom_site_occupancy
 _atom_site_hle17_bader_spin_density
 _atom_site_hle17_ddec_charge
 _atom_site_hle17_ddec_spin_density
 _atom_site_hle17_ddec_sum_bond_order
 _atom_site_hle17_magmom
 _atom_site_hse06_10hf_bader_spin_density
 _atom_site_hse06_10hf_ddec_charge
 _atom_site_hse06_10hf_ddec_spin_density
 _atom_site_hse06_10hf_ddec_sum_bond_order
 _atom_site_hse06_10hf_magmom
 _atom_site_hse06_bader_spin_density
 _atom_site_hse06_ddec_charge
 _atom_site_hse06_ddec_spin_density
 _atom_site_hse06_ddec_sum_bond_order
 _atom_site_hse06_magmom
 _atom_site_pbe_bader_charge
 _atom_site_pbe_bader_spin_density
 _atom_site_pbe_cm5_charge
 _atom_site_pbe_ddec_charge
 _atom_site_pbe_ddec_spin_density
 _atom_site_pbe_ddec_sum_bond_order
 _atom_site_pbe_magmom
Cu  Cu0  1  0.97748113  0.05537497  0.94280010  1  0  0.289613  0  2.167494  0  0  0.191185  0  2.665695  0  0  0.197659  0  2.614491  0  0.506653  0  0.339549  0.190563  0  2.697287  0
Cu  Cu1  1  0.52253310  0.44463707  0.44279888  1  0  0.289662  0  2.167473  0  0  0.191263  0  2.665674  0  0  0.197732  0  2.614467  0  0.506639  0  0.339589  0.190633  0  2.697257  0
Cu  Cu2  1  0.02253927  0.94462533  0.05719808  1  0  0.289601  0  2.16755  0  0  0.191207  0  2.665769  0  0  0.197738  0  2.614562  0  0.507182  0  0.339554  0.190586  0  2.697353  0
Cu  Cu3  1  0.47747650  0.55537116  0.55720841  1  0  0.289601  0  2.167546  0  0  0.191171  0  2.665758  0  0  0.197678  0  2.614541  0  0.507004  0  0.339545  0.190541  0  2.697333  0
H  H4  1  0.36641412  0.25224038  0.80903847  1  0  0.109385  0  0.924855  0  0  0.126443  0  0.977554  0  0  0.127166  0  0.978831  0  0.087319  0  0.101481  0.125955  0  0.97675  0
H  H5  1  0.13358713  0.24776302  0.30903969  1  0  0.10941  0  0.924765  0  0  0.126461  0  0.977474  0  0  0.127184  0  0.978751  0  0.087336  0  0.101489  0.125972  0  0.976668  0
H  H6  1  0.63359375  0.74775849  0.19096031  1  0  0.109455  0  0.924819  0  0  0.126552  0  0.97744  0  0  0.127266  0  0.97872  0  0.087393  0  0.101504  0.12606  0  0.976638  0
H  H7  1  0.86640613  0.75225026  0.69096517  1  0  0.109425  0  0.924767  0  0  0.126483  0  0.977469  0  0  0.127211  0  0.978749  0  0.087469  0  0.101522  0.125994  0  0.976664  0
H  H8  1  0.33412496  0.23965578  0.91653437  1  0  0.097174  0  0.984722  0  0  0.107463  0  1.057489  0  0  0.108984  0  1.057039  0  0.113266  0  0.084665  0.106243  0  1.057989  0
H  H9  1  0.16588021  0.26034401  0.41653559  1  0  0.097183  0  0.984645  0  0  0.10747  0  1.057418  0  0  0.108991  0  1.056968  0  0.115988  0  0.084656  0.106246  0  1.05792  0
H  H10  1  0.66588406  0.76033804  0.08346198  1  0  0.09725  0  0.984588  0  0  0.107495  0  1.057393  0  0  0.109016  0  1.05693  0  0.115917  0  0.084652  0.106271  0  1.057893  0
H  H11  1  0.83410644  0.73965341  0.58346928  1  0  0.097212  0  0.984623  0  0  0.107491  0  1.057393  0  0  0.109016  0  1.056946  0  0.115568  0  0.084633  0.106267  0  1.057894  0
H  H12  1  0.41053931  0.44961816  0.03518203  1  0  0.093666  0  0.962941  0  0  0.103013  0  1.038945  0  0  0.104236  0  1.038787  0  0.100048  0  0.093199  0.102124  0  1.03914  0
H  H13  1  0.08947073  0.05038812  0.53518568  1  0  0.093637  0  0.962832  0  0  0.102991  0  1.038877  0  0  0.104209  0  1.038714  0  0.100101  0  0.09317  0.102101  0  1.039072  0
H  H14  1  0.58948248  0.55038287  0.96481310  1  0  0.093651  0  0.962838  0  0  0.102991  0  1.038921  0  0  0.104219  0  1.03876  0  0.099044  0  0.093188  0.1021  0  1.039114  0
H  H15  1  0.91051283  0.94962011  0.46481371  1  0  0.093626  0  0.962854  0  0  0.10298  0  1.038927  0  0  0.104206  0  1.038762  0  0.099062  0  0.093157  0.102091  0  1.039121  0
H  H16  1  0.31349744  0.32518752  0.02272655  1  0  0.096148  0  0.984087  0  0  0.109619  0  1.050196  0  0  0.111126  0  1.049728  0  0.096188  0  0.083983  0.108449  0  1.050568  0
H  H17  1  0.18651725  0.17481948  0.52272838  1  0  0.096085  0  0.984086  0  0  0.109561  0  1.050214  0  0  0.111061  0  1.049747  0  0.096427  0  0.083937  0.108393  0  1.050587  0
H  H18  1  0.68651036  0.67481639  0.97727892  1  0  0.09608  0  0.984133  0  0  0.109524  0  1.050294  0  0  0.111033  0  1.049827  0  0.096601  0  0.083958  0.108354  0  1.050663  0
H  H19  1  0.81348928  0.82518659  0.47727162  1  0  0.096126  0  0.984095  0  0  0.109569  0  1.050237  0  0  0.111074  0  1.049766  0  0.096521  0  0.083968  0.108399  0  1.050612  0
H  H20  1  0.25374318  0.37428713  0.73021030  1  0  0.133963  0  0.98578  0  0  0.140684  0  1.052748  0  0  0.14406  0  1.051054  0  0.160106  0  0.094057  0.138138  0  1.054036  0
H  H21  1  0.24622909  0.12570402  0.23021090  1  0  0.133978  0  0.9857  0  0  0.140696  0  1.052665  0  0  0.144073  0  1.050974  0  0.160007  0  0.09411  0.138176  0  1.053921  0
H  H22  1  0.74624998  0.62571030  0.26979092  1  0  0.133972  0  0.985764  0  0  0.140683  0  1.052738  0  0  0.144059  0  1.051044  0  0.160126  0  0.094065  0.13814  0  1.054022  0
H  H23  1  0.75373725  0.87429413  0.76978910  1  0  0.133975  0  0.985852  0  0  0.140729  0  1.052774  0  0  0.144129  0  1.051054  0  0.160301  0  0.09409  0.138176  0  1.054072  0
H  H24  1  0.64265778  0.03175372  0.92843737  1  0  0.068856  0  0.961467  0  0  0.07577  0  1.028963  0  0  0.079121  0  1.025471  0  0.09679  0  0.096461  0.073212  0  1.031609  0
H  H25  1  0.85734797  0.46824319  0.42841913  1  0  0.068864  0  0.961626  0  0  0.075812  0  1.02907  0  0  0.079143  0  1.025601  0  0.09673  0  0.096473  0.07328  0  1.03169  0
H  H26  1  0.35736215  0.96823506  0.07156081  1  0  0.068742  0  0.961428  0  0  0.075678  0  1.028905  0  0  0.079018  0  1.025424  0  0.097003  0  0.096354  0.073116  0  1.031552  0
H  H27  1  0.14265188  0.53175207  0.57156263  1  0  0.068856  0  0.961504  0  0  0.075806  0  1.028963  0  0  0.079135  0  1.025498  0  0.097192  0  0.096448  0.073264  0  1.031593  0
H  H28  1  0.11289094  0.48594220  0.24822039  1  0  0.096972  0  0.984522  0  0  0.104051  0  1.052463  0  0  0.107467  0  1.051359  0  0.084867  0  0.093276  0.101599  0  1.05345  0
H  H29  1  0.38710590  0.01406624  0.74822099  1  0  0.097035  0  0.984444  0  0  0.104119  0  1.052369  0  0  0.107533  0  1.051262  0  0.084368  0  0.093316  0.10167  0  1.05335  0
H  H30  1  0.88711968  0.51407108  0.75178265  1  0  0.096964  0  0.984502  0  0  0.104059  0  1.052434  0  0  0.107475  0  1.051331  0  0.08478  0  0.093233  0.101608  0  1.053422  0
H  H31  1  0.61288220  0.98592686  0.25176928  1  0  0.096948  0  0.984522  0  0  0.104064  0  1.052419  0  0  0.107477  0  1.05131  0  0.084365  0  0.093296  0.101612  0  1.053405  0
H  H32  1  0.25206603  0.49482629  0.37913207  1  0  0.078176  0  0.930606  0  0  0.087322  0  0.992462  0  0  0.090645  0  0.98866  0  0.101186  0  0.111631  0.084726  0  0.99547  0
H  H33  1  0.24792961  0.00517927  0.87913086  1  0  0.078183  0  0.930493  0  0  0.087275  0  0.992421  0  0  0.090596  0  0.988623  0  0.101316  0  0.111624  0.084681  0  0.995429  0
H  H34  1  0.74793605  0.50517690  0.62087522  1  0  0.078247  0  0.930467  0  0  0.087398  0  0.992333  0  0  0.090726  0  0.988521  0  0.101445  0  0.111623  0.084799  0  0.995347  0
H  H35  1  0.75206789  0.99481816  0.12086003  1  0  0.078176  0  0.930731  0  0  0.087331  0  0.99256  0  0  0.090649  0  0.988766  0  0.101074  0  0.111672  0.084738  0  0.995565  0
H  H36  1  0.01943423  0.26217301  0.95556069  1  0  0.071963  0  0.968699  0  0  0.076477  0  1.042645  0  0  0.079266  0  1.039983  0  0.067962  0  0.09904  0.07431  0  1.044791  0
H  H37  1  0.48055742  0.23784120  0.45556433  1  0  0.071986  0  0.96849  0  0  0.076523  0  1.042407  0  0  0.079313  0  1.039756  0  0.067931  0  0.099079  0.074355  0  1.04455  0
H  H38  1  0.98057352  0.73782297  0.04445815  1  0  0.072034  0  0.968559  0  0  0.076583  0  1.042458  0  0  0.07937  0  1.039795  0  0.068169  0  0.099059  0.074382  0  1.044636  0
H  H39  1  0.51943042  0.76217208  0.54445998  1  0  0.072054  0  0.968539  0  0  0.076599  0  1.042434  0  0  0.079389  0  1.039766  0  0.068055  0  0.099056  0.074391  0  1.044617  0
H  H40  1  0.14946524  0.53758640  0.95078040  1  0  0.124824  0  0.983143  0  0  0.130321  0  1.053006  0  0  0.133312  0  1.051495  0  0.119199  0  0.09879  0.128165  0  1.054142  0
H  H41  1  0.35054587  0.96242235  0.45077858  1  0  0.124757  0  0.983245  0  0  0.130251  0  1.05308  0  0  0.13326  0  1.051549  0  0.119303  0  0.098777  0.128094  0  1.054217  0
H  H42  1  0.85054094  0.46241102  0.04922324  1  0  0.124868  0  0.983136  0  0  0.130318  0  1.053035  0  0  0.133339  0  1.051492  0  0.119254  0  0.098799  0.128161  0  1.054172  0
H  H43  1  0.64943619  0.03758228  0.54921656  1  0  0.124651  0  0.983359  0  0  0.130176  0  1.053207  0  0  0.133161  0  1.051709  0  0.119686  0  0.098769  0.128052  0  1.054305  0
H  H44  1  0.43564055  0.34897308  0.14398286  1  0  0.113928  0  0.94954  0  0  0.127025  0  1.003834  0  0  0.130447  0  1.002802  0  0.084217  0  0.106133  0.124555  0  1.004767  0
H  H45  1  0.06436159  0.15103248  0.64397921  1  0  0.113813  0  0.949638  0  0  0.126912  0  1.003928  0  0  0.130333  0  1.002898  0  0.084853  0  0.106107  0.124442  0  1.004862  0
H  H46  1  0.56437193  0.65103947  0.85602079  1  0  0.113964  0  0.949449  0  0  0.126991  0  1.003822  0  0  0.130408  0  1.002799  0  0.085031  0  0.106149  0.124523  0  1.004755  0
H  H47  1  0.93564138  0.84897287  0.35601775  1  0  0.113967  0  0.949534  0  0  0.127074  0  1.003816  0  0  0.130494  0  1.002787  0  0.08429  0  0.106135  0.124603  0  1.004751  0
H  H48  1  0.55890067  0.36432279  0.27823558  1  0  0.070836  0  0.940566  0  0  0.078994  0  1.004686  0  0  0.081415  0  1.002747  0  0.096647  0  0.109786  0.077188  0  1.006194  0
H  H49  1  0.94109609  0.13568637  0.77823072  1  0  0.070881  0  0.940462  0  0  0.079022  0  1.004602  0  0  0.081447  0  1.002656  0  0.096411  0  0.109736  0.077181  0  1.00614  0
H  H50  1  0.44110194  0.63568688  0.72176989  1  0  0.070881  0  0.940459  0  0  0.079018  0  1.004604  0  0  0.081448  0  1.002654  0  0.096499  0  0.109765  0.077175  0  1.006147  0
H  H51  1  0.05891008  0.86432402  0.22176381  1  0  0.070884  0  0.940425  0  0  0.079011  0  1.004573  0  0  0.081448  0  1.002614  0  0.096553  0  0.109774  0.077166  0  1.006118  0
H  H52  1  0.87526111  0.38095957  0.92352580  1  0  0.091907  0  0.995343  0  0  0.094166  0  1.074714  0  0  0.097776  0  1.073684  0  0.089573  0  0.089478  0.091572  0  1.075656  0
H  H53  1  0.62471240  0.11903806  0.42353006  1  0  0.091758  0  0.9954  0  0  0.094095  0  1.074749  0  0  0.097711  0  1.073707  0  0.089788  0  0.089421  0.091498  0  1.075694  0
H  H54  1  0.12474020  0.61903137  0.07648453  1  0  0.091926  0  0.995391  0  0  0.094162  0  1.074793  0  0  0.097776  0  1.073756  0  0.089386  0  0.089451  0.091567  0  1.075737  0
H  H55  1  0.37525383  0.88095720  0.57648392  1  0  0.091884  0  0.995411  0  0  0.09415  0  1.074761  0  0  0.097761  0  1.073728  0  0.089643  0  0.089461  0.091556  0  1.075704  0
H  H56  1  0.47840179  0.13966504  0.89992099  1  0  0.100935  0  0.988173  0  0  0.108767  0  1.056925  0  0  0.111544  0  1.056854  0  0.101207  0  0.096899  0.106711  0  1.057239  0
H  H57  1  0.02158652  0.36032034  0.39990032  1  0  0.10089  0  0.988162  0  0  0.108759  0  1.056889  0  0  0.111538  0  1.056815  0  0.101097  0  0.096903  0.106704  0  1.057203  0
H  H58  1  0.52161912  0.86032085  0.10007780  1  0  0.100948  0  0.988085  0  0  0.1089  0  1.056722  0  0  0.111669  0  1.056644  0  0.101266  0  0.096997  0.106848  0  1.057021  0
H  H59  1  0.97838641  0.63965979  0.60007294  1  0  0.100958  0  0.988038  0  0  0.10874  0  1.056864  0  0  0.11152  0  1.056787  0  0.101023  0  0.096897  0.106683  0  1.057177  0
C  C60  1  0.26162663  0.41641523  0.18379688  1  0  0.077875  0  3.817779  0  0  0.090657  0  4.077472  0  0  0.099649  0  4.095832  0  -0.19386  0  0.000846  0.084384  0  4.065235  0
C  C61  1  0.23837805  0.08358600  0.68379870  1  0  0.077953  0  3.817565  0  0  0.090741  0  4.077227  0  0  0.099732  0  4.095588  0  -0.193717  0  0.000908  0.084485  0  4.064966  0
C  C62  1  0.73839049  0.58359805  0.81620616  1  0  0.077869  0  3.817607  0  0  0.090743  0  4.077167  0  0  0.099734  0  4.095533  0  -0.193841  0  0.000967  0.08452  0  4.064861  0
C  C63  1  0.76161710  0.91641358  0.31619583  1  0  0.077912  0  3.817622  0  0  0.090736  0  4.077216  0  0  0.099729  0  4.095569  0  -0.193645  0  0.000867  0.084444  0  4.065006  0
C  C64  1  0.25752908  0.41839412  0.93319455  1  0  0.051101  0  3.756426  0  0  0.065792  0  3.999701  0  0  0.065484  0  4.023486  0  0.032972  0  -0.032774  0.066013  0  3.983516  0
C  C65  1  0.24248454  0.08159991  0.43319638  1  0  0.051173  0  3.756619  0  0  0.065881  0  3.999976  0  0  0.065566  0  4.023762  0  0.032504  0  -0.032808  0.0661  0  3.983796  0
C  C66  1  0.74248682  0.58159538  0.06680545  1  0  0.051087  0  3.756521  0  0  0.065819  0  3.999887  0  0  0.065508  0  4.023688  0  0.032492  0  -0.032818  0.066042  0  3.983691  0
C  C67  1  0.75750242  0.91839823  0.56679998  1  0  0.05107  0  3.756588  0  0  0.065759  0  4.000135  0  0  0.065441  0  4.023924  0  0.032234  0  -0.03278  0.065981  0  3.983949  0
C  C68  1  0.37415567  0.29137781  0.86677931  1  0  -0.171975  0  3.65755  0  0  -0.208117  0  3.903387  0  0  -0.20777  0  3.914046  0  -0.146838  0  -0.144893  -0.208484  0  3.896551  0
C  C69  1  0.12584058  0.20861622  0.36677992  1  0  -0.171943  0  3.657199  0  0  -0.208022  0  3.90308  0  0  -0.207676  0  3.913735  0  -0.149759  0  -0.144835  -0.208376  0  3.896223  0
C  C70  1  0.62584231  0.70861817  0.13321765  1  0  -0.172139  0  3.657573  0  0  -0.20814  0  3.903273  0  0  -0.207767  0  3.913891  0  -0.149646  0  -0.144834  -0.20849  0  3.896416  0
C  C71  1  0.87416234  0.79138120  0.63321826  1  0  -0.172129  0  3.657273  0  0  -0.208141  0  3.903224  0  0  -0.207824  0  3.91392  0  -0.14907  0  -0.144875  -0.208492  0  3.89637  0
C  C72  1  0.30249098  0.39919978  0.01809032  1  0  -0.181138  0  3.684444  0  0  -0.219454  0  3.934101  0  0  -0.218881  0  3.944034  0  -0.164118  0  -0.148897  -0.219755  0  3.927338  0
C  C73  1  0.19751599  0.10080434  0.51808667  1  0  -0.180898  0  3.683768  0  0  -0.219271  0  3.933516  0  0  -0.218669  0  3.943409  0  -0.163871  0  -0.148724  -0.21958  0  3.926763  0
C  C74  1  0.69752164  0.60080269  0.98191454  1  0  -0.180848  0  3.68393  0  0  -0.219184  0  3.933648  0  0  -0.218593  0  3.943515  0  -0.162912  0  -0.148708  -0.219504  0  3.926938  0
C  C75  1  0.80247710  0.89919813  0.48191090  1  0  -0.180872  0  3.683821  0  0  -0.219221  0  3.933634  0  0  -0.218634  0  3.943543  0  -0.162764  0  -0.148737  -0.219529  0  3.926878  0
C  C76  1  0.24086605  0.39835662  0.79193521  1  0  -0.218226  0  3.677274  0  0  -0.241105  0  3.949849  0  0  -0.242223  0  3.968383  0  -0.266561  0  -0.106163  -0.240148  0  3.937386  0
C  C77  1  0.25911448  0.10163092  0.29193278  1  0  -0.218244  0  3.67735  0  0  -0.241049  0  3.949968  0  0  -0.242154  0  3.968467  0  -0.267112  0  -0.106273  -0.240116  0  3.937481  0
C  C78  1  0.75912838  0.60163864  0.20806722  1  0  -0.218197  0  3.677013  0  0  -0.241007  0  3.949649  0  0  -0.242126  0  3.968181  0  -0.266659  0  -0.106117  -0.240053  0  3.937177  0
C  C79  1  0.74085885  0.89836578  0.70805932  1  0  -0.21828  0  3.677319  0  0  -0.241037  0  3.94999  0  0  -0.242173  0  3.968497  0  -0.266574  0  -0.106143  -0.240077  0  3.937535  0
C  C80  1  0.68905031  0.11001633  0.92711603  1  0  0.119891  0  3.722482  0  0  0.094447  0  3.966306  0  0  0.102329  0  3.981889  0  0.434695  0  0.029214  0.089133  0  3.956457  0
C  C81  1  0.81095243  0.38998635  0.42709779  1  0  0.119821  0  3.722482  0  0  0.094375  0  3.966322  0  0  0.102273  0  3.98192  0  0.434694  0  0.029171  0.089034  0  3.95646  0
C  C82  1  0.31096596  0.88996884  0.07288823  1  0  0.120016  0  3.722231  0  0  0.094563  0  3.966104  0  0  0.102454  0  3.981699  0  0.435968  0  0.02931  0.08925  0  3.956251  0
C  C83  1  0.18904916  0.61001828  0.57289066  1  0  0.119819  0  3.72271  0  0  0.094342  0  3.966526  0  0  0.102238  0  3.98213  0  0.434012  0  0.02926  0.089008  0  3.956663  0
C  C84  1  0.28857250  0.36622313  0.86336413  1  0  0.04796  0  3.771413  0  0  0.062944  0  4.015985  0  0  0.061333  0  4.040913  0  -0.003524  0  -0.033237  0.06402  0  3.999175  0
C  C85  1  0.21142750  0.13376946  0.36336717  1  0  0.047904  0  3.771161  0  0  0.062741  0  4.015951  0  0  0.061128  0  4.040886  0  -0.003391  0  -0.033257  0.063817  0  3.999138  0
C  C86  1  0.71143971  0.63377574  0.13663101  1  0  0.047923  0  3.771108  0  0  0.062734  0  4.015901  0  0  0.061114  0  4.04083  0  -0.003467  0  -0.033351  0.063811  0  3.999083  0
C  C87  1  0.78855373  0.86622796  0.63662979  1  0  0.048081  0  3.770675  0  0  0.062704  0  4.015851  0  0  0.061102  0  4.040792  0  -0.003696  0  -0.033375  0.063782  0  3.999031  0
C  C88  1  0.21020557  0.45672082  0.25246703  1  0  -0.180755  0  3.760344  0  0  -0.197727  0  4.008974  0  0  -0.205858  0  4.028696  0  -0.004013  0  -0.099209  -0.192488  0  3.996019  0
C  C89  1  0.28978988  0.04328690  0.75247128  1  0  -0.18088  0  3.76066  0  0  -0.197867  0  4.009315  0  0  -0.205992  0  4.029028  0  -0.003476  0  -0.099263  -0.192633  0  3.996357  0
C  C90  1  0.78980059  0.54328957  0.74753784  1  0  -0.180791  0  3.760456  0  0  -0.197801  0  4.009085  0  0  -0.205936  0  4.028812  0  -0.003918  0  -0.099227  -0.192579  0  3.996116  0
C  C91  1  0.71020990  0.95671341  0.24752203  1  0  -0.180663  0  3.760472  0  0  -0.197694  0  4.009162  0  0  -0.205814  0  4.02887  0  -0.003838  0  -0.099183  -0.192448  0  3.996212  0
C  C92  1  0.28757794  0.46233320  0.32527563  1  0  0.122352  0  3.716001  0  0  0.095853  0  3.964171  0  0  0.103351  0  3.979744  0  0.453061  0  0.035669  0.0908  0  3.954218  0
C  C93  1  0.21242185  0.03767452  0.82527259  1  0  0.122387  0  3.716277  0  0  0.095921  0  3.964428  0  0  0.103417  0  3.980004  0  0.452786  0  0.035698  0.090861  0  3.954478  0
C  C94  1  0.71243334  0.53767648  0.67472923  1  0  0.122272  0  3.716037  0  0  0.095747  0  3.964222  0  0  0.103242  0  3.979796  0  0.452814  0  0.035728  0.090695  0  3.954275  0
C  C95  1  0.78757644  0.96232218  0.17471586  1  0  0.1223  0  3.716256  0  0  0.095789  0  3.964451  0  0  0.103287  0  3.980024  0  0.453222  0  0.035627  0.090733  0  3.954512  0
C  C96  1  0.89945354  0.23827431  0.94189023  1  0  0.1235  0  3.715547  0  0  0.096113  0  3.963443  0  0  0.10445  0  3.978922  0  0.470732  0  0.028519  0.090489  0  3.953571  0
C  C97  1  0.60055201  0.26173774  0.44188902  1  0  0.123353  0  3.715357  0  0  0.095976  0  3.963318  0  0  0.104305  0  3.978812  0  0.470757  0  0.028408  0.090355  0  3.953439  0
C  C98  1  0.10055077  0.76172384  0.05812314  1  0  0.123642  0  3.715238  0  0  0.096254  0  3.963095  0  0  0.104595  0  3.978576  0  0.470257  0  0.028624  0.090656  0  3.953236  0
C  C99  1  0.39945090  0.73827266  0.55812800  1  0  0.123511  0  3.715285  0  0  0.09613  0  3.963091  0  0  0.104468  0  3.978571  0  0.470402  0  0.028575  0.090534  0  3.953234  0
C  C100  1  0.18647863  0.48778633  0.91144654  1  0  -0.248206  0  3.710497  0  0  -0.268607  0  3.986913  0  0  -0.269955  0  4.004767  0  -0.264834  0  -0.116676  -0.26745  0  3.974651  0
C  C101  1  0.31352419  0.01221563  0.41144472  1  0  -0.2482  0  3.711186  0  0  -0.268566  0  3.987595  0  0  -0.269936  0  4.005444  0  -0.265072  0  -0.116644  -0.267409  0  3.975332  0
C  C102  1  0.81352545  0.51220605  0.08855771  1  0  -0.248263  0  3.710813  0  0  -0.268599  0  3.987224  0  0  -0.269978  0  4.005059  0  -0.265108  0  -0.116651  -0.267442  0  3.974962  0
C  C103  1  0.68645854  0.98778540  0.58854981  1  0  -0.248181  0  3.711017  0  0  -0.268549  0  3.987442  0  0  -0.269896  0  4.005305  0  -0.2653  0  -0.116645  -0.267421  0  3.975159  0
C  C104  1  0.38964682  0.38218610  0.19363703  1  0  -0.171132  0  3.724523  0  0  -0.190425  0  3.974017  0  0  -0.198306  0  3.993705  0  0.004033  0  -0.094759  -0.185519  0  3.961259  0
C  C105  1  0.11035990  0.11782522  0.69363399  1  0  -0.170924  0  3.724379  0  0  -0.190183  0  3.973821  0  0  -0.198063  0  3.993509  0  0.003889  0  -0.094756  -0.185283  0  3.961047  0
C  C106  1  0.61037091  0.61782862  0.80636662  1  0  -0.171116  0  3.724292  0  0  -0.190366  0  3.973778  0  0  -0.198245  0  3.993467  0  0.004062  0  -0.094865  -0.185476  0  3.960995  0
C  C107  1  0.88964072  0.88218229  0.30636054  1  0  -0.171283  0  3.724328  0  0  -0.19058  0  3.973812  0  0  -0.198464  0  3.993504  0  0.004115  0  -0.094809  -0.185665  0  3.961047  0
C  C108  1  0.66307215  0.27068020  0.90834924  1  0  0.084276  0  3.809467  0  0  0.1004  0  4.058728  0  0  0.109961  0  4.076922  0  -0.254414  0  -0.000275  0.093839  0  4.046454  0
C  C109  1  0.83692492  0.22931671  0.40833951  1  0  0.0844  0  3.809491  0  0  0.100542  0  4.058729  0  0  0.110108  0  4.07692  0  -0.254286  0  -0.000196  0.09398  0  4.046454  0
C  C110  1  0.33692772  0.72930209  0.09165441  1  0  0.084411  0  3.809563  0  0  0.100627  0  4.058684  0  0  0.110182  0  4.07689  0  -0.254603  0  -0.00019  0.094069  0  4.046403  0
C  C111  1  0.16305769  0.77068144  0.59165198  1  0  0.084237  0  3.809506  0  0  0.100363  0  4.058757  0  0  0.109924  0  4.076953  0  -0.254958  0  -0.000268  0.093801  0  4.046483  0
C  C112  1  0.45923332  0.39039784  0.26934845  1  0  0.132662  0  3.702456  0  0  0.103708  0  3.957347  0  0  0.111528  0  3.973506  0  0.493406  0  0.039194  0.098576  0  3.946761  0
C  C113  1  0.04076352  0.10961061  0.76934602  1  0  0.132429  0  3.702643  0  0  0.103464  0  3.957539  0  0  0.111284  0  3.973698  0  0.492691  0  0.039169  0.098362  0  3.946963  0
C  C114  1  0.54076749  0.60960752  0.73065642  1  0  0.132482  0  3.70253  0  0  0.103547  0  3.957404  0  0  0.111361  0  3.973559  0  0.492479  0  0.039181  0.098449  0  3.946833  0
C  C115  1  0.95923788  0.89039619  0.23064973  1  0  0.132701  0  3.702258  0  0  0.103773  0  3.957141  0  0  0.111581  0  3.973301  0  0.492808  0  0.039306  0.098677  0  3.946565  0
C  C116  1  0.81837902  0.30411158  0.92493223  1  0  -0.180706  0  3.75242  0  0  -0.19439  0  3.994737  0  0  -0.20311  0  4.014432  0  -0.009628  0  -0.10308  -0.188878  0  3.981937  0
C  C117  1  0.68161009  0.19588965  0.42492980  1  0  -0.180404  0  3.752074  0  0  -0.194184  0  3.994371  0  0  -0.202908  0  4.014068  0  -0.009746  0  -0.102959  -0.188669  0  3.981566  0
C  C118  1  0.18161596  0.69587720  0.07507810  1  0  -0.180796  0  3.752341  0  0  -0.194521  0  3.994678  0  0  -0.203244  0  4.014374  0  -0.009358  0  -0.103148  -0.189009  0  3.981868  0
C  C119  1  0.31837137  0.80411353  0.57507324  1  0  -0.180742  0  3.752054  0  0  -0.19448  0  3.994447  0  0  -0.203202  0  4.014141  0  -0.009166  0  -0.103152  -0.188966  0  3.981639  0
C  C120  1  0.59802152  0.17066209  0.91059503  1  0  -0.1783  0  3.74932  0  0  -0.194909  0  3.991215  0  0  -0.203375  0  4.01187  0  0.030127  0  -0.101701  -0.189599  0  3.977808  0
C  C121  1  0.90197248  0.32933266  0.41057983  1  0  -0.178489  0  3.749343  0  0  -0.195147  0  3.991265  0  0  -0.203614  0  4.011909  0  0.030409  0  -0.101797  -0.189838  0  3.977868  0
C  C122  1  0.40198950  0.82932092  0.08940740  1  0  -0.178537  0  3.749398  0  0  -0.195287  0  3.991257  0  0  -0.203734  0  4.011894  0  0.030109  0  -0.101879  -0.189975  0  3.977854  0
C  C123  1  0.09801514  0.67066188  0.58940862  1  0  -0.178244  0  3.749326  0  0  -0.194813  0  3.991232  0  0  -0.203276  0  4.011883  0  0.030455  0  -0.10171  -0.189502  0  3.977828  0
S  S124  1  0.16419861  0.41426267  0.09238801  1  0  0.006376  0  2.41805  0  0  0.012594  0  2.751492  0  0  0.005048  0  2.75374  0  0.083006  0  0.019922  0.018128  0  2.749839  0
S  S125  1  0.33581692  0.08573857  0.59239045  1  0  0.006247  0  2.417679  0  0  0.012481  0  2.751129  0  0  0.004931  0  2.753355  0  0.082731  0  0.01989  0.018007  0  2.749477  0
S  S126  1  0.83582750  0.58575133  0.90761259  1  0  0.006269  0  2.417834  0  0  0.012465  0  2.75127  0  0  0.004923  0  2.753493  0  0.082574  0  0.019826  0.017982  0  2.749607  0
S  S127  1  0.66417414  0.91425381  0.40760165  1  0  0.006308  0  2.417622  0  0  0.012534  0  2.751073  0  0  0.004982  0  2.753303  0  0.0826  0  0.019862  0.018072  0  2.749432  0
S  S128  1  0.56956345  0.35770584  0.88570170  1  0  0.019336  0  2.451169  0  0  0.026028  0  2.779011  0  0  0.019299  0  2.782897  0  0.104278  0  0.028622  0.030912  0  2.77637  0
S  S129  1  0.93042753  0.14229467  0.38569987  1  0  0.019215  0  2.451475  0  0  0.025898  0  2.779311  0  0  0.019168  0  2.783195  0  0.104669  0  0.028531  0.030777  0  2.776664  0
S  S130  1  0.43045383  0.64228438  0.11429770  1  0  0.019319  0  2.451344  0  0  0.025938  0  2.779134  0  0  0.0192  0  2.783015  0  0.104642  0  0.028577  0.030813  0  2.776484  0
S  S131  1  0.06954135  0.85769915  0.61429223  1  0  0.019382  0  2.451742  0  0  0.026075  0  2.779573  0  0  0.019356  0  2.783473  0  0.104632  0  0.028603  0.030951  0  2.776927  0
S  S132  1  0.15811662  0.48990214  0.80849146  1  0  0.164792  0  2.702261  0  0  0.178744  0  3.030529  0  0  0.175112  0  3.037985  0  0.216195  0  0.080078  0.181075  0  3.025442  0
S  S133  1  0.34186505  0.01009333  0.30849572  1  0  0.164822  0  2.702662  0  0  0.178761  0  3.030922  0  0  0.175128  0  3.038384  0  0.216839  0  0.080086  0.181091  0  3.025839  0
S  S134  1  0.84187047  0.51008592  0.19150854  1  0  0.16474  0  2.702244  0  0  0.17869  0  3.030477  0  0  0.175057  0  3.037941  0  0.216248  0  0.080036  0.181022  0  3.025393  0
S  S135  1  0.65810099  0.98990409  0.69150246  1  0  0.164839  0  2.702529  0  0  0.178795  0  3.030766  0  0  0.175167  0  3.038221  0  0.216409  0  0.080062  0.181124  0  3.025687  0
I  I136  1  0.80528778  0.87704050  0.94820154  1  0  -0.496287  0  1.375407  0  0  -0.452152  0  1.764982  0  0  -0.467139  0  1.729478  0  -0.509067  0  -0.243752  -0.440577  0  1.787365  0
I  I137  1  0.69473368  0.62296536  0.44821309  1  0  -0.49632  0  1.375396  0  0  -0.452174  0  1.764958  0  0  -0.467142  0  1.729439  0  -0.509148  0  -0.243749  -0.440584  0  1.787345  0
I  I138  1  0.19474582  0.12295764  0.05178752  1  0  -0.496277  0  1.375329  0  0  -0.452142  0  1.764868  0  0  -0.467123  0  1.729357  0  -0.509139  0  -0.243739  -0.440565  0  1.787264  0
I  I139  1  0.30527008  0.37703927  0.55178508  1  0  -0.49627  0  1.375378  0  0  -0.452135  0  1.764931  0  0  -0.467102  0  1.729415  0  -0.509106  0  -0.243735  -0.440547  0  1.787318  0
N  N140  1  0.83807496  0.14176716  0.94223060  1  0  -0.286188  0  3.360521  0  0  -0.21565  0  3.648888  0  0  -0.227134  0  3.655666  0  -1.19352  0  -0.372279  -0.208984  0  3.644575  0
N  N141  1  0.66192812  0.35824416  0.44222209  1  0  -0.286017  0  3.360402  0  0  -0.215539  0  3.64886  0  0  -0.227021  0  3.655634  0  -1.193955  0  -0.372211  -0.208875  0  3.644555  0
N  N142  1  0.16193526  0.85822954  0.05778399  1  0  -0.286204  0  3.360482  0  0  -0.21572  0  3.64893  0  0  -0.227217  0  3.655728  0  -1.194815  0  -0.372269  -0.209042  0  3.644589  0
N  N143  1  0.33807774  0.64176551  0.55778278  1  0  -0.286211  0  3.360645  0  0  -0.215676  0  3.649011  0  0  -0.227163  0  3.655795  0  -1.193514  0  -0.372289  -0.208993  0  3.644668  0
N  N144  1  0.41132417  0.42991216  0.33488543  1  0  -0.275558  0  3.346992  0  0  -0.20604  0  3.6357  0  0  -0.218042  0  3.644638  0  -1.217458  0  -0.362795  -0.198993  0  3.629949  0
N  N145  1  0.08868038  0.07009916  0.83488482  1  0  -0.275504  0  3.34742  0  0  -0.20595  0  3.636073  0  0  -0.217955  0  3.645015  0  -1.216993  0  -0.362762  -0.198884  0  3.630291  0
N  N146  1  0.58868236  0.57009391  0.66511943  1  0  -0.275425  0  3.347279  0  0  -0.20588  0  3.635948  0  0  -0.217893  0  3.644914  0  -1.217046  0  -0.36277  -0.198829  0  3.63017  0
N  N147  1  0.91132663  0.92990547  0.16510849  1  0  -0.275647  0  3.347277  0  0  -0.206134  0  3.636004  0  0  -0.218151  0  3.644969  0  -1.216926  0  -0.362932  -0.19909  0  3.630244  0
