# generated using pymatgen
data_CuH8C10N2Cl
_symmetry_space_group_name_H-M   'P 1'
_cell_length_a   6.52254311
_cell_length_b   9.14032487
_cell_length_c   16.42733218
_cell_angle_alpha   89.99761462
_cell_angle_beta   90.00151204
_cell_angle_gamma   110.16367583
_symmetry_Int_Tables_number   1
_chemical_formula_structural   CuH8C10N2Cl
_chemical_formula_sum   'Cu4 H32 C40 N8 Cl4'
_cell_volume   919.34365041
_cell_formula_units_Z   4
loop_
 _symmetry_equiv_pos_site_id
 _symmetry_equiv_pos_as_xyz
  1  'x, y, z'
loop_
 _atom_site_type_symbol
 _atom_site_label
 _atom_site_symmetry_multiplicity
 _atom_site_fract_x
 _atom_site_fract_y
 _atom_site_fract_z
 _atom_site_occupancy
 _atom_site_pbe_bader_spin_density
 _atom_site_pbe_cm5_charge
 _atom_site_pbe_ddec_charge
 _atom_site_pbe_ddec_spin_density
 _atom_site_pbe_ddec_sum_bond_order
 _atom_site_pbe_magmom
Cu  Cu0  1  0.26420700  0.35155695  0.17816130  1  0  0.454572  0.354222  0  2.465676  0
Cu  Cu1  1  0.23580914  0.64845473  0.67816901  1  0  0.454536  0.354076  0  2.465651  0
Cu  Cu2  1  0.73581514  0.64844383  0.82183716  1  0  0.45459  0.354237  0  2.465664  0
Cu  Cu3  1  0.76418979  0.35155193  0.32183371  1  0  0.454543  0.354132  0  2.465543  0
H  H4  1  0.69516756  0.59489514  0.19184197  1  0  0.104923  0.087677  0  1.040172  0
H  H5  1  0.80486128  0.40512725  0.69185668  1  0  0.104923  0.087643  0  1.040214  0
H  H6  1  0.30485277  0.40508932  0.80815223  1  0  0.104885  0.08763  0  1.040148  0
H  H7  1  0.19513935  0.59488291  0.30815091  1  0  0.104857  0.08759  0  1.04021  0
H  H8  1  0.71921422  0.92258883  0.99915083  1  0  0.102191  0.103103  0  1.02391  0
H  H9  1  0.78076654  0.07745216  0.49916557  1  0  0.102296  0.103254  0  1.023839  0
H  H10  1  0.28078676  0.07739683  0.00084520  1  0  0.102155  0.103113  0  1.023871  0
H  H11  1  0.21922654  0.92257084  0.50083349  1  0  0.102216  0.10317  0  1.023979  0
H  H12  1  0.35306593  0.73696704  0.95196637  1  0  0.097249  0.11102  0  1.032156  0
H  H13  1  0.14691626  0.26304105  0.45197204  1  0  0.09724  0.110935  0  1.032189  0
H  H14  1  0.64693897  0.26300461  0.04803209  1  0  0.097281  0.111075  0  1.032242  0
H  H15  1  0.85307132  0.73697379  0.54802764  1  0  0.097247  0.110951  0  1.032114  0
H  H16  1  0.17426674  0.49528992  0.03199563  1  0  0.10984  0.083087  0  1.00337  0
H  H17  1  0.32573442  0.50471052  0.53200115  1  0  0.109842  0.083101  0  1.003318  0
H  H18  1  0.82574968  0.50467705  0.96800587  1  0  0.109861  0.083087  0  1.003278  0
H  H19  1  0.67426156  0.49530897  0.46799548  1  0  0.109782  0.083039  0  1.003317  0
H  H20  1  0.89340582  0.08952697  0.11640416  1  0  0.106629  0.085988  0  1.023578  0
H  H21  1  0.60658579  0.91049343  0.61641058  1  0  0.10664  0.086013  0  1.023598  0
H  H22  1  0.10662119  0.91049014  0.88359065  1  0  0.106628  0.085953  0  1.023482  0
H  H23  1  0.39340724  0.08950741  0.38359274  1  0  0.106644  0.086051  0  1.023638  0
H  H24  1  0.07344118  0.68074261  0.15301252  1  0  0.09619  0.108117  0  1.04974  0
H  H25  1  0.42655332  0.31926415  0.65302782  1  0  0.09617  0.108141  0  1.049729  0
H  H26  1  0.92656581  0.31926170  0.84697254  1  0  0.096168  0.108136  0  1.049658  0
H  H27  1  0.57342865  0.68072971  0.34696759  1  0  0.096151  0.108116  0  1.049686  0
H  H28  1  0.44422886  0.86198499  0.19583607  1  0  0.101587  0.108108  0  1.025856  0
H  H29  1  0.05576199  0.13801446  0.69584143  1  0  0.101629  0.108108  0  1.026067  0
H  H30  1  0.55576951  0.13802050  0.80416360  1  0  0.101584  0.108114  0  1.025897  0
H  H31  1  0.94422344  0.86197706  0.30415521  1  0  0.101594  0.108089  0  1.026089  0
H  H32  1  0.51851891  0.14944395  0.19717350  1  0  0.098163  0.073706  0  1.07469  0
H  H33  1  0.98148370  0.85056197  0.69717934  1  0  0.098162  0.073651  0  1.074741  0
H  H34  1  0.48147752  0.85056388  0.80282922  1  0  0.098222  0.07373  0  1.074673  0
H  H35  1  0.01850859  0.14943420  0.30282216  1  0  0.09818  0.073681  0  1.074678  0
C  C36  1  0.62566923  0.63286583  0.13896731  1  0  0.038213  0.03479  0  3.892365  0
C  C37  1  0.87434330  0.36714558  0.63897771  1  0  0.038145  0.034708  0  3.892603  0
C  C38  1  0.37434564  0.36713263  0.86103541  1  0  0.038306  0.034991  0  3.892151  0
C  C39  1  0.12566539  0.63286223  0.36102927  1  0  0.038261  0.034949  0  3.89252  0
C  C40  1  0.73852473  0.77247718  0.09857884  1  0  -0.007399  0.026069  0  4.010056  0
C  C41  1  0.76147657  0.22753915  0.59859652  1  0  -0.007531  0.025888  0  4.009955  0
C  C42  1  0.26147942  0.22752130  0.90142266  1  0  -0.007443  0.025885  0  4.010076  0
C  C43  1  0.23852162  0.77246284  0.40140924  1  0  -0.007476  0.025837  0  4.010033  0
C  C44  1  0.63704373  0.81428646  0.03162367  1  0  -0.077156  -0.097144  0  3.949608  0
C  C45  1  0.86295549  0.18573336  0.53163829  1  0  -0.077134  -0.097174  0  3.949286  0
C  C46  1  0.36295283  0.18570270  0.96837540  1  0  -0.077104  -0.097087  0  3.949395  0
C  C47  1  0.13703879  0.81428264  0.46836869  1  0  -0.077031  -0.097052  0  3.949282  0
C  C48  1  0.43395894  0.71348556  0.00597813  1  0  -0.087774  -0.117668  0  3.998152  0
C  C49  1  0.06604269  0.28652394  0.50598464  1  0  -0.087774  -0.117551  0  3.998089  0
C  C50  1  0.56605510  0.28649541  0.99402581  1  0  -0.087809  -0.117845  0  3.998122  0
C  C51  1  0.93395068  0.71348389  0.49401686  1  0  -0.0878  -0.117639  0  3.99836  0
C  C52  1  0.33378592  0.57716026  0.04948218  1  0  0.034099  0.078448  0  3.933027  0
C  C53  1  0.16621093  0.42283958  0.54949106  1  0  0.034104  0.078353  0  3.933114  0
C  C54  1  0.66622125  0.42281605  0.95051628  1  0  0.034079  0.078544  0  3.933018  0
C  C55  1  0.83378850  0.57717758  0.45050983  1  0  0.034114  0.078487  0  3.93324  0
C  C56  1  0.01163899  0.03337968  0.13136351  1  0  0.034475  0.017617  0  3.927263  0
C  C57  1  0.48835315  0.96663949  0.63136852  1  0  0.034434  0.017484  0  3.927675  0
C  C58  1  0.98836913  0.96662696  0.86862886  1  0  0.034556  0.017837  0  3.927239  0
C  C59  1  0.51164141  0.03336134  0.36863785  1  0  0.034418  0.01734  0  3.927601  0
C  C60  1  0.95651266  0.87142268  0.12715318  1  0  -0.00819  0.025287  0  4.0209  0
C  C61  1  0.54346484  0.12858687  0.62715927  1  0  -0.008085  0.025483  0  4.020715  0
C  C62  1  0.04348247  0.12857931  0.87284771  1  0  -0.00815  0.025335  0  4.020651  0
C  C63  1  0.45651787  0.87141165  0.37284223  1  0  -0.008115  0.025497  0  4.020838  0
C  C64  1  0.11226960  0.80687491  0.15299849  1  0  -0.077721  -0.098065  0  3.928729  0
C  C65  1  0.38772461  0.19314702  0.65300959  1  0  -0.077812  -0.098156  0  3.92824  0
C  C66  1  0.88772547  0.19313642  0.84699267  1  0  -0.077787  -0.098132  0  3.928273  0
C  C67  1  0.61225730  0.80685617  0.34699191  1  0  -0.077726  -0.098085  0  3.928371  0
C  C68  1  0.31695932  0.90709195  0.17753492  1  0  -0.089971  -0.115961  0  3.987727  0
C  C69  1  0.18302856  0.09290581  0.67754808  1  0  -0.090071  -0.116142  0  3.988014  0
C  C70  1  0.68304024  0.09290654  0.82245502  1  0  -0.089979  -0.116052  0  3.988282  0
C  C71  1  0.81696244  0.90708453  0.32245647  1  0  -0.090061  -0.116155  0  3.988108  0
C  C72  1  0.36004005  0.06701411  0.17866489  1  0  0.030378  0.075079  0  3.91166  0
C  C73  1  0.13994262  0.93299178  0.67866680  1  0  0.030353  0.075216  0  3.911715  0
C  C74  1  0.63995938  0.93300305  0.82133601  1  0  0.030169  0.074965  0  3.911817  0
C  C75  1  0.86003901  0.06699508  0.32133531  1  0  0.03032  0.075126  0  3.911839  0
N  N76  1  0.42531256  0.53786798  0.11624183  1  0  -0.371189  -0.210236  0  3.715576  0
N  N77  1  0.07469471  0.46214236  0.61624610  1  0  -0.371037  -0.209956  0  3.715435  0
N  N78  1  0.57470674  0.46212698  0.88375846  1  0  -0.371189  -0.210254  0  3.715542  0
N  N79  1  0.92530036  0.53786897  0.38375175  1  0  -0.371138  -0.210195  0  3.715492  0
N  N80  1  0.20726110  0.12989682  0.15793679  1  0  -0.373019  -0.211055  0  3.718532  0
N  N81  1  0.29273501  0.87010976  0.65794143  1  0  -0.372946  -0.210956  0  3.718239  0
N  N82  1  0.79275071  0.87010164  0.84206106  1  0  -0.372909  -0.211065  0  3.718138  0
N  N83  1  0.70726188  0.12988640  0.34206494  1  0  -0.372895  -0.210803  0  3.718049  0
Cl  Cl84  1  0.90667691  0.37575892  0.18474399  1  0  -0.316084  -0.522151  0  1.526104  0
Cl  Cl85  1  0.59333504  0.62422292  0.68474724  1  0  -0.316094  -0.522136  0  1.526073  0
Cl  Cl86  1  0.09334029  0.62423488  0.81526117  1  0  -0.316096  -0.522173  0  1.526234  0
Cl  Cl87  1  0.40666775  0.37577907  0.31525243  1  0  -0.316099  -0.522172  0  1.526175  0
