# generated using pymatgen
data_VH12C12SO5
_symmetry_space_group_name_H-M   'P 1'
_cell_length_a   6.71298365
_cell_length_b   13.16263052
_cell_length_c   16.63535522
_cell_angle_alpha   90.00033094
_cell_angle_beta   90.00008107
_cell_angle_gamma   90.00120544
_symmetry_Int_Tables_number   1
_chemical_formula_structural   VH12C12SO5
_chemical_formula_sum   'V4 H48 C48 S4 O20'
_cell_volume   1469.90869599
_cell_formula_units_Z   4
loop_
 _symmetry_equiv_pos_site_id
 _symmetry_equiv_pos_as_xyz
  1  'x, y, z'
loop_
 _atom_site_type_symbol
 _atom_site_label
 _atom_site_symmetry_multiplicity
 _atom_site_fract_x
 _atom_site_fract_y
 _atom_site_fract_z
 _atom_site_occupancy
 _atom_site_pbe_bader_charge
 _atom_site_pbe_bader_spin_density
 _atom_site_pbe_cm5_charge
 _atom_site_pbe_ddec_charge
 _atom_site_pbe_ddec_spin_density
 _atom_site_pbe_ddec_sum_bond_order
 _atom_site_pbe_magmom
V  V0  1  0.08290299  0.23013428  0.99941655  1  2.091633  0.785042  1.419933  1.824104  0.829388  3.012499  0.797
V  V1  1  0.41708847  0.76988118  0.49940753  1  2.091616  -0.785162  1.419851  1.824276  -0.829473  3.012095  -0.797
V  V2  1  0.91709628  0.73012041  0.50058037  1  2.09162  0.785174  1.419812  1.824044  0.829514  3.012273  0.797
V  V3  1  0.58291206  0.26988445  0.00057907  1  2.091872  -0.785102  1.41987  1.824033  -0.82944  3.012398  -0.797
H  H4  1  0.52748087  0.59721799  0.30171556  1  0.108918  -6.7e-05  0.111262  0.11617  4.3e-05  0.998563  0.0
H  H5  1  0.97252119  0.40277687  0.80171175  1  0.108905  6.7e-05  0.111266  0.11622  -4.3e-05  0.998443  0.0
H  H6  1  0.47248688  0.09722533  0.19829548  1  0.108669  -6.8e-05  0.111229  0.116208  4.3e-05  0.998587  0.0
H  H7  1  0.02749149  0.90277203  0.69829138  1  0.108729  6.7e-05  0.111249  0.116178  -4.3e-05  0.998547  0.0
H  H8  1  0.56632531  0.48426389  0.18270612  1  0.09176  6.5e-05  0.107168  0.111002  0.000162  1.016356  0.0
H  H9  1  0.93366586  0.51572479  0.68269802  1  0.091484  -6.5e-05  0.107144  0.110964  -0.000162  1.01634  0.0
H  H10  1  0.43365765  0.98427621  0.31730072  1  0.091462  6.5e-05  0.107144  0.111011  0.000162  1.016288  0.0
H  H11  1  0.06633309  0.01570528  0.81730692  1  0.091461  -6.5e-05  0.107148  0.111038  -0.000162  1.016237  0.0
H  H12  1  0.93882750  0.47733159  0.34288493  1  0.101556  -5.8e-05  0.110221  0.11635  -0.000133  1.002511  0.0
H  H13  1  0.56116727  0.52268255  0.84287606  1  0.101698  5.8e-05  0.110287  0.116415  0.000133  1.002487  0.0
H  H14  1  0.06112538  0.97733211  0.15710745  1  0.101865  -5.8e-05  0.110243  0.116426  -0.000133  1.0025  0.0
H  H15  1  0.43886326  0.02268015  0.65711628  1  0.101872  5.8e-05  0.110254  0.116444  0.000133  1.002504  0.0
H  H16  1  0.97800708  0.36344227  0.22322206  1  0.109009  3e-05  0.113802  0.122939  -7.1e-05  0.975553  0.0
H  H17  1  0.52197679  0.63655658  0.72320890  1  0.108919  -3e-05  0.113787  0.122902  7.1e-05  0.975509  0.0
H  H18  1  0.02195279  0.86345161  0.27676558  1  0.108403  3e-05  0.113819  0.123044  -7.1e-05  0.975542  0.0
H  H19  1  0.47806461  0.13655771  0.77676955  1  0.108222  -3e-05  0.113828  0.123073  7.1e-05  0.975572  0.0
H  H20  1  0.57433570  0.34796003  0.44064920  1  0.04038  1e-06  0.082938  0.07951  5e-06  1.010819  0.0
H  H21  1  0.92566988  0.65203201  0.94064113  1  0.040295  -1e-06  0.082879  0.079561  -5e-06  1.010726  0.0
H  H22  1  0.42565330  0.84794992  0.05935520  1  0.040241  1e-06  0.082865  0.079488  5e-06  1.010706  0.0
H  H23  1  0.07434091  0.15205861  0.55935002  1  0.040153  -1e-06  0.082886  0.07946  -5e-06  1.010854  0.0
H  H24  1  0.65677125  0.47627292  0.43208583  1  0.057284  -2.4e-05  0.092052  0.09625  -3.9e-05  0.995366  0.0
H  H25  1  0.84323728  0.52371678  0.93208373  1  0.057112  2.4e-05  0.092118  0.096331  3.9e-05  0.99549  0.0
H  H26  1  0.34325159  0.97626658  0.06793600  1  0.056793  -2.4e-05  0.092165  0.096362  -3.9e-05  0.995615  0.0
H  H27  1  0.15674116  0.02373820  0.56793266  1  0.056982  2.4e-05  0.092168  0.096415  3.9e-05  0.995348  0.0
H  H28  1  0.91098875  0.45272079  0.53492825  1  0.066134  -5e-05  0.087052  0.093992  -7.4e-05  1.00569  0.0
H  H29  1  0.58904355  0.54726229  0.03492524  1  0.066852  5e-05  0.087059  0.094035  7.4e-05  1.005644  0.0
H  H30  1  0.08902161  0.95273595  0.96508474  1  0.066684  -5e-05  0.087056  0.093993  -7.4e-05  1.00559  0.0
H  H31  1  0.41097566  0.04726483  0.46508917  1  0.066701  5e-05  0.087063  0.094011  7.4e-05  1.005696  0.0
H  H32  1  0.92741699  0.33712296  0.47981885  1  0.050486  -4e-06  0.08752  0.089348  0.0  1.0356  0.0
H  H33  1  0.57257533  0.66285949  0.97982147  1  0.05054  4e-06  0.087478  0.089274  -0.0  1.035758  0.0
H  H34  1  0.07255962  0.83713782  0.02019211  1  0.050306  -4e-06  0.087503  0.089383  0.0  1.035584  0.0
H  H35  1  0.42743444  0.16286890  0.52019016  1  0.050322  4e-06  0.087524  0.089409  -0.0  1.035494  0.0
H  H36  1  0.53682720  0.51635520  0.56703763  1  0.041141  -4.6e-05  0.091511  0.101074  -3.9e-05  0.9946  0.0
H  H37  1  0.96318437  0.48363798  0.06703211  1  0.041141  4.6e-05  0.091452  0.101042  3.9e-05  0.994467  0.0
H  H38  1  0.46320455  0.01636033  0.93298113  1  0.041314  -4.6e-05  0.091436  0.101009  -3.9e-05  0.994574  0.0
H  H39  1  0.03680452  0.98364098  0.43297894  1  0.041402  4.6e-05  0.091439  0.101049  3.9e-05  0.994523  0.0
H  H40  1  0.33621598  0.45290164  0.51883407  1  0.057255  1.7e-05  0.089788  0.089754  4.3e-05  0.986151  0.0
H  H41  1  0.16379893  0.54709368  0.01883110  1  0.057064  -1.7e-05  0.089721  0.089672  -4.3e-05  0.986109  0.0
H  H42  1  0.66380035  0.95289013  0.98118132  1  0.057054  1.7e-05  0.0897  0.089654  4.3e-05  0.98593  0.0
H  H43  1  0.83619794  0.04711132  0.48117069  1  0.057084  -1.7e-05  0.089703  0.089684  -4.3e-05  0.985999  0.0
H  H44  1  0.39483797  0.29752748  0.59130828  1  0.01861  -1.4e-05  0.086271  0.092145  -1.2e-05  1.008627  0.0
H  H45  1  0.10516977  0.70246987  0.09131442  1  0.018625  1.4e-05  0.086261  0.092179  1.2e-05  1.008428  0.0
H  H46  1  0.60513441  0.79752245  0.90869918  1  0.01867  -1.4e-05  0.086323  0.092173  -1.2e-05  1.008516  0.0
H  H47  1  0.89486359  0.20247392  0.40868148  1  0.018786  1.4e-05  0.086218  0.092061  1.2e-05  1.008581  0.0
H  H48  1  0.45968756  0.38903183  0.66561952  1  0.065927  1.8e-05  0.084767  0.089973  1.4e-05  1.030191  0.0
H  H49  1  0.04032494  0.61095086  0.16561858  1  0.066147  -1.8e-05  0.084731  0.089872  -1.4e-05  1.03018  0.0
H  H50  1  0.54030069  0.88903168  0.83438957  1  0.065825  1.8e-05  0.084725  0.089917  1.4e-05  1.030102  0.0
H  H51  1  0.95971788  0.11095049  0.33438290  1  0.065733  -1.8e-05  0.084727  0.089912  -1.4e-05  1.030347  0.0
C  C52  1  0.20995943  0.61423534  0.39814928  1  1.512364  -0.000294  0.235306  0.622641  -0.000384  4.115328  -0.001
C  C53  1  0.29004355  0.38577408  0.89814591  1  1.512655  0.000296  0.235235  0.622647  0.000386  4.115076  0.001
C  C54  1  0.79002395  0.11424829  0.10184681  1  1.512235  -0.000299  0.235335  0.622423  -0.000387  4.114788  -0.001
C  C55  1  0.70996541  0.88576793  0.60183671  1  1.512184  0.0003  0.235234  0.622425  0.000387  4.114886  0.001
C  C56  1  0.23167687  0.54331017  0.32952961  1  -0.006664  -0.000319  -0.0076  -0.02783  -0.000264  3.955911  0.0
C  C57  1  0.26832584  0.45668964  0.82952595  1  -0.006535  0.000326  -0.007604  -0.028161  0.00027  3.95642  0.0
C  C58  1  0.76828408  0.04331807  0.17046134  1  -0.006887  -0.000327  -0.00761  -0.027808  -0.000271  3.955804  0.0
C  C59  1  0.73171895  0.95669332  0.67045399  1  -0.0075  0.000328  -0.007505  -0.027573  0.000272  3.955467  0.0
C  C60  1  0.40926848  0.54470654  0.28495291  1  -0.0325  -6.7e-05  -0.074203  -0.088966  -8.1e-05  3.962033  0.0
C  C61  1  0.09072511  0.45529144  0.78494555  1  -0.032319  6.3e-05  -0.074208  -0.088973  7.9e-05  3.962119  0.0
C  C62  1  0.59069551  0.04471674  0.21505007  1  -0.032355  -6.5e-05  -0.074253  -0.089153  -8e-05  3.962354  0.0
C  C63  1  0.90929578  0.95528662  0.71504641  1  -0.031843  6.4e-05  -0.07425  -0.089083  7.9e-05  3.962292  0.0
C  C64  1  0.43093396  0.48156250  0.21872755  1  -0.005631  -0.000688  -0.076456  -0.089746  -0.000641  3.960446  -0.001
C  C65  1  0.06905193  0.51843044  0.71871867  1  -0.005837  0.000695  -0.076433  -0.08963  0.000646  3.960532  0.001
C  C66  1  0.56904740  0.98158506  0.28127506  1  -0.005701  -0.000696  -0.076408  -0.089717  -0.000648  3.960277  -0.001
C  C67  1  0.93094862  0.01840889  0.78127846  1  -0.006149  0.000697  -0.076527  -0.089829  0.000649  3.960499  0.001
C  C68  1  0.07573134  0.47774641  0.30774028  1  -0.051697  0.000646  -0.07546  -0.090894  0.000612  3.955039  0.0
C  C69  1  0.42426980  0.52225552  0.80773280  1  -0.051896  -0.000648  -0.075456  -0.09085  -0.000614  3.955161  0.0
C  C70  1  0.92421708  0.97775222  0.19224488  1  -0.051451  0.000649  -0.075366  -0.090814  0.000614  3.954652  0.0
C  C71  1  0.57577561  0.02226236  0.69224751  1  -0.051424  -0.00065  -0.075511  -0.091156  -0.000615  3.954773  0.0
C  C72  1  0.09738341  0.41452868  0.24151973  1  -0.033327  8.4e-05  -0.073752  -0.082889  9.6e-05  3.94903  0.0
C  C73  1  0.40260704  0.58546822  0.74150953  1  -0.033207  -7.8e-05  -0.073796  -0.082775  -9.1e-05  3.948942  0.0
C  C74  1  0.90257122  0.91453702  0.25847836  1  -0.032476  7.6e-05  -0.073914  -0.083261  8.9e-05  3.94945  0.0
C  C75  1  0.59742471  0.08547120  0.75848190  1  -0.032178  -7.5e-05  -0.073928  -0.083156  -8.8e-05  3.94922  0.0
C  C76  1  0.27462199  0.41667794  0.19660580  1  -0.018862  0.000321  -0.007232  -0.029845  0.00025  3.958411  0.0
C  C77  1  0.22536530  0.58331637  0.69659731  1  -0.019069  -0.000325  -0.007136  -0.029841  -0.000253  3.958585  0.0
C  C78  1  0.72537891  0.91669162  0.30339831  1  -0.018868  0.000325  -0.007219  -0.029746  0.000252  3.958455  0.0
C  C79  1  0.77463805  0.08330325  0.80340554  1  -0.019082  -0.000325  -0.007108  -0.029745  -0.000253  3.958465  0.0
C  C80  1  0.29273463  0.35335152  0.12343199  1  1.521049  -0.000568  0.236871  0.626723  -0.000482  4.113409  0.0
C  C81  1  0.20726579  0.64664986  0.62342498  1  1.521446  0.000587  0.236868  0.626719  0.0005  4.113431  0.0
C  C82  1  0.70727694  0.85334655  0.37656402  1  1.52124  -0.000594  0.236953  0.626867  -0.000511  4.112874  0.0
C  C83  1  0.79273285  0.14664656  0.87657215  1  1.521075  0.000597  0.236925  0.626842  0.000509  4.113281  0.0
C  C84  1  0.63387851  0.41320046  0.47446470  1  -0.024569  -3.7e-05  -0.168063  -0.143229  -5.7e-05  3.94528  0.0
C  C85  1  0.86613167  0.58679335  0.97446110  1  -0.024004  3.7e-05  -0.168135  -0.143484  5.7e-05  3.945386  0.0
C  C86  1  0.36611927  0.91320544  0.02554662  1  -0.024217  -3.7e-05  -0.168028  -0.143412  -5.7e-05  3.945304  0.0
C  C87  1  0.13387779  0.08680436  0.52553996  1  -0.024053  3.7e-05  -0.168107  -0.143445  5.7e-05  3.945672  0.0
C  C88  1  0.82822076  0.38449229  0.51657018  1  -0.136053  -6.5e-05  -0.154903  -0.170607  -6.1e-05  3.917858  0.0
C  C89  1  0.67178763  0.61549293  0.01656873  1  -0.136993  6.5e-05  -0.154828  -0.170597  6.1e-05  3.917767  0.0
C  C90  1  0.17177027  0.88450464  0.98344309  1  -0.136588  -6.5e-05  -0.15494  -0.170721  -6.1e-05  3.917634  0.0
C  C91  1  0.32822261  0.11549400  0.48343938  1  -0.136565  6.5e-05  -0.154982  -0.170812  6.1e-05  3.917994  0.0
C  C92  1  0.48916420  0.44338465  0.54132414  1  -0.042833  -6.3e-05  -0.168105  -0.135224  -6.7e-05  3.920924  0.0
C  C93  1  0.01084930  0.55661767  0.04131993  1  -0.042655  6.3e-05  -0.167985  -0.135073  6.7e-05  3.920764  0.0
C  C94  1  0.51083384  0.94338281  0.95868640  1  -0.042493  -6.3e-05  -0.168033  -0.134956  -6.7e-05  3.920362  0.0
C  C95  1  0.98915989  0.05662000  0.45868371  1  -0.042817  6.3e-05  -0.167971  -0.135029  6.7e-05  3.920604  0.0
C  C96  1  0.49685360  0.36019030  0.60559188  1  -0.099938  -2.6e-05  -0.155559  -0.169844  -2e-05  3.909921  0.0
C  C97  1  0.00314973  0.63979652  0.10558926  1  -0.100361  2.6e-05  -0.15546  -0.169717  2e-05  3.909771  0.0
C  C98  1  0.50312446  0.86019628  0.89442127  1  -0.099872  -2.6e-05  -0.155541  -0.169882  -2e-05  3.909825  0.0
C  C99  1  0.99688242  0.13979695  0.39441055  1  -0.09992  2.6e-05  -0.155472  -0.169761  2e-05  3.910095  0.0
S  S100  1  0.75422396  0.31208574  0.60602645  1  -0.086991  -0.000105  -0.071889  -0.095005  -7.8e-05  2.466179  0.0
S  S101  1  0.74578180  0.68790013  0.10602779  1  -0.086912  0.000105  -0.071924  -0.095  7.8e-05  2.46606  0.0
S  S102  1  0.24575054  0.81209592  0.89398528  1  -0.086866  -0.000104  -0.071852  -0.094924  -7.8e-05  2.466058  0.0
S  S103  1  0.25425391  0.18789980  0.39397947  1  -0.086976  0.000105  -0.071821  -0.094864  7.8e-05  2.466139  0.0
O  O104  1  0.31451895  0.19040782  0.99346173  1  -0.847402  -0.063305  -0.610446  -0.774746  -0.058837  1.8515  -0.059
O  O105  1  0.18545014  0.80960380  0.49346420  1  -0.847328  0.063321  -0.610479  -0.774939  0.058836  1.851556  0.059
O  O106  1  0.68545328  0.69041442  0.50653140  1  -0.847055  -0.063324  -0.610487  -0.774797  -0.058845  1.851663  -0.059
O  O107  1  0.81452976  0.30960264  0.00653160  1  -0.847216  0.063303  -0.610516  -0.774801  0.058831  1.851824  0.059
O  O108  1  0.13278994  0.31348775  0.09619769  1  -1.132583  -0.002625  -0.347187  -0.590545  -0.003782  2.406158  -0.017
O  O109  1  0.36719846  0.68651420  0.59619275  1  -1.132513  0.002644  -0.347209  -0.590592  0.003785  2.406141  0.017
O  O110  1  0.86719012  0.81347701  0.40378851  1  -1.132483  -0.002646  -0.347144  -0.590473  -0.003796  2.406143  -0.017
O  O111  1  0.63281829  0.18651705  0.90379615  1  -1.132428  0.002635  -0.347113  -0.590465  0.003787  2.406173  0.017
O  O112  1  0.03553811  0.62945871  0.42675101  1  -1.140548  -0.001281  -0.349118  -0.599661  -0.003204  2.369813  -0.015
O  O113  1  0.46448434  0.37054636  0.92674825  1  -1.1405  0.001276  -0.349117  -0.599609  0.003202  2.369433  0.015
O  O114  1  0.96445933  0.12948007  0.07325116  1  -1.140468  -0.001287  -0.349253  -0.599671  -0.003212  2.369719  -0.015
O  O115  1  0.53553588  0.87053746  0.57324451  1  -1.140484  0.001283  -0.349088  -0.599554  0.003209  2.369795  0.015
O  O116  1  0.46497075  0.34429255  0.09150904  1  -1.147929  0.000938  -0.351555  -0.602338  0.002724  2.382422  0.015
O  O117  1  0.03502060  0.65570937  0.59150680  1  -1.147988  -0.000916  -0.351597  -0.602412  -0.002713  2.382451  -0.015
O  O118  1  0.53501659  0.84428072  0.40848031  1  -1.148014  0.000919  -0.351614  -0.602463  0.002709  2.382112  0.015
O  O119  1  0.96498886  0.15571641  0.90848857  1  -1.147617  -0.000919  -0.351657  -0.602468  -0.002711  2.382353  -0.015
O  O120  1  0.36919063  0.65659708  0.42348582  1  -1.126286  0.000575  -0.344776  -0.580484  0.002003  2.403871  0.015
O  O121  1  0.13081840  0.34342012  0.92349179  1  -1.126316  -0.000582  -0.344795  -0.580484  -0.00201  2.403846  -0.015
O  O122  1  0.63080649  0.15660821  0.07650325  1  -1.126491  0.000578  -0.344742  -0.580234  0.002003  2.403397  0.015
O  O123  1  0.86918873  0.84340555  0.57649665  1  -1.126191  -0.000575  -0.344715  -0.580353  -0.001996  2.403456  -0.015
