# generated using pymatgen
data_H14PbC14(N2Cl)2
_symmetry_space_group_name_H-M   'P 1'
_cell_length_a   4.08423928
_cell_length_b   12.80164711
_cell_length_c   16.08073077
_cell_angle_alpha   97.86508716
_cell_angle_beta   89.99921437
_cell_angle_gamma   89.99384767
_symmetry_Int_Tables_number   1
_chemical_formula_structural   H14PbC14(N2Cl)2
_chemical_formula_sum   'H28 Pb2 C28 N8 Cl4'
_cell_volume   832.87164214
_cell_formula_units_Z   2
loop_
 _symmetry_equiv_pos_site_id
 _symmetry_equiv_pos_as_xyz
  1  'x, y, z'
loop_
 _atom_site_type_symbol
 _atom_site_label
 _atom_site_symmetry_multiplicity
 _atom_site_fract_x
 _atom_site_fract_y
 _atom_site_fract_z
 _atom_site_occupancy
 _atom_site_hle17_bader_spin_density
 _atom_site_hle17_ddec_charge
 _atom_site_hle17_ddec_spin_density
 _atom_site_hle17_ddec_sum_bond_order
 _atom_site_hle17_magmom
 _atom_site_hse06_10hf_bader_spin_density
 _atom_site_hse06_10hf_ddec_charge
 _atom_site_hse06_10hf_ddec_spin_density
 _atom_site_hse06_10hf_ddec_sum_bond_order
 _atom_site_hse06_10hf_magmom
 _atom_site_hse06_bader_spin_density
 _atom_site_hse06_ddec_charge
 _atom_site_hse06_ddec_spin_density
 _atom_site_hse06_ddec_sum_bond_order
 _atom_site_hse06_magmom
 _atom_site_pbe_bader_spin_density
 _atom_site_pbe_cm5_charge
 _atom_site_pbe_ddec_charge
 _atom_site_pbe_ddec_spin_density
 _atom_site_pbe_ddec_sum_bond_order
 _atom_site_pbe_magmom
H  H0  1  0.72498720  0.73778731  0.74369499  1  0  0.071988  0  0.952187  0  0  0.080005  0  1.018382  0  0  0.08221  0  1.016787  0  0  0.107172  0.078332  0  1.019602  0
H  H1  1  0.72485864  0.26215811  0.75629339  1  0  0.071886  0  0.951953  0  0  0.079854  0  1.018183  0  0  0.082065  0  1.016589  0  0  0.107028  0.078179  0  1.019407  0
H  H2  1  0.27508757  0.26211396  0.25627887  1  0  0.072101  0  0.951868  0  0  0.080062  0  1.018099  0  0  0.082267  0  1.01651  0  0  0.10715  0.07839  0  1.019324  0
H  H3  1  0.27514511  0.73785067  0.24372018  1  0  0.071817  0  0.95188  0  0  0.079836  0  1.018063  0  0  0.082054  0  1.016464  0  0  0.107096  0.078164  0  1.019279  0
H  H4  1  0.58335309  0.60171373  0.83656316  1  0  0.107168  0  0.950497  0  0  0.114052  0  1.01291  0  0  0.118292  0  1.010406  0  0  0.107513  0.111005  0  1.014836  0
H  H5  1  0.58330170  0.39829177  0.66348407  1  0  0.107134  0  0.950308  0  0  0.114182  0  1.012559  0  0  0.118386  0  1.010094  0  0  0.107585  0.111135  0  1.014485  0
H  H6  1  0.41647682  0.39827869  0.16347111  1  0  0.107228  0  0.950782  0  0  0.114218  0  1.013013  0  0  0.118457  0  1.010511  0  0  0.107613  0.11117  0  1.014938  0
H  H7  1  0.41661146  0.60171067  0.33652573  1  0  0.107226  0  0.950559  0  0  0.114185  0  1.012861  0  0  0.118425  0  1.010356  0  0  0.107571  0.111141  0  1.014786  0
H  H8  1  0.06287999  0.80151019  0.03919632  1  0  0.110044  0  0.995308  0  0  0.115854  0  1.064586  0  0  0.118961  0  1.063711  0  0  0.091918  0.113584  0  1.065395  0
H  H9  1  0.06269344  0.19849519  0.46074536  1  0  0.109976  0  0.995445  0  0  0.115605  0  1.064993  0  0  0.11872  0  1.064082  0  0  0.091826  0.113345  0  1.06577  0
H  H10  1  0.93714580  0.19851636  0.96077928  1  0  0.10996  0  0.99567  0  0  0.115725  0  1.065024  0  0  0.118845  0  1.064102  0  0  0.091855  0.113464  0  1.065808  0
H  H11  1  0.93707037  0.80148901  0.53925012  1  0  0.109843  0  0.995647  0  0  0.115568  0  1.065092  0  0  0.118689  0  1.064175  0  0  0.091847  0.113311  0  1.065855  0
H  H12  1  0.19065986  0.92517641  0.93894667  1  0  0.076003  0  0.937616  0  0  0.081186  0  1.007163  0  0  0.083862  0  1.004744  0  0  0.108543  0.079193  0  1.008963  0
H  H13  1  0.19060510  0.07482268  0.56095862  1  0  0.075908  0  0.93776  0  0  0.081159  0  1.00723  0  0  0.083838  0  1.004811  0  0  0.108523  0.079174  0  1.009031  0
H  H14  1  0.80940511  0.07480331  0.06098989  1  0  0.075871  0  0.937998  0  0  0.081092  0  1.007477  0  0  0.083769  0  1.005063  0  0  0.108531  0.079102  0  1.009286  0
H  H15  1  0.80925664  0.92517650  0.43903902  1  0  0.075785  0  0.937934  0  0  0.08098  0  1.00743  0  0  0.083656  0  1.005014  0  0  0.108477  0.078992  0  1.009238  0
H  H16  1  0.75488998  0.57261985  0.12868366  1  0  0.12735  0  0.960013  0  0  0.141756  0  1.025935  0  0  0.145229  0  1.022912  0  0  0.095599  0.139267  0  1.02807  0
H  H17  1  0.75461068  0.42742152  0.37134555  1  0  0.127387  0  0.960027  0  0  0.141856  0  1.025868  0  0  0.145349  0  1.02282  0  0  0.095564  0.139329  0  1.028044  0
H  H18  1  0.24522394  0.42743560  0.87135214  1  0  0.127289  0  0.9602  0  0  0.14182  0  1.026001  0  0  0.145307  0  1.022956  0  0  0.095549  0.139293  0  1.028178  0
H  H19  1  0.24532452  0.57258092  0.62866487  1  0  0.127292  0  0.959948  0  0  0.141713  0  1.025863  0  0  0.145212  0  1.0228  0  0  0.09547  0.139186  0  1.028038  0
H  H20  1  0.73460794  0.71188242  0.12379015  1  0  0.124769  0  0.972267  0  0  0.143059  0  1.040771  0  0  0.144752  0  1.039894  0  0  0.087478  0.141766  0  1.041477  0
H  H21  1  0.73442006  0.28814592  0.37620855  1  0  0.125127  0  0.972255  0  0  0.143215  0  1.040919  0  0  0.144906  0  1.040045  0  0  0.087487  0.141923  0  1.041621  0
H  H22  1  0.26562106  0.28817051  0.87622797  1  0  0.124986  0  0.972669  0  0  0.143142  0  1.041254  0  0  0.144827  0  1.040388  0  0  0.087471  0.141851  0  1.041953  0
H  H23  1  0.26554207  0.71185577  0.62380490  1  0  0.12498  0  0.972155  0  0  0.143067  0  1.040851  0  0  0.144757  0  1.039976  0  0  0.087494  0.141778  0  1.041549  0
H  H24  1  0.10216390  0.64238869  0.09669417  1  0  0.128459  0  0.950383  0  0  0.151067  0  1.009841  0  0  0.151914  0  1.010544  0  0  0.097908  0.15043  0  1.009371  0
H  H25  1  0.10196270  0.35764309  0.40325323  1  0  0.128744  0  0.950585  0  0  0.151334  0  1.010015  0  0  0.152175  0  1.010737  0  0  0.097976  0.150698  0  1.009541  0
H  H26  1  0.89796472  0.35761828  0.90329371  1  0  0.128658  0  0.950251  0  0  0.151234  0  1.00974  0  0  0.152081  0  1.010448  0  0  0.097911  0.150598  0  1.009269  0
H  H27  1  0.89795291  0.64236981  0.59678128  1  0  0.128555  0  0.950291  0  0  0.15119  0  1.00965  0  0  0.152034  0  1.010362  0  0  0.097908  0.150551  0  1.009187  0
Pb  Pb28  1  0.03036753  0.99996476  0.75000231  1  0  1.0743  0  1.734573  0  0  0.882846  0  2.182293  0  0  0.938804  0  2.143733  0  0  0.467108  0.843143  0  2.208855  0
Pb  Pb29  1  0.97018203  0.99999752  0.24999124  1  0  1.074391  0  1.734494  0  0  0.88289  0  2.182476  0  0  0.938913  0  2.143746  0  0  0.467096  0.843238  0  2.208929  0
C  C30  1  0.79870076  0.74732678  0.80956949  1  0  0.115395  0  3.748919  0  0  0.08846  0  3.999981  0  0  0.093889  0  4.020789  0  0  0.040243  0.085003  0  3.985738  0
C  C31  1  0.79860462  0.25264072  0.69041349  1  0  0.116174  0  3.748863  0  0  0.089332  0  3.999873  0  0  0.094757  0  4.02067  0  0  0.040584  0.085878  0  3.985627  0
C  C32  1  0.20130790  0.25262024  0.19041033  1  0  0.115872  0  3.749155  0  0  0.089008  0  4.000103  0  0  0.094429  0  4.020924  0  0  0.04033  0.085545  0  3.985868  0
C  C33  1  0.20134772  0.74736409  0.30959718  1  0  0.116319  0  3.74878  0  0  0.089436  0  3.999758  0  0  0.094848  0  4.020573  0  0  0.040582  0.085979  0  3.985522  0
C  C34  1  0.71924675  0.67242230  0.86098813  1  0  -0.136884  0  3.710226  0  0  -0.15581  0  3.957234  0  0  -0.162077  0  3.977773  0  0  -0.079799  -0.151729  0  3.943425  0
C  C35  1  0.71916244  0.32757547  0.63901997  1  0  -0.137212  0  3.710256  0  0  -0.156316  0  3.957313  0  0  -0.162562  0  3.977872  0  0  -0.07989  -0.152229  0  3.943497  0
C  C36  1  0.28066152  0.32756360  0.13902245  1  0  -0.137279  0  3.710724  0  0  -0.156214  0  3.957747  0  0  -0.162483  0  3.978284  0  0  -0.07975  -0.152126  0  3.943935  0
C  C37  1  0.28074337  0.67242381  0.36098826  1  0  -0.137309  0  3.710369  0  0  -0.156289  0  3.957401  0  0  -0.162558  0  3.977943  0  0  -0.079841  -0.152208  0  3.943585  0
C  C38  1  0.80972510  0.68964645  0.94622006  1  0  0.053705  0  3.72908  0  0  0.065044  0  3.962349  0  0  0.066884  0  3.984806  0  0  0.012108  0.064011  0  3.947041  0
C  C39  1  0.80958191  0.31035315  0.55377864  1  0  0.053445  0  3.729226  0  0  0.064854  0  3.962455  0  0  0.066697  0  3.984907  0  0  0.011963  0.063821  0  3.947141  0
C  C40  1  0.19022478  0.31036778  0.05378661  1  0  0.053898  0  3.728857  0  0  0.065143  0  3.962385  0  0  0.066984  0  3.984839  0  0  0.011979  0.064106  0  3.947078  0
C  C41  1  0.19026269  0.68964217  0.44622856  1  0  0.053817  0  3.728716  0  0  0.065137  0  3.962082  0  0  0.066976  0  3.984542  0  0  0.012089  0.0641  0  3.946775  0
C  C42  1  0.98298499  0.78224695  0.97439128  1  0  -0.131376  0  3.678559  0  0  -0.151886  0  3.926478  0  0  -0.158711  0  3.948231  0  0  -0.081332  -0.147515  0  3.911943  0
C  C43  1  0.98283943  0.21775551  0.52556182  1  0  -0.131189  0  3.678506  0  0  -0.151622  0  3.92651  0  0  -0.158447  0  3.948292  0  0  -0.081283  -0.147243  0  3.911971  0
C  C44  1  0.01699917  0.21776782  0.02558870  1  0  -0.131557  0  3.679072  0  0  -0.152007  0  3.927056  0  0  -0.158833  0  3.948838  0  0  -0.081346  -0.147623  0  3.912516  0
C  C45  1  0.01696845  0.78223580  0.47443750  1  0  -0.131399  0  3.67861  0  0  -0.151862  0  3.926538  0  0  -0.158686  0  3.948304  0  0  -0.081488  -0.147477  0  3.912011  0
C  C46  1  0.05466602  0.85273741  0.91830059  1  0  0.130092  0  3.720829  0  0  0.101147  0  3.97555  0  0  0.107718  0  3.994562  0  0  0.047134  0.096926  0  3.962526  0
C  C47  1  0.05457766  0.14725441  0.58163979  1  0  0.130416  0  3.720579  0  0  0.10146  0  3.975319  0  0  0.108042  0  3.994305  0  0  0.047369  0.097214  0  3.962336  0
C  C48  1  0.94534753  0.14724406  0.08165667  1  0  0.130567  0  3.720912  0  0  0.101621  0  3.975617  0  0  0.108197  0  3.994619  0  0  0.047347  0.09738  0  3.962624  0
C  C49  1  0.94528898  0.85274402  0.41836213  1  0  0.130796  0  3.720555  0  0  0.101929  0  3.975262  0  0  0.108508  0  3.994261  0  0  0.047501  0.097685  0  3.962268  0
C  C50  1  0.72112224  0.61441708  0.00466712  1  0  0.278488  0  3.635016  0  0  0.280528  0  3.893153  0  0  0.289542  0  3.907931  0  0  0.154345  0.274366  0  3.882962  0
C  C51  1  0.72098521  0.38558739  0.49534656  1  0  0.279232  0  3.634812  0  0  0.281333  0  3.892766  0  0  0.290348  0  3.907538  0  0  0.154428  0.275172  0  3.882581  0
C  C52  1  0.27891824  0.38560914  0.99535944  1  0  0.278984  0  3.634511  0  0  0.280899  0  3.892885  0  0  0.289922  0  3.907649  0  0  0.154312  0.274735  0  3.882702  0
C  C53  1  0.27888632  0.61441904  0.50466800  1  0  0.278714  0  3.634943  0  0  0.280737  0  3.893087  0  0  0.28975  0  3.907871  0  0  0.154347  0.27458  0  3.88289  0
C  C54  1  0.83396613  0.63586085  0.09403381  1  0  -0.395559  0  3.71217  0  0  -0.478541  0  3.948012  0  0  -0.481337  0  3.95326  0  0  -0.248843  -0.47631  0  3.944318  0
C  C55  1  0.83376228  0.36415892  0.40596932  1  0  -0.396736  0  3.712831  0  0  -0.47964  0  3.948649  0  0  -0.482462  0  3.953889  0  0  -0.249018  -0.477371  0  3.944996  0
C  C56  1  0.16615025  0.36417632  0.90598331  1  0  -0.3962  0  3.712832  0  0  -0.479141  0  3.948659  0  0  -0.481951  0  3.953905  0  0  -0.248778  -0.476875  0  3.945006  0
C  C57  1  0.16614598  0.63584753  0.59404836  1  0  -0.396017  0  3.712076  0  0  -0.478884  0  3.947978  0  0  -0.481703  0  3.953221  0  0  -0.248741  -0.47662  0  3.944321  0
N  N58  1  0.96360725  0.83644587  0.83736993  1  0  -0.349108  0  3.234038  0  0  -0.277631  0  3.490539  0  0  -0.297783  0  3.514213  0  0  -0.306473  -0.263753  0  3.47411  0
N  N59  1  0.96351475  0.16351852  0.66257556  1  0  -0.349716  0  3.233681  0  0  -0.278327  0  3.490315  0  0  -0.298479  0  3.513992  0  0  -0.306754  -0.26445  0  3.473892  0
N  N60  1  0.03645283  0.16349777  0.16258467  1  0  -0.349671  0  3.234152  0  0  -0.278215  0  3.490707  0  0  -0.298373  0  3.514386  0  0  -0.30671  -0.264341  0  3.474301  0
N  N61  1  0.03643758  0.83648626  0.33743199  1  0  -0.350032  0  3.233849  0  0  -0.278651  0  3.490474  0  0  -0.298811  0  3.514156  0  0  -0.306885  -0.264776  0  3.474067  0
N  N62  1  0.54202680  0.53444624  0.97248098  1  0  -0.250624  0  3.040935  0  0  -0.223127  0  3.319926  0  0  -0.233794  0  3.33821  0  0  -0.208953  -0.215786  0  3.307458  0
N  N63  1  0.54190021  0.46556190  0.52754238  1  0  -0.250907  0  3.041408  0  0  -0.223491  0  3.320495  0  0  -0.234156  0  3.338754  0  0  -0.208895  -0.21615  0  3.308033  0
N  N64  1  0.45808713  0.46555639  0.02755060  1  0  -0.250894  0  3.040968  0  0  -0.22342  0  3.320118  0  0  -0.234097  0  3.33838  0  0  -0.208869  -0.216078  0  3.307668  0
N  N65  1  0.45801539  0.53445164  0.47247540  1  0  -0.25061  0  3.041239  0  0  -0.22314  0  3.320309  0  0  -0.233806  0  3.338593  0  0  -0.208939  -0.215801  0  3.307838  0
Cl  Cl66  1  0.53631979  0.90244779  0.63919331  1  0  -0.59688  0  0.878837  0  0  -0.516295  0  1.129873  0  0  -0.538671  0  1.113924  0  0  -0.258038  -0.500084  0  1.140859  0
Cl  Cl67  1  0.53627097  0.09756789  0.86077302  1  0  -0.596993  0  0.87876  0  0  -0.516423  0  1.129774  0  0  -0.538794  0  1.113819  0  0  -0.258127  -0.50021  0  1.140763  0
Cl  Cl68  1  0.46385045  0.09759034  0.36075612  1  0  -0.596997  0  0.878857  0  0  -0.516393  0  1.129941  0  0  -0.538782  0  1.113973  0  0  -0.258079  -0.500192  0  1.14092  0
Cl  Cl69  1  0.46397518  0.90242165  0.13920498  1  0  -0.596992  0  0.878616  0  0  -0.516496  0  1.129775  0  0  -0.538888  0  1.11383  0  0  -0.258094  -0.500286  0  1.140741  0
