# generated using pymatgen
data_ZnH14C18N4(ClO)2
_symmetry_space_group_name_H-M   'P 1'
_cell_length_a   7.84732548
_cell_length_b   11.59157560
_cell_length_c   11.66923945
_cell_angle_alpha   75.92120474
_cell_angle_beta   87.57681499
_cell_angle_gamma   77.87577242
_symmetry_Int_Tables_number   1
_chemical_formula_structural   ZnH14C18N4(ClO)2
_chemical_formula_sum   'Zn2 H28 C36 N8 Cl4 O4'
_cell_volume   1006.57441526
_cell_formula_units_Z   2
loop_
 _symmetry_equiv_pos_site_id
 _symmetry_equiv_pos_as_xyz
  1  'x, y, z'
loop_
 _atom_site_type_symbol
 _atom_site_label
 _atom_site_symmetry_multiplicity
 _atom_site_fract_x
 _atom_site_fract_y
 _atom_site_fract_z
 _atom_site_occupancy
 _atom_site_hle17_bader_spin_density
 _atom_site_hle17_ddec_charge
 _atom_site_hle17_ddec_spin_density
 _atom_site_hle17_ddec_sum_bond_order
 _atom_site_hle17_magmom
 _atom_site_hse06_10hf_bader_spin_density
 _atom_site_hse06_10hf_ddec_charge
 _atom_site_hse06_10hf_ddec_spin_density
 _atom_site_hse06_10hf_ddec_sum_bond_order
 _atom_site_hse06_10hf_magmom
 _atom_site_hse06_bader_spin_density
 _atom_site_hse06_ddec_charge
 _atom_site_hse06_ddec_spin_density
 _atom_site_hse06_ddec_sum_bond_order
 _atom_site_hse06_magmom
 _atom_site_pbe_bader_spin_density
 _atom_site_pbe_cm5_charge
 _atom_site_pbe_ddec_charge
 _atom_site_pbe_ddec_spin_density
 _atom_site_pbe_ddec_sum_bond_order
 _atom_site_pbe_magmom
Zn  Zn0  1  0.38810720  0.53058822  0.25511345  1  0  0.831083  0  2.127488  0  0  0.651779  0  2.617446  0  0  0.690981  0  2.572533  0  0  0.565052  0.624596  0  2.648317  0
Zn  Zn1  1  0.61188886  0.46941353  0.74488933  1  0  0.831109  0  2.127357  0  0  0.651799  0  2.617312  0  0  0.690997  0  2.572399  0  0  0.56507  0.62462  0  2.648177  0
H  H2  1  0.81336666  0.63183865  0.52351763  1  0  0.274777  0  0.952101  0  0  0.255861  0  1.025048  0  0  0.262814  0  1.020484  0  0  0.281309  0.250987  0  1.028355  0
H  H3  1  0.18663207  0.36816763  0.47647716  1  0  0.274709  0  0.952102  0  0  0.255794  0  1.025048  0  0  0.262748  0  1.020481  0  0  0.281266  0.250924  0  1.028348  0
H  H4  1  0.82762466  0.95220389  0.43457787  1  0  0.291178  0  0.969909  0  0  0.270542  0  1.039718  0  0  0.278333  0  1.034248  0  0  0.302245  0.265098  0  1.043497  0
H  H5  1  0.17237594  0.04780423  0.56542074  1  0  0.291184  0  0.969889  0  0  0.270543  0  1.039718  0  0  0.278328  0  1.034256  0  0  0.302245  0.265099  0  1.043496  0
H  H6  1  0.64542622  0.56200407  0.07524192  1  0  0.075961  0  0.980297  0  0  0.080355  0  1.055395  0  0  0.083384  0  1.051626  0  0  0.103216  0.077956  0  1.058514  0
H  H7  1  0.35457698  0.43798223  0.92476531  1  0  0.075952  0  0.980278  0  0  0.080393  0  1.055332  0  0  0.083423  0  1.051565  0  0  0.103265  0.077987  0  1.058472  0
H  H8  1  0.91003340  0.65422335  0.03023974  1  0  0.111612  0  0.969256  0  0  0.119363  0  1.032193  0  0  0.122332  0  1.032175  0  0  0.104537  0.117452  0  1.032006  0
H  H9  1  0.08996847  0.34576838  0.96975678  1  0  0.11164  0  0.969267  0  0  0.119417  0  1.032168  0  0  0.122384  0  1.032152  0  0  0.10456  0.117505  0  1.03198  0
H  H10  1  0.00948551  0.75068973  0.17964996  1  0  0.113029  0  0.933606  0  0  0.121662  0  0.993387  0  0  0.125404  0  0.989554  0  0  0.11233  0.118752  0  0.996347  0
H  H11  1  0.99050483  0.24931925  0.82034173  1  0  0.113025  0  0.933662  0  0  0.121645  0  0.993466  0  0  0.125386  0  0.989633  0  0  0.112379  0.118733  0  0.996425  0
H  H12  1  0.57590961  0.65670395  0.39634674  1  0  0.083089  0  0.970488  0  0  0.084372  0  1.050186  0  0  0.087729  0  1.046042  0  0  0.110862  0.081891  0  1.053353  0
H  H13  1  0.42408077  0.34330869  0.60364922  1  0  0.083143  0  0.970559  0  0  0.084328  0  1.050362  0  0  0.087685  0  1.046219  0  0  0.110841  0.081848  0  1.053531  0
H  H14  1  0.99554286  0.56727583  0.68865370  1  0  0.099999  0  0.964711  0  0  0.108183  0  1.031631  0  0  0.11023  0  1.032001  0  0  0.096267  0.106757  0  1.031406  0
H  H15  1  0.00445454  0.43272680  0.31133770  1  0  0.100023  0  0.96467  0  0  0.108235  0  1.031559  0  0  0.11027  0  1.031958  0  0  0.096297  0.106814  0  1.031314  0
H  H16  1  0.08662423  0.61545422  0.87068991  1  0  0.085534  0  0.984665  0  0  0.095433  0  1.050316  0  0  0.09729  0  1.0502  0  0  0.088034  0.094104  0  1.050188  0
H  H17  1  0.91336534  0.38454022  0.12930614  1  0  0.085526  0  0.984693  0  0  0.095432  0  1.050342  0  0  0.09729  0  1.050217  0  0  0.088087  0.094103  0  1.050216  0
H  H18  1  0.03492305  0.83046761  0.88577412  1  0  0.090881  0  0.942064  0  0  0.105276  0  0.99409  0  0  0.107575  0  0.993831  0  0  0.09951  0.10335  0  0.994787  0
H  H19  1  0.96507234  0.16952412  0.11422593  1  0  0.090919  0  0.942102  0  0  0.105321  0  0.994114  0  0  0.107621  0  0.993856  0  0  0.09954  0.103394  0  0.994812  0
H  H20  1  0.89025028  0.99658789  0.71906519  1  0  0.130086  0  0.95183  0  0  0.140205  0  1.00746  0  0  0.144141  0  1.00425  0  0  0.110211  0.137395  0  1.0098  0
H  H21  1  0.10975367  0.00340477  0.28093707  1  0  0.130113  0  0.951593  0  0  0.140138  0  1.007349  0  0  0.144072  0  1.004146  0  0  0.110204  0.137335  0  1.009694  0
H  H22  1  0.61902476  0.99958944  0.31480003  1  0  0.108341  0  0.948158  0  0  0.117834  0  1.008577  0  0  0.120707  0  1.006156  0  0  0.114732  0.115654  0  1.010441  0
H  H23  1  0.38098393  0.00041234  0.68520598  1  0  0.108317  0  0.948144  0  0  0.117812  0  1.008565  0  0  0.120689  0  1.006138  0  0  0.114689  0.115632  0  1.010434  0
H  H24  1  0.49008495  0.13372426  0.12464526  1  0  0.112739  0  0.921072  0  0  0.128053  0  0.966288  0  0  0.131055  0  0.966361  0  0  0.118442  0.125848  0  0.96655  0
H  H25  1  0.50992792  0.86627661  0.87535833  1  0  0.11269  0  0.921119  0  0  0.12803  0  0.966299  0  0  0.131032  0  0.966374  0  0  0.118431  0.125828  0  0.966563  0
H  H26  1  0.40262965  0.35874758  0.10767205  1  0  0.068626  0  0.989077  0  0  0.074845  0  1.06142  0  0  0.076836  0  1.05924  0  0  0.104455  0.073402  0  1.062909  0
H  H27  1  0.59738007  0.64125512  0.89233287  1  0  0.068639  0  0.989  0  0  0.074845  0  1.061362  0  0  0.076829  0  1.059194  0  0  0.104453  0.073402  0  1.062853  0
H  H28  1  0.58023572  0.32098677  0.44709003  1  0  0.084958  0  0.956699  0  0  0.089116  0  1.032234  0  0  0.092085  0  1.028525  0  0  0.111291  0.086818  0  1.035135  0
H  H29  1  0.41976202  0.67901317  0.55291744  1  0  0.08503  0  0.95674  0  0  0.089174  0  1.032283  0  0  0.092147  0  1.028581  0  0  0.111293  0.086875  0  1.035182  0
C  C30  1  0.69364867  0.60573836  0.13643981  1  0  0.13023  0  3.685002  0  0  0.097872  0  3.92708  0  0  0.106416  0  3.94397  0  0  0.04628  0.091853  0  3.916138  0
C  C31  1  0.30634560  0.39425701  0.86356023  1  0  0.130256  0  3.685091  0  0  0.097838  0  3.927202  0  0  0.106376  0  3.944089  0  0  0.046268  0.091813  0  3.916254  0
C  C32  1  0.83950158  0.65725950  0.11198277  1  0  -0.116229  0  3.729585  0  0  -0.123259  0  3.973152  0  0  -0.131771  0  3.994533  0  0  -0.081635  -0.117923  0  3.958666  0
C  C33  1  0.16049407  0.34273951  0.88801895  1  0  -0.116235  0  3.729663  0  0  -0.123272  0  3.973249  0  0  -0.131784  0  3.994631  0  0  -0.081688  -0.117937  0  3.958761  0
C  C34  1  0.89493541  0.71003740  0.19491863  1  0  0.005297  0  3.673603  0  0  -0.025285  0  3.916668  0  0  -0.018526  0  3.932003  0  0  -0.050206  -0.02877  0  3.906027  0
C  C35  1  0.10505335  0.28996796  0.80507824  1  0  0.005242  0  3.67364  0  0  -0.025367  0  3.916737  0  0  -0.018608  0  3.932078  0  0  -0.050303  -0.028854  0  3.906093  0
C  C36  1  0.80402814  0.70796824  0.30091614  1  0  -0.101762  0  3.748019  0  0  -0.076492  0  3.984348  0  0  -0.088376  0  4.007337  0  0  -0.007102  -0.069083  0  3.968896  0
C  C37  1  0.19596435  0.29204167  0.69907958  1  0  -0.101767  0  3.748078  0  0  -0.076437  0  3.984212  0  0  -0.088331  0  4.007225  0  0  -0.00707  -0.069032  0  3.968761  0
C  C38  1  0.65680985  0.65604001  0.31838017  1  0  0.13507  0  3.655566  0  0  0.092542  0  3.899794  0  0  0.102638  0  3.915328  0  0  0.058037  0.085284  0  3.89013  0
C  C39  1  0.34318017  0.34396989  0.68161302  1  0  0.135026  0  3.655773  0  0  0.09254  0  3.899983  0  0  0.102631  0  3.915521  0  0  0.057995  0.085276  0  3.890318  0
C  C40  1  0.86329107  0.76754716  0.38718822  1  0  0.554081  0  3.823723  0  0  0.500975  0  4.118314  0  0  0.531421  0  4.116257  0  0  0.244004  0.481061  0  4.11846  0
C  C41  1  0.13670394  0.23245910  0.61280319  1  0  0.553832  0  3.824025  0  0  0.500831  0  4.118418  0  0  0.531281  0  4.116362  0  0  0.243884  0.480917  0  4.118565  0
C  C42  1  0.89406280  0.75397677  0.60152575  1  0  0.157096  0  3.733204  0  0  0.150063  0  3.979424  0  0  0.154419  0  4.001791  0  0  0.089337  0.147258  0  3.96413  0
C  C43  1  0.10594446  0.24602225  0.39847152  1  0  0.157071  0  3.733244  0  0  0.150029  0  3.979495  0  0  0.15439  0  4.001857  0  0  0.089336  0.147227  0  3.964208  0
C  C44  1  0.97312553  0.66118304  0.69648399  1  0  -0.154231  0  3.757426  0  0  -0.173628  0  4.011496  0  0  -0.178035  0  4.034995  0  0  -0.102058  -0.170527  0  3.995347  0
C  C45  1  0.02688080  0.33881506  0.30351093  1  0  -0.154195  0  3.757271  0  0  -0.173616  0  4.011353  0  0  -0.178026  0  4.034845  0  0  -0.102022  -0.170504  0  3.995202  0
C  C46  1  0.02260933  0.68818354  0.79842586  1  0  -0.077586  0  3.809349  0  0  -0.094817  0  4.065982  0  0  -0.097815  0  4.091157  0  0  -0.106382  -0.092486  0  4.048033  0
C  C47  1  0.97738583  0.31181363  0.20156860  1  0  -0.077641  0  3.809475  0  0  -0.094894  0  4.066141  0  0  -0.097885  0  4.091314  0  0  -0.106531  -0.092566  0  4.048193  0
C  C48  1  0.99296614  0.80896690  0.80693419  1  0  -0.071477  0  3.803294  0  0  -0.087279  0  4.058163  0  0  -0.090026  0  4.082176  0  0  -0.097977  -0.085042  0  4.04153  0
C  C49  1  0.00703450  0.19103302  0.19306210  1  0  -0.071605  0  3.803516  0  0  -0.087405  0  4.058376  0  0  -0.090154  0  4.082389  0  0  -0.098059  -0.085168  0  4.041743  0
C  C50  1  0.91288892  0.90217113  0.71424683  1  0  -0.140454  0  3.724578  0  0  -0.162601  0  3.97735  0  0  -0.165539  0  3.996743  0  0  -0.091137  -0.160586  0  3.964162  0
C  C51  1  0.08711204  0.09783153  0.28575308  1  0  -0.1404  0  3.72417  0  0  -0.162451  0  3.976982  0  0  -0.165391  0  3.996378  0  0  -0.091035  -0.160446  0  3.963817  0
C  C52  1  0.86232361  0.87629749  0.61092836  1  0  0.175495  0  3.753243  0  0  0.167784  0  4.003183  0  0  0.173235  0  4.024944  0  0  0.094392  0.16393  0  3.988535  0
C  C53  1  0.13768719  0.12370611  0.38907375  1  0  0.175553  0  3.753204  0  0  0.167807  0  4.003182  0  0  0.173254  0  4.024944  0  0  0.094369  0.163931  0  3.988561  0
C  C54  1  0.67572131  0.07683041  0.51698890  1  0  0.547677  0  3.841096  0  0  0.502027  0  4.128674  0  0  0.532171  0  4.127757  0  0  0.240648  0.481851  0  4.128685  0
C  C55  1  0.32427846  0.92317589  0.48301358  1  0  0.547739  0  3.840977  0  0  0.502117  0  4.128539  0  0  0.53226  0  4.127619  0  0  0.240739  0.481936  0  4.128561  0
C  C56  1  0.61102950  0.15017551  0.39625387  1  0  -0.096241  0  3.71938  0  0  -0.072785  0  3.958884  0  0  -0.084182  0  3.981618  0  0  -0.005463  -0.065797  0  3.943988  0
C  C57  1  0.38897337  0.84982445  0.60375266  1  0  -0.096202  0  3.719196  0  0  -0.072766  0  3.958711  0  0  -0.08416  0  3.981442  0  0  -0.005497  -0.06578  0  3.94382  0
C  C58  1  0.58649649  0.09764169  0.30365324  1  0  0.005181  0  3.659701  0  0  -0.026489  0  3.909799  0  0  -0.018951  0  3.92444  0  0  -0.049468  -0.031283  0  3.900079  0
C  C59  1  0.41351478  0.90236009  0.69635187  1  0  0.005184  0  3.659395  0  0  -0.026487  0  3.909505  0  0  -0.018949  0  3.92414  0  0  -0.049423  -0.03128  0  3.899788  0
C  C60  1  0.51268022  0.17181742  0.19778233  1  0  -0.102585  0  3.722182  0  0  -0.113441  0  3.973131  0  0  -0.121596  0  3.993486  0  0  -0.074256  -0.108359  0  3.959666  0
C  C61  1  0.48733332  0.82818528  0.80222253  1  0  -0.102505  0  3.72215  0  0  -0.11338  0  3.973083  0  0  -0.121536  0  3.993437  0  0  -0.074247  -0.1083  0  3.959619  0
C  C62  1  0.46374691  0.29607106  0.18723343  1  0  0.142013  0  3.695555  0  0  0.106434  0  3.945201  0  0  0.114805  0  3.964178  0  0  0.051216  0.100993  0  3.932428  0
C  C63  1  0.53626124  0.70393254  0.81277215  1  0  0.141808  0  3.695601  0  0  0.106243  0  3.945267  0  0  0.114618  0  3.964232  0  0  0.051124  0.100809  0  3.932498  0
C  C64  1  0.56056730  0.27621278  0.37793806  1  0  0.133871  0  3.64413  0  0  0.089228  0  3.895764  0  0  0.098898  0  3.912161  0  0  0.058045  0.083104  0  3.884718  0
C  C65  1  0.43943811  0.72378718  0.62206843  1  0  0.133667  0  3.644391  0  0  0.089036  0  3.895998  0  0  0.098695  0  3.912402  0  0  0.058038  0.08292  0  3.884956  0
N  N66  1  0.60368377  0.60617997  0.23736696  1  0  -0.307716  0  3.330892  0  0  -0.216228  0  3.595846  0  0  -0.236144  0  3.61111  0  0  -0.333816  -0.203054  0  3.586053  0
N  N67  1  0.39631215  0.39381813  0.76263498  1  0  -0.307685  0  3.330897  0  0  -0.216194  0  3.595847  0  0  -0.236094  0  3.611092  0  0  -0.333774  -0.20301  0  3.586045  0
N  N68  1  0.84078993  0.71773688  0.50334770  1  0  -0.433252  0  3.371548  0  0  -0.378323  0  3.611718  0  0  -0.400074  0  3.621811  0  0  -0.394802  -0.363612  0  3.604238  0
N  N69  1  0.15920902  0.28226938  0.49664024  1  0  -0.433139  0  3.371648  0  0  -0.378226  0  3.611736  0  0  -0.399979  0  3.621827  0  0  -0.39468  -0.363513  0  3.604252  0
N  N70  1  0.78426403  0.96877721  0.51527822  1  0  -0.454611  0  3.383552  0  0  -0.402563  0  3.627485  0  0  -0.425599  0  3.638037  0  0  -0.40522  -0.386769  0  3.61976  0
N  N71  1  0.21573961  0.03122910  0.48472249  1  0  -0.45461  0  3.383771  0  0  -0.402556  0  3.627698  0  0  -0.425577  0  3.638231  0  0  -0.405239  -0.386751  0  3.619977  0
N  N72  1  0.48713453  0.34722440  0.27596007  1  0  -0.325212  0  3.327061  0  0  -0.236454  0  3.600492  0  0  -0.256859  0  3.616835  0  0  -0.334648  -0.22276  0  3.589089  0
N  N73  1  0.51286955  0.65277556  0.72404815  1  0  -0.324976  0  3.327179  0  0  -0.236207  0  3.600549  0  0  -0.256614  0  3.616906  0  0  -0.334542  -0.222532  0  3.589161  0
Cl  Cl74  1  0.27413203  0.59638403  0.07174991  1  0  -0.56332  0  0.949586  0  0  -0.50337  0  1.227237  0  0  -0.518393  0  1.204664  0  0  -0.301744  -0.49223  0  1.242989  0
Cl  Cl75  1  0.72586313  0.40361226  0.92825333  1  0  -0.563318  0  0.949547  0  0  -0.503369  0  1.227198  0  0  -0.518391  0  1.204625  0  0  -0.30174  -0.492226  0  1.242935  0
Cl  Cl76  1  0.24529662  0.55689994  0.41981869  1  0  -0.526386  0  0.964585  0  0  -0.462104  0  1.243399  0  0  -0.477191  0  1.221143  0  0  -0.28132  -0.451178  0  1.258749  0
Cl  Cl77  1  0.75469306  0.44310634  0.58018052  1  0  -0.5264  0  0.964529  0  0  -0.462102  0  1.243325  0  0  -0.477191  0  1.221075  0  0  -0.281323  -0.451178  0  1.258676  0
O  O78  1  0.92771902  0.85937876  0.34957394  1  0  -0.53923  0  1.964931  0  0  -0.495179  0  2.18613  0  0  -0.51542  0  2.178966  0  0  -0.28842  -0.481016  0  2.190105  0
O  O79  1  0.07227452  0.14063206  0.65041983  1  0  -0.539083  0  1.965176  0  0  -0.495086  0  2.186339  0  0  -0.515331  0  2.17918  0  0  -0.288355  -0.480923  0  2.190313  0
O  O80  1  0.62472471  0.11326876  0.60654188  1  0  -0.537592  0  1.883149  0  0  -0.49948  0  2.095135  0  0  -0.520365  0  2.089765  0  0  -0.298789  -0.484888  0  2.098202  0
O  O81  1  0.37527897  0.88672847  0.39346530  1  0  -0.537657  0  1.882934  0  0  -0.499555  0  2.094923  0  0  -0.520441  0  2.08955  0  0  -0.298856  -0.484961  0  2.097996  0
