# generated using pymatgen
data_ZnH26C30S(NO2)4
_symmetry_space_group_name_H-M   'P 1'
_cell_length_a   10.13957381
_cell_length_b   11.38131506
_cell_length_c   13.65680000
_cell_angle_alpha   74.22559412
_cell_angle_beta   72.08120543
_cell_angle_gamma   71.75389640
_symmetry_Int_Tables_number   1
_chemical_formula_structural   ZnH26C30S(NO2)4
_chemical_formula_sum   'Zn2 H52 C60 S2 N8 O16'
_cell_volume   1397.05000386
_cell_formula_units_Z   2
loop_
 _symmetry_equiv_pos_site_id
 _symmetry_equiv_pos_as_xyz
  1  'x, y, z'
loop_
 _atom_site_type_symbol
 _atom_site_label
 _atom_site_symmetry_multiplicity
 _atom_site_fract_x
 _atom_site_fract_y
 _atom_site_fract_z
 _atom_site_occupancy
 _atom_site_hle17_bader_spin_density
 _atom_site_hle17_ddec_charge
 _atom_site_hle17_ddec_spin_density
 _atom_site_hle17_ddec_sum_bond_order
 _atom_site_hle17_magmom
 _atom_site_hse06_10hf_bader_spin_density
 _atom_site_hse06_10hf_ddec_charge
 _atom_site_hse06_10hf_ddec_spin_density
 _atom_site_hse06_10hf_ddec_sum_bond_order
 _atom_site_hse06_10hf_magmom
 _atom_site_hse06_bader_spin_density
 _atom_site_hse06_ddec_charge
 _atom_site_hse06_ddec_spin_density
 _atom_site_hse06_ddec_sum_bond_order
 _atom_site_hse06_magmom
 _atom_site_pbe_bader_charge
 _atom_site_pbe_bader_spin_density
 _atom_site_pbe_cm5_charge
 _atom_site_pbe_ddec_charge
 _atom_site_pbe_ddec_spin_density
 _atom_site_pbe_ddec_sum_bond_order
 _atom_site_pbe_magmom
Zn  Zn0  1  0.35423523  0.25352317  0.46926898  1  0  0.986582  0  1.837642  0  0  0.794575  0  2.30508  0  0  0.844647  0  2.251305  0  1.254599  0  0.692947  0.759549  0  2.341957  0
Zn  Zn1  1  0.64576629  0.74648132  0.53074027  1  0  0.986598  0  1.837769  0  0  0.794612  0  2.305214  0  0  0.844687  0  2.251442  0  1.254896  0  0.692942  0.759586  0  2.342106  0
H  H2  1  0.56028077  0.15668742  0.91116939  1  0  0.301206  0  0.86099  0  0  0.294921  0  0.903976  0  0  0.301274  0  0.899921  0  0.454017  0  0.330508  0.290442  0  0.906917  0
H  H3  1  0.43974440  0.84331047  0.08883889  1  0  0.301226  0  0.860926  0  0  0.294971  0  0.903896  0  0  0.301329  0  0.899835  0  0.454198  0  0.330567  0.290492  0  0.906837  0
H  H4  1  0.98777638  0.21688522  0.36885413  1  0  0.304338  0  0.858258  0  0  0.295896  0  0.905633  0  0  0.301944  0  0.90222  0  0.456526  0  0.330488  0.291619  0  0.908119  0
H  H5  1  0.01222498  0.78310890  0.63114653  1  0  0.304413  0  0.858165  0  0  0.295965  0  0.905562  0  0  0.302008  0  0.90215  0  0.456449  0  0.330531  0.29169  0  0.908049  0
H  H6  1  0.39992996  0.06606960  0.66643695  1  0  0.085857  0  0.9883  0  0  0.090449  0  1.059991  0  0  0.093807  0  1.056401  0  0.157179  0  0.112909  0.088087  0  1.062388  0
H  H7  1  0.60007448  0.93392829  0.33356947  1  0  0.085873  0  0.988214  0  0  0.090419  0  1.059973  0  0  0.093771  0  1.056399  0  0.156991  0  0.11291  0.088051  0  1.062382  0
H  H8  1  0.47633857  0.05805033  0.82400938  1  0  0.119941  0  0.946561  0  0  0.130207  0  1.006005  0  0  0.134153  0  1.003725  0  0.114437  0  0.11313  0.127358  0  1.007854  0
H  H9  1  0.52366912  0.94193247  0.17600264  1  0  0.119979  0  0.946612  0  0  0.130151  0  1.006164  0  0  0.134098  0  1.003884  0  0.11403  0  0.113118  0.127302  0  1.008017  0
H  H10  1  0.49720434  0.44740026  0.70321036  1  0  0.145058  0  0.966692  0  0  0.147683  0  1.032906  0  0  0.152494  0  1.029943  0  0.173261  0  0.115474  0.144268  0  1.035002  0
H  H11  1  0.50281580  0.55258254  0.29680175  1  0  0.145003  0  0.966768  0  0  0.147665  0  1.032971  0  0  0.152471  0  1.030016  0  0.173272  0  0.115468  0.144255  0  1.035058  0
H  H12  1  0.41378120  0.44079283  0.55215688  1  0  0.094403  0  0.933835  0  0  0.103241  0  0.995157  0  0  0.106239  0  0.991804  0  0.138298  0  0.122112  0.1009  0  0.997843  0
H  H13  1  0.58624129  0.55921449  0.44784401  1  0  0.09431  0  0.933871  0  0  0.103167  0  0.995183  0  0  0.106173  0  0.991814  0  0.138246  0  0.122068  0.100826  0  0.997871  0
H  H14  1  0.61126754  0.37667736  0.01874788  1  0  0.11684  0  0.937627  0  0  0.128131  0  1.003049  0  0  0.130416  0  1.002693  0  0.096248  0  0.104051  0.126521  0  1.003397  0
H  H15  1  0.38875239  0.62329884  0.98126577  1  0  0.117002  0  0.937482  0  0  0.128236  0  1.0029  0  0  0.13051  0  1.002553  0  0.095853  0  0.104109  0.126628  0  1.003248  0
H  H16  1  0.61672324  0.21460949  0.03561791  1  0  0.086176  0  0.944597  0  0  0.101689  0  1.00569  0  0  0.103107  0  1.00598  0  0.035512  0  0.091708  0.10063  0  1.005695  0
H  H17  1  0.38326385  0.78538746  0.96438536  1  0  0.086247  0  0.944608  0  0  0.1017  0  1.005714  0  0  0.103113  0  1.006002  0  0.035617  0  0.091724  0.100637  0  1.005726  0
H  H18  1  0.43329843  0.35720684  0.17234608  1  0  0.080613  0  0.945246  0  0  0.097453  0  1.005242  0  0  0.098355  0  1.005987  0  0.059551  0  0.091874  0.096795  0  1.004787  0
H  H19  1  0.56669404  0.64279671  0.82765301  1  0  0.080689  0  0.945178  0  0  0.097482  0  1.005215  0  0  0.098382  0  1.005962  0  0.059492  0  0.091878  0.096824  0  1.00476  0
H  H20  1  0.33120366  0.41117068  0.07865378  1  0  0.072315  0  0.922324  0  0  0.094064  0  0.976485  0  0  0.095031  0  0.976861  0  0.026897  0  0.092006  0.093408  0  0.976203  0
H  H21  1  0.66879840  0.58883193  0.92133454  1  0  0.072354  0  0.92227  0  0  0.094085  0  0.976438  0  0  0.09505  0  0.976817  0  0.027131  0  0.09201  0.093428  0  0.976158  0
H  H22  1  0.43008709  0.13751021  0.18906470  1  0  0.062087  0  0.955188  0  0  0.080254  0  1.017995  0  0  0.080799  0  1.018841  0  0.03439  0  0.085071  0.079841  0  1.017698  0
H  H23  1  0.56991290  0.86249239  0.81093947  1  0  0.062139  0  0.955248  0  0  0.080262  0  1.018101  0  0  0.080807  0  1.018951  0  0.034372  0  0.085093  0.07985  0  1.017801  0
H  H24  1  0.34508472  0.17924568  0.08426458  1  0  0.060846  0  0.954349  0  0  0.073059  0  1.024963  0  0  0.075018  0  1.02349  0  0.025313  0  0.081457  0.071626  0  1.026129  0
H  H25  1  0.65491373  0.82075504  0.91573598  1  0  0.060896  0  0.954308  0  0  0.073137  0  1.024874  0  0  0.075098  0  1.023402  0  0.025314  0  0.081499  0.071703  0  1.026037  0
H  H26  1  0.21072196  0.27084339  0.29383618  1  0  0.111714  0  0.948894  0  0  0.123948  0  1.015314  0  0  0.126814  0  1.013524  0  0.081332  0  0.100416  0.121717  0  1.016987  0
H  H27  1  0.78927445  0.72915355  0.70616423  1  0  0.111753  0  0.94889  0  0  0.123967  0  1.015348  0  0  0.126833  0  1.013558  0  0.081274  0  0.100449  0.121755  0  1.017002  0
H  H28  1  0.12995817  0.31079261  0.18844910  1  0  0.100495  0  0.935339  0  0  0.114457  0  1.000442  0  0  0.115558  0  1.001509  0  0.042392  0  0.098991  0.113556  0  1.000082  0
H  H29  1  0.87003767  0.68921000  0.81155309  1  0  0.100476  0  0.935372  0  0  0.114445  0  1.000491  0  0  0.115544  0  1.001559  0  0.042445  0  0.098979  0.11354  0  1.000135  0
H  H30  1  0.77582439  0.17257317  0.48862259  1  0  0.132348  0  0.920458  0  0  0.146775  0  0.969936  0  0  0.150379  0  0.969067  0  0.075434  0  0.118494  0.14416  0  0.970859  0
H  H31  1  0.22417797  0.82742472  0.51137479  1  0  0.132314  0  0.920533  0  0  0.146739  0  0.970018  0  0  0.150342  0  0.969149  0  0.075234  0  0.118465  0.144126  0  0.970939  0
H  H32  1  0.62214138  0.02063714  0.56342756  1  0  0.081147  0  0.965659  0  0  0.091651  0  1.029051  0  0  0.093354  0  1.027559  0  0.1226  0  0.117434  0.090431  0  1.030008  0
H  H33  1  0.37786049  0.97935886  0.43656963  1  0  0.081135  0  0.965646  0  0  0.091626  0  1.02905  0  0  0.09333  0  1.027557  0  0.122594  0  0.117403  0.0904  0  1.030011  0
H  H34  1  0.91274111  0.75707151  0.39357791  1  0  0.072943  0  0.976452  0  0  0.079295  0  1.045501  0  0  0.080447  0  1.04554  0  0.111209  0  0.111913  0.07833  0  1.04561  0
H  H35  1  0.08725999  0.24292355  0.60642405  1  0  0.072972  0  0.976417  0  0  0.079349  0  1.045444  0  0  0.080498  0  1.04549  0  0.111373  0  0.11193  0.078383  0  1.045557  0
H  H36  1  0.07883368  0.89662167  0.31069703  1  0  0.131299  0  0.991507  0  0  0.136976  0  1.054041  0  0  0.141321  0  1.051663  0  0.131659  0  0.109827  0.133928  0  1.055707  0
H  H37  1  0.92117210  0.10337150  0.68930356  1  0  0.131376  0  0.991387  0  0  0.13699  0  1.054001  0  0  0.141329  0  1.051623  0  0.131749  0  0.109838  0.133943  0  1.055667  0
H  H38  1  0.94868980  0.45889018  0.36835465  1  0  0.106917  0  0.945729  0  0  0.115835  0  1.006969  0  0  0.119784  0  1.004281  0  0.129382  0  0.105429  0.112945  0  1.009072  0
H  H39  1  0.05131130  0.54110488  0.63163707  1  0  0.106877  0  0.94567  0  0  0.115842  0  1.006875  0  0  0.119791  0  1.004192  0  0.129393  0  0.105416  0.11295  0  1.00898  0
H  H40  1  0.83588902  0.56657924  0.21676314  1  0  0.101988  0  0.968893  0  0  0.110509  0  1.03391  0  0  0.11312  0  1.033619  0  0.099974  0  0.106165  0.108719  0  1.033999  0
H  H41  1  0.16409918  0.43341016  0.78323207  1  0  0.101936  0  0.969146  0  0  0.110467  0  1.034137  0  0  0.113085  0  1.033837  0  0.099869  0  0.106116  0.108676  0  1.034228  0
H  H42  1  0.12448925  0.81044307  0.10462089  1  0  0.102002  0  0.944072  0  0  0.114061  0  1.002524  0  0  0.116931  0  1.001435  0  0.055949  0  0.107334  0.112001  0  1.003322  0
H  H43  1  0.87551411  0.18955859  0.89536442  1  0  0.102107  0  0.944042  0  0  0.11413  0  1.002501  0  0  0.117005  0  1.001414  0  0.055863  0  0.10739  0.11207  0  1.003299  0
H  H44  1  0.23391849  0.70302279  0.25687773  1  0  0.103903  0  0.960867  0  0  0.110959  0  1.02546  0  0  0.114317  0  1.024023  0  0.104201  0  0.106984  0.108686  0  1.026386  0
H  H45  1  0.76608802  0.29697509  0.74311138  1  0  0.103842  0  0.960882  0  0  0.110904  0  1.025494  0  0  0.114268  0  1.024033  0  0.103974  0  0.106971  0.108626  0  1.026421  0
H  H46  1  0.07703816  0.57560575  0.92183430  1  0  0.108687  0  0.95162  0  0  0.116624  0  1.016646  0  0  0.120303  0  1.014222  0  0.094866  0  0.107784  0.114001  0  1.01849  0
H  H47  1  0.92294152  0.42440629  0.07815554  1  0  0.108663  0  0.951556  0  0  0.116621  0  1.016567  0  0  0.120299  0  1.014144  0  0.094657  0  0.107785  0.113997  0  1.018412  0
H  H48  1  0.29074897  0.58347695  0.77042824  1  0  0.107603  0  0.964803  0  0  0.114835  0  1.030358  0  0  0.118422  0  1.027656  0  0.145195  0  0.109153  0.11228  0  1.032314  0
H  H49  1  0.70923356  0.41653603  0.22956366  1  0  0.107724  0  0.964855  0  0  0.114917  0  1.030422  0  0  0.118506  0  1.027716  0  0.145315  0  0.10919  0.112365  0  1.032375  0
H  H50  1  0.25370067  0.96582051  0.78409984  1  0  0.104385  0  0.95406  0  0  0.113677  0  1.016761  0  0  0.116737  0  1.015271  0  0.111656  0  0.106906  0.111372  0  1.018187  0
H  H51  1  0.74630704  0.03418775  0.21590276  1  0  0.104273  0  0.954233  0  0  0.113598  0  1.01688  0  0  0.116695  0  1.01535  0  0.111693  0  0.1069  0.111292  0  1.01831  0
H  H52  1  0.03565634  0.96280916  0.92947905  1  0  0.100656  0  0.974961  0  0  0.107537  0  1.043194  0  0  0.110862  0  1.040915  0  0.125441  0  0.103854  0.105142  0  1.044856  0
H  H53  1  0.96434672  0.03719722  0.07052796  1  0  0.100676  0  0.974997  0  0  0.107562  0  1.043217  0  0  0.110885  0  1.040949  0  0.125555  0  0.103883  0.10517  0  1.044871  0
C  C54  1  0.41992191  0.14953016  0.67811277  1  0  0.116816  0  3.737588  0  0  0.085308  0  3.99288  0  0  0.093062  0  4.011201  0  0.451164  0  0.034498  0.079839  0  3.981419  0
C  C55  1  0.58008690  0.85047056  0.32189128  1  0  0.117003  0  3.737747  0  0  0.08553  0  3.992993  0  0  0.093284  0  4.011309  0  0.45134  0  0.034629  0.080112  0  3.98144  0
C  C56  1  0.46406512  0.14476745  0.76550406  1  0  -0.197142  0  3.703096  0  0  -0.218951  0  3.962491  0  0  -0.227929  0  3.980728  0  -0.037082  0  -0.086472  -0.213274  0  3.950382  0
C  C57  1  0.53594358  0.85521912  0.23450322  1  0  -0.197424  0  3.703412  0  0  -0.219127  0  3.962857  0  0  -0.228103  0  3.981086  0  -0.035932  0  -0.086554  -0.213459  0  3.95076  0
C  C58  1  0.49094976  0.25260647  0.77857626  1  0  0.317389  0  3.76556  0  0  0.302845  0  4.020964  0  0  0.317251  0  4.037679  0  0.395594  0  0.124475  0.293386  0  4.009252  0
C  C59  1  0.50906124  0.74738294  0.22143571  1  0  0.317659  0  3.765399  0  0  0.303036  0  4.020985  0  0  0.317448  0  4.037695  0  0.395496  0  0.124513  0.29357  0  4.009286  0
C  C60  1  0.47486991  0.36161871  0.69965350  1  0  -0.207675  0  3.660693  0  0  -0.225881  0  3.914232  0  0  -0.235439  0  3.931761  0  0.000945  0  -0.084557  -0.219551  0  3.902199  0
C  C61  1  0.52513952  0.63837258  0.30035987  1  0  -0.207753  0  3.660437  0  0  -0.22601  0  3.914114  0  0  -0.235567  0  3.93164  0  0.000324  0  -0.084607  -0.219684  0  3.902097  0
C  C62  1  0.43032894  0.35799340  0.61431199  1  0  0.15114  0  3.68844  0  0  0.120188  0  3.937272  0  0  0.129144  0  3.954347  0  0.438887  0  0.050564  0.114277  0  3.925685  0
C  C63  1  0.56968318  0.64201392  0.38569420  1  0  0.151237  0  3.688273  0  0  0.120295  0  3.93713  0  0  0.129249  0  3.954206  0  0.439348  0  0.050658  0.114379  0  3.925555  0
C  C64  1  0.51546535  0.34519633  0.91480627  1  0  0.606006  0  3.74865  0  0  0.563582  0  4.043474  0  0  0.591541  0  4.043158  0  1.363334  0  0.251594  0.544617  0  4.04345  0
C  C65  1  0.48453118  0.65481476  0.08519897  1  0  0.606147  0  3.748444  0  0  0.563676  0  4.043295  0  0  0.591638  0  4.042973  0  1.362809  0  0.251639  0.544694  0  4.043302  0
C  C66  1  0.55006847  0.31149051  0.02041866  1  0  -0.269374  0  3.677451  0  0  -0.313619  0  3.936808  0  0  -0.318924  0  3.946051  0  -0.056186  0  -0.164795  -0.309985  0  3.930489  0
C  C67  1  0.44992534  0.68850833  0.97959290  1  0  -0.269735  0  3.677736  0  0  -0.31377  0  3.936869  0  0  -0.319053  0  3.946075  0  -0.055759  0  -0.164853  -0.310138  0  3.930578  0
C  C68  1  0.41161223  0.33018107  0.10870240  1  0  -0.081027  0  3.644499  0  0  -0.120486  0  3.903347  0  0  -0.120933  0  3.91632  0  0.007428  0  -0.163223  -0.119984  0  3.89431  0
C  C69  1  0.58837847  0.66981776  0.89130182  1  0  -0.081064  0  3.644476  0  0  -0.120471  0  3.90314  0  0  -0.120926  0  3.916117  0  0.0075  0  -0.163243  -0.119971  0  3.894109  0
C  C70  1  0.35410961  0.21282701  0.14961258  1  0  -0.090466  0  3.720693  0  0  -0.132399  0  3.983785  0  0  -0.132785  0  3.997323  0  -0.01259  0  -0.174991  -0.132075  0  3.974569  0
C  C71  1  0.64588573  0.78717371  0.85038869  1  0  -0.090543  0  3.720804  0  0  -0.132474  0  3.983884  0  0  -0.132853  0  3.997399  0  -0.012782  0  -0.174998  -0.132148  0  3.974665  0
C  C72  1  0.20828044  0.23593416  0.22668621  1  0  -0.267253  0  3.693493  0  0  -0.306069  0  3.94353  0  0  -0.311516  0  3.953549  0  -0.044633  0  -0.164837  -0.302182  0  3.936878  0
C  C73  1  0.79171233  0.76406467  0.77331534  1  0  -0.267274  0  3.693469  0  0  -0.306109  0  3.943544  0  0  -0.311553  0  3.953561  0  -0.044548  0  -0.164906  -0.302234  0  3.936879  0
C  C74  1  0.15163612  0.11931950  0.26604220  1  0  0.605362  0  3.729438  0  0  0.563119  0  4.02306  0  0  0.590602  0  4.02363  0  1.37288  0  0.24921  0.544525  0  4.022147  0
C  C75  1  0.84836049  0.88068405  0.73395008  1  0  0.605424  0  3.728972  0  0  0.563195  0  4.022598  0  0  0.590676  0  4.023153  0  1.372601  0  0.249305  0.544601  0  4.021694  0
C  C76  1  0.94051498  0.04774214  0.39071279  1  0  0.314118  0  3.797537  0  0  0.300139  0  4.052429  0  0  0.314693  0  4.070969  0  0.384557  0  0.1207  0.290673  0  4.039598  0
C  C77  1  0.05948612  0.95225292  0.60928113  1  0  0.314028  0  3.79759  0  0  0.300174  0  4.052313  0  0  0.314721  0  4.070851  0  0.384086  0  0.120737  0.290711  0  4.039484  0
C  C78  1  0.81037551  0.08141872  0.46477854  1  0  -0.227163  0  3.682839  0  0  -0.246837  0  3.943209  0  0  -0.257835  0  3.962604  0  0.043787  0  -0.090902  -0.240126  0  3.930579  0
C  C79  1  0.18963100  0.91857917  0.53521423  1  0  -0.227123  0  3.682933  0  0  -0.24683  0  3.943249  0  0  -0.257828  0  3.962645  0  0.044682  0  -0.09087  -0.240121  0  3.930622  0
C  C80  1  0.72377463  0.99774008  0.50657974  1  0  0.158893  0  3.704532  0  0  0.122324  0  3.962479  0  0  0.132441  0  3.979734  0  0.461372  0  0.04623  0.115814  0  3.950712  0
C  C81  1  0.27622873  0.00226158  0.49341436  1  0  0.158914  0  3.704622  0  0  0.122366  0  3.962547  0  0  0.132485  0  3.979803  0  0.461241  0  0.046285  0.115858  0  3.950783  0
C  C82  1  0.88558005  0.85054413  0.41175763  1  0  0.140847  0  3.72717  0  0  0.110063  0  3.97696  0  0  0.119407  0  3.995273  0  0.448701  0  0.041035  0.104101  0  3.964382  0
C  C83  1  0.11442128  0.14945376  0.58823925  1  0  0.140734  0  3.727375  0  0  0.109935  0  3.977136  0  0  0.119276  0  3.995457  0  0.44871  0  0.040999  0.103977  0  3.96455  0
C  C84  1  0.97880350  0.92741800  0.36590929  1  0  -0.225338  0  3.705077  0  0  -0.242662  0  3.95511  0  0  -0.254021  0  3.975299  0  0.025253  0  -0.09551  -0.235242  0  3.94143  0
C  C85  1  0.02119967  0.07257706  0.63408634  1  0  -0.225382  0  3.704906  0  0  -0.242693  0  3.954952  0  0  -0.254044  0  3.97514  0  0.025289  0  -0.095555  -0.235274  0  3.94127  0
C  C86  1  0.17974209  0.50188847  0.40410424  1  0  0.652896  0  3.913591  0  0  0.603325  0  4.210064  0  0  0.636871  0  4.202276  0  1.576775  0  0.205034  0.580407  0  4.214637  0
C  C87  1  0.82024416  0.49811508  0.59589261  1  0  0.652873  0  3.913085  0  0  0.603284  0  4.209682  0  0  0.636835  0  4.201897  0  1.576645  0  0.205058  0.580345  0  4.214249  0
C  C88  1  0.10167758  0.57196063  0.31910834  1  0  -0.031886  0  3.70039  0  0  -0.009139  0  3.928441  0  0  -0.012769  0  3.946974  0  -0.05185  0  -0.002913  -0.006811  0  3.916078  0
C  C89  1  0.89832643  0.42802783  0.68089299  1  0  -0.031739  0  3.699926  0  0  -0.009117  0  3.928207  0  0  -0.012766  0  3.946768  0  -0.051857  0  -0.002834  -0.006688  0  3.915706  0
C  C90  1  0.98793432  0.53442860  0.30923645  1  0  -0.064779  0  3.705528  0  0  -0.086904  0  3.955728  0  0  -0.088063  0  3.973914  0  -0.017261  0  -0.078576  -0.086241  0  3.943591  0
C  C91  1  0.01206467  0.46557023  0.69076148  1  0  -0.064752  0  3.705344  0  0  -0.086887  0  3.955609  0  0  -0.088043  0  3.973804  0  -0.017385  0  -0.078534  -0.086258  0  3.943445  0
C  C92  1  0.92414423  0.59466507  0.22572047  1  0  -0.073456  0  3.756967  0  0  -0.097245  0  4.006561  0  0  -0.09774  0  4.027946  0  -0.021446  0  -0.085304  -0.096628  0  3.991784  0
C  C93  1  0.07585295  0.40533282  0.77427516  1  0  -0.073413  0  3.757128  0  0  -0.097217  0  4.006704  0  0  -0.097714  0  4.028077  0  -0.021477  0  -0.08527  -0.096596  0  3.991927  0
C  C94  1  0.97524743  0.69247222  0.15192940  1  0  -0.112451  0  3.757978  0  0  -0.087871  0  4.004885  0  0  -0.093784  0  4.028226  0  -0.246563  0  -0.023673  -0.083908  0  3.989273  0
C  C95  1  0.02474826  0.30752001  0.84805687  1  0  -0.112329  0  3.757802  0  0  -0.087725  0  4.004627  0  0  -0.093636  0  4.027975  0  -0.246041  0  -0.023653  -0.083763  0  3.989011  0
C  C96  1  0.08593104  0.73347960  0.16214780  1  0  -0.071694  0  3.745142  0  0  -0.093623  0  3.992515  0  0  -0.094138  0  4.013251  0  0.006384  0  -0.083457  -0.093382  0  3.978585  0
C  C97  1  0.91407347  0.26651074  0.83784494  1  0  -0.0718  0  3.745362  0  0  -0.093678  0  3.992674  0  0  -0.094206  0  4.013417  0  0.00718  0  -0.083516  -0.093437  0  3.978752  0
C  C98  1  0.14789023  0.67317901  0.24647877  1  0  -0.069188  0  3.712622  0  0  -0.088442  0  3.957208  0  0  -0.089733  0  3.976107  0  -0.012319  0  -0.078051  -0.087371  0  3.944284  0
C  C99  1  0.85211559  0.32681039  0.75351974  1  0  -0.069202  0  3.71267  0  0  -0.088443  0  3.957314  0  0  -0.089723  0  3.976224  0  -0.013028  0  -0.078088  -0.0874  0  3.944363  0
C  C100  1  0.04457502  0.76929139  0.93383247  1  0  -0.107704  0  3.759097  0  0  -0.083644  0  4.006087  0  0  -0.089621  0  4.030153  0  -0.142337  0  -0.019438  -0.079519  0  3.990042  0
C  C101  1  0.95540113  0.23071121  0.06617202  1  0  -0.107427  0  3.758887  0  0  -0.083589  0  4.006183  0  0  -0.089572  0  4.030269  0  -0.142363  0  -0.019377  -0.079462  0  3.990134  0
C  C102  1  0.11417897  0.66162119  0.88997920  1  0  -0.07275  0  3.731417  0  0  -0.097293  0  3.984462  0  0  -0.098271  0  4.003922  0  -0.098066  0  -0.080619  -0.096657  0  3.971702  0
C  C103  1  0.88580955  0.33838896  0.11001270  1  0  -0.072818  0  3.731479  0  0  -0.097329  0  3.984599  0  0  -0.098305  0  4.00406  0  -0.098285  0  -0.080704  -0.096695  0  3.971844  0
C  C104  1  0.23318895  0.66588499  0.80557368  1  0  -0.040729  0  3.675178  0  0  -0.066219  0  3.92559  0  0  -0.065193  0  3.94263  0  -0.015934  0  -0.071856  -0.066933  0  3.914288  0
C  C105  1  0.76680264  0.33412893  0.19441887  1  0  -0.040895  0  3.675171  0  0  -0.066339  0  3.925554  0  0  -0.065312  0  3.942591  0  -0.016013  0  -0.071888  -0.067057  0  3.914258  0
C  C106  1  0.28506034  0.77462185  0.76778788  1  0  -0.043082  0  3.717285  0  0  -0.019294  0  3.946552  0  0  -0.025365  0  3.967435  0  -0.055626  0  -0.006352  -0.015433  0  3.932725  0
C  C107  1  0.71493827  0.22538924  0.23220662  1  0  -0.043091  0  3.716903  0  0  -0.019309  0  3.946162  0  0  -0.025387  0  3.967059  0  -0.055431  0  -0.006362  -0.015447  0  3.932334  0
C  C108  1  0.21386526  0.88131593  0.81300486  1  0  -0.054553  0  3.702035  0  0  -0.076994  0  3.947609  0  0  -0.077218  0  3.967063  0  0.019394  0  -0.075372  -0.076733  0  3.934663  0
C  C109  1  0.78613392  0.11868950  0.18699373  1  0  -0.054485  0  3.702138  0  0  -0.076929  0  3.94768  0  0  -0.077176  0  3.967116  0  0.019403  0  -0.075388  -0.076668  0  3.934737  0
C  C110  1  0.09222648  0.87960324  0.89522230  1  0  -0.070213  0  3.746548  0  0  -0.094309  0  3.997563  0  0  -0.094969  0  4.017332  0  -0.070487  0  -0.083534  -0.093605  0  3.983789  0
C  C111  1  0.90776963  0.12039842  0.10477712  1  0  -0.070245  0  3.746708  0  0  -0.094289  0  3.997789  0  0  -0.094954  0  4.017563  0  -0.070351  0  -0.083541  -0.093588  0  3.98402  0
C  C112  1  0.41795542  0.77547914  0.68078317  1  0  0.614656  0  3.94406  0  0  0.56555  0  4.234937  0  0  0.599322  0  4.229584  0  1.549301  0  0.195368  0.54262  0  4.237896  0
C  C113  1  0.58203182  0.22452818  0.31922723  1  0  0.614727  0  3.943734  0  0  0.565605  0  4.234645  0  0  0.599381  0  4.229293  0  1.54907  0  0.195336  0.542676  0  4.237599  0
S  S114  1  0.89499756  0.76484840  0.04377939  1  0  1.058216  0  5.235451  0  0  0.986697  0  5.724123  0  0  1.026396  0  5.711493  0  2.470736  0  0.471728  0.95866  0  5.733446  0
S  S115  1  0.10499433  0.23516081  0.95622148  1  0  1.058094  0  5.234529  0  0  0.986631  0  5.723241  0  0  1.02633  0  5.710618  0  2.47047  0  0.471739  0.958597  0  5.732561  0
N  N116  1  0.40244253  0.25462661  0.60304242  1  0  -0.362104  0  3.341698  0  0  -0.278755  0  3.625203  0  0  -0.300613  0  3.6413  0  -1.282492  0  -0.346554  -0.263977  0  3.613944  0
N  N117  1  0.59756749  0.74538448  0.39696340  1  0  -0.362203  0  3.341918  0  0  -0.278835  0  3.625405  0  0  -0.300692  0  3.641499  0  -1.283068  0  -0.346649  -0.264071  0  3.614164  0
N  N118  1  0.53261596  0.24499368  0.86855055  1  0  -0.451402  0  3.301439  0  0  -0.399222  0  3.542832  0  0  -0.42109  0  3.54899  0  -1.224353  0  -0.39295  -0.384171  0  3.538218  0
N  N119  1  0.46739988  0.75500421  0.13145912  1  0  -0.451437  0  3.301434  0  0  -0.399283  0  3.542917  0  0  -0.421165  0  3.549083  0  -1.224581  0  -0.392992  -0.384225  0  3.538313  0
N  N120  1  0.02480976  0.13282107  0.34470098  1  0  -0.45909  0  3.305911  0  0  -0.405636  0  3.547962  0  0  -0.428844  0  3.557641  0  -1.245318  0  -0.39213  -0.389664  0  3.540821  0
N  N121  1  0.97518922  0.86717776  0.65529329  1  0  -0.459119  0  3.305848  0  0  -0.405734  0  3.547944  0  0  -0.428919  0  3.557597  0  -1.245323  0  -0.392208  -0.389774  0  3.540814  0
N  N122  1  0.75885746  0.88403303  0.48026727  1  0  -0.353338  0  3.301401  0  0  -0.271448  0  3.580339  0  0  -0.293052  0  3.594992  0  -1.271174  0  -0.341902  -0.256967  0  3.570144  0
N  N123  1  0.24113973  0.11596486  0.51972983  1  0  -0.353246  0  3.30176  0  0  -0.271359  0  3.580706  0  0  -0.292963  0  3.595361  0  -1.271497  0  -0.341893  -0.256871  0  3.570496  0
O  O124  1  0.47089000  0.45521676  0.87298708  1  0  -0.519579  0  1.95275  0  0  -0.470387  0  2.170346  0  0  -0.492226  0  2.16811  0  -1.141924  0  -0.26683  -0.455432  0  2.171641  0
O  O125  1  0.52912342  0.54478962  0.12701244  1  0  -0.519678  0  1.952427  0  0  -0.470495  0  2.17009  0  0  -0.492337  0  2.167856  0  -1.141743  0  -0.266913  -0.45553  0  2.171393  0
O  O126  1  0.21066767  0.02147179  0.23129216  1  0  -0.519885  0  1.905035  0  0  -0.47537  0  2.114188  0  0  -0.495044  0  2.110217  0  -1.141749  0  -0.280883  -0.461845  0  2.11654  0
O  O127  1  0.78932970  0.97853270  0.76869973  1  0  -0.51999  0  1.904874  0  0  -0.475436  0  2.114026  0  0  -0.495113  0  2.110052  0  -1.141364  0  -0.280946  -0.461911  0  2.116379  0
O  O128  1  0.23007665  0.55885139  0.44408876  1  0  -0.605668  0  1.866052  0  0  -0.566708  0  2.078927  0  0  -0.588073  0  2.070419  0  -1.167235  0  -0.328212  -0.551595  0  2.084203  0
O  O129  1  0.76991558  0.44114933  0.55590663  1  0  -0.605672  0  1.866039  0  0  -0.566661  0  2.078915  0  0  -0.588025  0  2.070403  0  -1.166779  0  -0.328197  -0.551552  0  2.084188  0
O  O130  1  0.18905199  0.38136839  0.42567353  1  0  -0.672133  0  2.074664  0  0  -0.598551  0  2.355131  0  0  -0.628468  0  2.340173  0  -1.169573  0  -0.341611  -0.577052  0  2.364534  0
O  O131  1  0.81093161  0.61864082  0.57433875  1  0  -0.672166  0  2.074601  0  0  -0.598594  0  2.355141  0  0  -0.628528  0  2.340214  0  -1.169638  0  -0.34165  -0.57706  0  2.364465  0
O  O132  1  0.81961846  0.67931866  0.03616232  1  0  -0.569234  0  1.936883  0  0  -0.518831  0  2.175202  0  0  -0.538897  0  2.166542  0  -1.298786  0  -0.305631  -0.504611  0  2.180898  0
O  O133  1  0.18037477  0.32068583  0.96383125  1  0  -0.569172  0  1.937038  0  0  -0.518719  0  2.175287  0  0  -0.538786  0  2.166635  0  -1.298794  0  -0.305603  -0.504516  0  2.181013  0
O  O134  1  0.81792636  0.89435066  0.05287388  1  0  -0.585769  0  1.922682  0  0  -0.543747  0  2.164106  0  0  -0.563714  0  2.154444  0  -1.30961  0  -0.320992  -0.529418  0  2.170377  0
O  O135  1  0.18206671  0.10564346  0.94712501  1  0  -0.585962  0  1.922126  0  0  -0.543944  0  2.163559  0  0  -0.563904  0  2.153877  0  -1.309486  0  -0.321082  -0.529609  0  2.169828  0
O  O136  1  0.47407166  0.67964120  0.63604005  1  0  -0.611726  0  1.979503  0  0  -0.544516  0  2.22845  0  0  -0.573065  0  2.217979  0  -1.160254  0  -0.315919  -0.524519  0  2.234985  0
O  O137  1  0.52591989  0.32037649  0.36395897  1  0  -0.611784  0  1.979395  0  0  -0.54456  0  2.228354  0  0  -0.573112  0  2.217883  0  -1.160067  0  -0.315914  -0.524565  0  2.234887  0
O  O138  1  0.47290127  0.86915358  0.65316097  1  0  -0.630825  0  1.955286  0  0  -0.57084  0  2.194047  0  0  -0.597026  0  2.185152  0  -1.179323  0  -0.316814  -0.552351  0  2.199649  0
O  O139  1  0.52709303  0.13084714  0.34684419  1  0  -0.630787  0  1.955164  0  0  -0.570789  0  2.193925  0  0  -0.596967  0  2.185014  0  -1.179298  0  -0.316737  -0.552301  0  2.199525  0
