# generated using pymatgen
data_AgH6C8N3
_symmetry_space_group_name_H-M   'P 1'
_cell_length_a   4.70090470
_cell_length_b   17.00836198
_cell_length_c   21.30094629
_cell_angle_alpha   90.00038932
_cell_angle_beta   90.00155239
_cell_angle_gamma   100.75455883
_symmetry_Int_Tables_number   1
_chemical_formula_structural   AgH6C8N3
_chemical_formula_sum   'Ag8 H48 C64 N24'
_cell_volume   1673.19633521
_cell_formula_units_Z   8
loop_
 _symmetry_equiv_pos_site_id
 _symmetry_equiv_pos_as_xyz
  1  'x, y, z'
loop_
 _atom_site_type_symbol
 _atom_site_label
 _atom_site_symmetry_multiplicity
 _atom_site_fract_x
 _atom_site_fract_y
 _atom_site_fract_z
 _atom_site_occupancy
 _atom_site_pbe_bader_charge
 _atom_site_pbe_bader_spin_density
 _atom_site_pbe_cm5_charge
 _atom_site_pbe_ddec_charge
 _atom_site_pbe_ddec_spin_density
 _atom_site_pbe_ddec_sum_bond_order
 _atom_site_pbe_magmom
Ag  Ag0  1  0.70689667  0.45338423  0.47146562  1  0.465108  0  0.433172  0.186456  0  2.444227  0
Ag  Ag1  1  0.29313524  0.04662564  0.97146309  1  0.46565  0  0.433248  0.186549  0  2.444359  0
Ag  Ag2  1  0.29310600  0.54661937  0.52853795  1  0.465601  0  0.433168  0.186509  0  2.444179  0
Ag  Ag3  1  0.70692096  0.95338774  0.02853580  1  0.465049  0  0.433156  0.186381  0  2.444378  0
Ag  Ag4  1  0.14418416  0.37349222  0.40831431  1  0.520772  0  0.444928  0.224678  0  2.238718  0
Ag  Ag5  1  0.85583912  0.12651993  0.90832001  1  0.520791  0  0.44497  0.224857  0  2.238272  0
Ag  Ag6  1  0.85582577  0.62651328  0.59168833  1  0.520771  0  0.444931  0.224734  0  2.238616  0
Ag  Ag7  1  0.14422208  0.87348583  0.09168169  1  0.52082  0  0.444939  0.224726  0  2.238467  0
H  H8  1  0.99982911  0.19709474  0.50105828  1  0.078661  0  0.117905  0.110501  0  0.996409  0
H  H9  1  0.00013445  0.30293547  0.00107045  1  0.078671  0  0.117869  0.110482  0  0.996116  0
H  H10  1  0.00014195  0.80291426  0.49894295  1  0.078658  0  0.117899  0.110521  0  0.996314  0
H  H11  1  0.99992429  0.69708803  0.99892985  1  0.079158  0  0.117915  0.110572  0  0.99635  0
H  H12  1  0.78560627  0.32346164  0.58999551  1  0.110874  0  0.112364  0.103615  0  1.052382  0
H  H13  1  0.21439618  0.17653204  0.08999855  1  0.11093  0  0.112384  0.103626  0  1.0524  0
H  H14  1  0.21441262  0.67653097  0.40999915  1  0.110899  0  0.112371  0.103574  0  1.052435  0
H  H15  1  0.78566744  0.82347436  0.90999939  1  0.110683  0  0.112428  0.103732  0  1.052106  0
H  H16  1  0.16972928  0.96007891  0.62115012  1  0.069844  0  0.102469  0.068  0  1.016318  0
H  H17  1  0.83000131  0.53993590  0.12115953  1  0.069848  0  0.102538  0.068004  0  1.016499  0
H  H18  1  0.83018527  0.03991847  0.37884970  1  0.070276  0  0.102513  0.068097  0  1.016334  0
H  H19  1  0.16987141  0.46008628  0.87882480  1  0.070488  0  0.10256  0.068133  0  1.016433  0
H  H20  1  0.08516454  0.07367797  0.55562526  1  0.050705  0  0.102153  0.111184  0  1.001651  0
H  H21  1  0.91474774  0.42634119  0.05564509  1  0.051143  0  0.10212  0.111248  0  1.001362  0
H  H22  1  0.91483460  0.92632261  0.44436611  1  0.050945  0  0.102154  0.111216  0  1.001461  0
H  H23  1  0.08523860  0.57368704  0.94435004  1  0.05117  0  0.102041  0.11116  0  1.001401  0
H  H24  1  0.76977179  0.22318699  0.66036193  1  0.045484  0  0.097928  0.103919  0  1.048752  0
H  H25  1  0.23017070  0.27680274  0.16036438  1  0.0452  0  0.097913  0.103799  0  1.049  0
H  H26  1  0.23019743  0.77680420  0.33963743  1  0.045224  0  0.09787  0.103783  0  1.048725  0
H  H27  1  0.76988781  0.72320179  0.83963404  1  0.044882  0  0.097904  0.103845  0  1.049068  0
H  H28  1  0.82522201  0.10374818  0.72055302  1  0.055001  0  0.102986  0.064064  0  1.027406  0
H  H29  1  0.17460327  0.39623477  0.22054963  1  0.05707  0  0.10295  0.064016  0  1.02755  0
H  H30  1  0.17469975  0.89624637  0.27945338  1  0.055278  0  0.103057  0.064196  0  1.027548  0
H  H31  1  0.82533767  0.60376898  0.77944127  1  0.054744  0  0.102975  0.064003  0  1.027536  0
H  H32  1  0.68021752  0.61458236  0.37591441  1  0.12868  0  0.113629  0.103895  0  1.060048  0
H  H33  1  0.31977174  0.88541938  0.87591721  1  0.128685  0  0.113628  0.103896  0  1.05982  0
H  H34  1  0.31972593  0.38540840  0.62407978  1  0.128188  0  0.113678  0.103964  0  1.05998  0
H  H35  1  0.68025906  0.11458054  0.12409435  1  0.129062  0  0.113641  0.103843  0  1.059875  0
H  H36  1  0.31523411  0.50561573  0.27658292  1  0.113203  0  0.116558  0.108056  0  1.049033  0
H  H37  1  0.68469359  0.99437465  0.77658710  1  0.113231  0  0.11658  0.108145  0  1.048844  0
H  H38  1  0.68471413  0.49437155  0.72341643  1  0.113298  0  0.116575  0.108117  0  1.048974  0
H  H39  1  0.31530245  0.00561461  0.22342117  1  0.112959  0  0.11647  0.108062  0  1.048873  0
H  H40  1  0.74452499  0.81120431  0.21488027  1  0.081887  0  0.111057  0.080076  0  0.994011  0
H  H41  1  0.25552321  0.68880475  0.71488725  1  0.081682  0  0.111015  0.080124  0  0.993976  0
H  H42  1  0.25546973  0.18878671  0.78511579  1  0.081722  0  0.111048  0.080058  0  0.994072  0
H  H43  1  0.74457257  0.31119744  0.28512478  1  0.082288  0  0.111114  0.08007  0  0.993916  0
H  H44  1  0.70498154  0.70946470  0.29872907  1  0.055478  0  0.103729  0.111868  0  1.020277  0
H  H45  1  0.29510643  0.79055641  0.79872818  1  0.055189  0  0.103632  0.111774  0  1.020271  0
H  H46  1  0.29498140  0.29051749  0.70126183  1  0.055167  0  0.103653  0.111717  0  1.020402  0
H  H47  1  0.70498991  0.20944698  0.20128056  1  0.054953  0  0.103671  0.111796  0  1.020401  0
H  H48  1  0.29829299  0.59440839  0.19211647  1  0.13312  0  0.102454  0.109506  0  1.054349  0
H  H49  1  0.70163088  0.90556935  0.69211881  1  0.132385  0  0.102415  0.10948  0  1.054415  0
H  H50  1  0.70163470  0.40556669  0.80787115  1  0.132597  0  0.102471  0.109613  0  1.05411  0
H  H51  1  0.29840701  0.09441824  0.30789041  1  0.132595  0  0.102383  0.109371  0  1.054372  0
H  H52  1  0.30843142  0.70122648  0.11196926  1  0.081114  0  0.107411  0.076499  0  1.003524  0
H  H53  1  0.69152923  0.79874763  0.61197830  1  0.080883  0  0.107537  0.076585  0  1.00365  0
H  H54  1  0.69157889  0.29876598  0.88802775  1  0.08091  0  0.107479  0.076553  0  1.00352  0
H  H55  1  0.30854385  0.20124233  0.38803373  1  0.081571  0  0.107445  0.076472  0  1.003828  0
C  C56  1  0.19112892  0.23856641  0.51665669  1  0.417285  0  0.007837  -0.052155  0  3.976495  0
C  C57  1  0.80884117  0.26144389  0.01666783  1  0.418009  0  0.007875  -0.052096  0  3.976515  0
C  C58  1  0.80885441  0.76143687  0.48334314  1  0.417671  0  0.007825  -0.052181  0  3.976499  0
C  C59  1  0.19120941  0.73857118  0.98333387  1  0.417325  0  0.007753  -0.05246  0  3.976742  0
C  C60  1  0.39735202  0.22920507  0.56300863  1  -0.01895  0  -0.045128  -0.074413  0  4.096956  0
C  C61  1  0.60262734  0.27080163  0.06301881  1  -0.02046  0  -0.045215  -0.074778  0  4.097273  0
C  C62  1  0.60265190  0.77079203  0.43698509  1  -0.019614  0  -0.045122  -0.074437  0  4.097077  0
C  C63  1  0.39740821  0.72921319  0.93698007  1  -0.020864  0  -0.045168  -0.074237  0  4.096818  0
C  C64  1  0.59011850  0.30341660  0.56295581  1  0.407046  0  0.005459  -0.053057  0  3.97146  0
C  C65  1  0.40990789  0.19659503  0.06296366  1  0.407019  0  0.005621  -0.052711  0  3.971302  0
C  C66  1  0.40989373  0.69658004  0.43704167  1  0.407176  0  0.005514  -0.052924  0  3.97146  0
C  C67  1  0.59014908  0.80341540  0.93703663  1  0.406822  0  0.005447  -0.053185  0  3.971167  0
C  C68  1  0.30107997  0.01955353  0.62832147  1  0.429414  0  0.032295  0.088371  0  4.030473  0
C  C69  1  0.69875550  0.48045725  0.12833585  1  0.429671  0  0.032271  0.088615  0  4.030298  0
C  C70  1  0.69888211  0.98044524  0.37167741  1  0.428597  0  0.032291  0.088341  0  4.030616  0
C  C71  1  0.30117515  0.51956115  0.87165552  1  0.429483  0  0.032274  0.088222  0  4.030122  0
C  C72  1  0.25362884  0.08351851  0.59149962  1  0.002454  0  -0.097742  -0.19967  0  3.974755  0
C  C73  1  0.74625202  0.41648857  0.09151543  1  0.001208  0  -0.097795  -0.200059  0  3.974529  0
C  C74  1  0.74633885  0.91647858  0.40849598  1  0.002314  0  -0.097709  -0.199719  0  3.974495  0
C  C75  1  0.25373073  0.58353189  0.90847782  1  0.001479  0  -0.097643  -0.199502  0  3.974297  0
C  C76  1  0.42351138  0.15995229  0.60107256  1  -0.01037  0  0.004307  0.12741  0  4.050387  0
C  C77  1  0.57640503  0.34004302  0.10108202  1  -0.008817  0  0.004321  0.127741  0  4.049552  0
C  C78  1  0.57645306  0.84004238  0.39892398  1  -0.010009  0  0.0043  0.127425  0  4.050408  0
C  C79  1  0.42360876  0.65997084  0.89891123  1  -0.008092  0  0.004236  0.127233  0  4.049659  0
C  C80  1  0.63081025  0.16614268  0.64941978  1  0.001093  0  -0.098538  -0.195788  0  3.962548  0
C  C81  1  0.36908438  0.33384615  0.14943238  1  0.001681  0  -0.098597  -0.195726  0  3.961922  0
C  C82  1  0.36914290  0.83385061  0.35057911  1  0.001385  0  -0.098466  -0.195591  0  3.962529  0
C  C83  1  0.63094169  0.66616199  0.85056228  1  0.001927  0  -0.098546  -0.19576  0  3.961854  0
C  C84  1  0.66152138  0.09868905  0.68354213  1  0.489686  0  0.031147  0.083302  0  4.036066  0
C  C85  1  0.33829625  0.40129998  0.18354879  1  0.486974  0  0.031458  0.083597  0  4.035555  0
C  C86  1  0.33841271  0.90130452  0.31645817  1  0.48885  0  0.031063  0.083038  0  4.036265  0
C  C87  1  0.66165708  0.59870754  0.81644071  1  0.488696  0  0.031268  0.083525  0  4.035628  0
C  C88  1  0.83480113  0.57928329  0.35949604  1  0.39125  0  0.008248  -0.045079  0  3.967256  0
C  C89  1  0.16516496  0.92072089  0.85949525  1  0.391315  0  0.008324  -0.04505  0  3.967439  0
C  C90  1  0.16514045  0.42070803  0.64049533  1  0.392088  0  0.008291  -0.045197  0  3.967274  0
C  C91  1  0.83485648  0.07928184  0.14050692  1  0.391003  0  0.00828  -0.045054  0  3.966818  0
C  C92  1  0.99776843  0.58452244  0.30365941  1  0.005887  0  -0.042816  -0.070263  0  4.08038  0
C  C93  1  0.00222315  0.91547398  0.80366267  1  0.004855  0  -0.042818  -0.070136  0  4.080338  0
C  C94  1  0.00215399  0.41545967  0.69633149  1  0.005381  0  -0.042697  -0.070079  0  4.080143  0
C  C95  1  0.99783661  0.08452405  0.19634983  1  0.006024  0  -0.042908  -0.070305  0  4.079997  0
C  C96  1  0.15679112  0.52195622  0.30884698  1  0.434459  0  0.013731  -0.03455  0  3.936535  0
C  C97  1  0.84317074  0.97804449  0.80885069  1  0.434926  0  0.013721  -0.034704  0  3.936094  0
C  C98  1  0.84313994  0.47803077  0.69115190  1  0.43425  0  0.013635  -0.034676  0  3.936225  0
C  C99  1  0.15685279  0.02195353  0.19115899  1  0.43432  0  0.013802  -0.034576  0  3.936086  0
C  C100  1  0.86453820  0.76223392  0.21137520  1  0.479438  0  0.032832  0.079626  0  4.013813  0
C  C101  1  0.13550358  0.73777085  0.71137901  1  0.479511  0  0.033012  0.079695  0  4.013657  0
C  C102  1  0.13545278  0.23775823  0.78862227  1  0.479979  0  0.032902  0.07961  0  4.014266  0
C  C103  1  0.86459539  0.26222902  0.28863067  1  0.478089  0  0.032684  0.079574  0  4.013675  0
C  C104  1  0.84364872  0.70507536  0.25839067  1  -0.034452  0  -0.091174  -0.184249  0  3.952336  0
C  C105  1  0.15638987  0.79493568  0.75838942  1  -0.03338  0  -0.091144  -0.184138  0  3.952155  0
C  C106  1  0.15630271  0.29490960  0.74160165  1  -0.033945  0  -0.091124  -0.184074  0  3.952575  0
C  C107  1  0.84369759  0.20506696  0.24161932  1  -0.032579  0  -0.091067  -0.184168  0  3.952166  0
C  C108  1  0.00294203  0.64279104  0.25387914  1  0.005005  0  0.013069  0.137379  0  4.019622  0
C  C109  1  0.99703799  0.85721366  0.75388257  1  0.004667  0  0.013135  0.137286  0  4.019269  0
C  C110  1  0.99698627  0.35718998  0.74611082  1  0.004397  0  0.013159  0.13745  0  4.019458  0
C  C111  1  0.00302100  0.14278733  0.24612946  1  0.004813  0  0.012978  0.137098  0  4.019386  0
C  C112  1  0.17116797  0.64138457  0.19923542  1  -0.06483  0  -0.089717  -0.180762  0  3.938289  0
C  C113  1  0.82879867  0.85861114  0.69923537  1  -0.063973  0  -0.089663  -0.180602  0  3.937929  0
C  C114  1  0.82878402  0.35860159  0.80075783  1  -0.063916  0  -0.089856  -0.181059  0  3.937941  0
C  C115  1  0.17126242  0.14138514  0.30077619  1  -0.064797  0  -0.089365  -0.180011  0  3.937671  0
C  C116  1  0.17709939  0.70087745  0.15437238  1  0.45937  0  0.029202  0.075825  0  3.997263  0
C  C117  1  0.82285760  0.79910705  0.65437704  1  0.459061  0  0.029066  0.075739  0  3.997339  0
C  C118  1  0.82288106  0.29911037  0.84562416  1  0.45908  0  0.029154  0.075823  0  3.997071  0
C  C119  1  0.17720987  0.20088459  0.34563545  1  0.458745  0  0.028939  0.075331  0  3.997604  0
N  N120  1  0.50299096  0.35221653  0.52064523  1  -0.743744  0  -0.305319  -0.118752  0  3.620828  0
N  N121  1  0.49704670  0.14779197  0.02064373  1  -0.744212  0  -0.305438  -0.119095  0  3.62055  0
N  N122  1  0.49701517  0.64778535  0.47935788  1  -0.744549  0  -0.305429  -0.118891  0  3.620935  0
N  N123  1  0.50303499  0.85222125  0.97935657  1  -0.743714  0  -0.305496  -0.118968  0  3.620757  0
N  N124  1  0.25599856  0.31236323  0.49176586  1  -0.727425  0  -0.291106  -0.146762  0  3.554992  0
N  N125  1  0.74401902  0.18765487  0.99176809  1  -0.727297  0  -0.291142  -0.146691  0  3.555065  0
N  N126  1  0.74398803  0.68764247  0.50823913  1  -0.726556  0  -0.290965  -0.146639  0  3.55498  0
N  N127  1  0.25606377  0.81236074  0.00823502  1  -0.727177  0  -0.290843  -0.146395  0  3.55518  0
N  N128  1  0.50190284  0.02542186  0.67392981  1  -1.195483  0  -0.329888  -0.285611  0  3.351563  0
N  N129  1  0.49787191  0.47457230  0.17393379  1  -1.195272  0  -0.329998  -0.285857  0  3.351132  0
N  N130  1  0.49802294  0.97457216  0.32607377  1  -1.194895  0  -0.329967  -0.285621  0  3.35161  0
N  N131  1  0.50203291  0.52544093  0.82605195  1  -1.195337  0  -0.329925  -0.285671  0  3.350956  0
N  N132  1  0.09277808  0.48318928  0.36335493  1  -0.746812  0  -0.296144  -0.147852  0  3.574138  0
N  N133  1  0.90718241  0.01681196  0.86335757  1  -0.738347  0  -0.296156  -0.147873  0  3.57386  0
N  N134  1  0.90719397  0.51681263  0.63664724  1  -0.738062  0  -0.296127  -0.147891  0  3.573553  0
N  N135  1  0.09281958  0.98318096  0.13664554  1  -0.738041  0  -0.296169  -0.147929  0  3.573475  0
N  N136  1  0.89507668  0.51935455  0.39476123  1  -0.75083  0  -0.308664  -0.124216  0  3.631653  0
N  N137  1  0.10490054  0.98065130  0.89476825  1  -0.758953  0  -0.308779  -0.124333  0  3.631448  0
N  N138  1  0.10490208  0.48064806  0.60524141  1  -0.759029  0  -0.308748  -0.124203  0  3.631529  0
N  N139  1  0.89511182  0.01935484  0.10524425  1  -0.759471  0  -0.308604  -0.124061  0  3.631359  0
N  N140  1  0.02991852  0.76150497  0.15976929  1  -1.219661  0  -0.35069  -0.241136  0  3.538707  0
N  N141  1  0.97006571  0.73848714  0.65977496  1  -1.219474  0  -0.350812  -0.241325  0  3.538715  0
N  N142  1  0.97007675  0.23848725  0.84022677  1  -1.219752  0  -0.350773  -0.24116  0  3.538998  0
N  N143  1  0.03001629  0.26150830  0.34023660  1  -1.219285  0  -0.350577  -0.24086  0  3.538731  0
