# generated using pymatgen
data_SmH10C8SO10
_symmetry_space_group_name_H-M   'P 1'
_cell_length_a   5.89215503
_cell_length_b   7.80671208
_cell_length_c   14.96714850
_cell_angle_alpha   73.17744728
_cell_angle_beta   84.35476495
_cell_angle_gamma   74.02675344
_symmetry_Int_Tables_number   1
_chemical_formula_structural   SmH10C8SO10
_chemical_formula_sum   'Sm2 H20 C16 S2 O20'
_cell_volume   633.42681456
_cell_formula_units_Z   2
loop_
 _symmetry_equiv_pos_site_id
 _symmetry_equiv_pos_as_xyz
  1  'x, y, z'
loop_
 _atom_site_type_symbol
 _atom_site_label
 _atom_site_symmetry_multiplicity
 _atom_site_fract_x
 _atom_site_fract_y
 _atom_site_fract_z
 _atom_site_occupancy
 _atom_site_hle17_bader_spin_density
 _atom_site_hle17_ddec_charge
 _atom_site_hle17_ddec_spin_density
 _atom_site_hle17_ddec_sum_bond_order
 _atom_site_hle17_magmom
 _atom_site_hse06_10hf_bader_spin_density
 _atom_site_hse06_10hf_ddec_charge
 _atom_site_hse06_10hf_ddec_spin_density
 _atom_site_hse06_10hf_ddec_sum_bond_order
 _atom_site_hse06_10hf_magmom
 _atom_site_hse06_bader_spin_density
 _atom_site_hse06_ddec_charge
 _atom_site_hse06_ddec_spin_density
 _atom_site_hse06_ddec_sum_bond_order
 _atom_site_hse06_magmom
 _atom_site_pbe_bader_spin_density
 _atom_site_pbe_cm5_charge
 _atom_site_pbe_ddec_charge
 _atom_site_pbe_ddec_spin_density
 _atom_site_pbe_ddec_sum_bond_order
 _atom_site_pbe_magmom
Sm  Sm0  1  0.32902016  0.03888006  0.81818465  1  0  2.339156  0  1.580319  0  0  2.252333  0  1.928989  0  0  2.292952  0  1.886577  0  0  1.493895  2.222943  0  1.958635  0
Sm  Sm1  1  0.67097209  0.96111819  0.18181762  1  0  2.339123  0  1.580299  0  0  2.252297  0  1.928967  0  0  2.292915  0  1.886558  0  0  1.493946  2.222919  0  1.958618  0
H  H2  1  0.26516171  0.07174130  0.59468986  1  0  0.100886  0  0.9652  0  0  0.104785  0  1.039053  0  0  0.109412  0  1.034731  0  0  0.112284  0.101458  0  1.042187  0
H  H3  1  0.73484675  0.92825960  0.40531205  1  0  0.100982  0  0.965143  0  0  0.104815  0  1.039089  0  0  0.109433  0  1.034777  0  0  0.11229  0.101488  0  1.042226  0
H  H4  1  0.35058814  0.22024047  0.42761058  1  0  0.105971  0  0.951895  0  0  0.11726  0  1.011823  0  0  0.120021  0  1.010844  0  0  0.110071  0.115227  0  1.012686  0
H  H5  1  0.64942759  0.77975902  0.57239059  1  0  0.105956  0  0.951949  0  0  0.11728  0  1.011873  0  0  0.120033  0  1.010873  0  0  0.110088  0.115245  0  1.012735  0
H  H6  1  0.60432653  0.45820267  0.38190594  1  0  0.11436  0  0.953283  0  0  0.121464  0  1.017811  0  0  0.124955  0  1.015687  0  0  0.110669  0.118964  0  1.019375  0
H  H7  1  0.39569266  0.54179132  0.61809323  1  0  0.114338  0  0.953172  0  0  0.121413  0  1.017778  0  0  0.124916  0  1.015629  0  0  0.110647  0.118907  0  1.01934  0
H  H8  1  0.52191687  0.29832229  0.54732592  1  0  0.097394  0  0.97636  0  0  0.105814  0  1.041982  0  0  0.10864  0  1.040972  0  0  0.106933  0.103827  0  1.042711  0
H  H9  1  0.47808158  0.70168846  0.45266893  1  0  0.097349  0  0.976382  0  0  0.10582  0  1.041941  0  0  0.108647  0  1.040929  0  0  0.106907  0.103825  0  1.042685  0
H  H10  1  0.71368943  0.78701693  0.95764490  1  0  0.440401  0  0.855521  0  0  0.414155  0  0.910935  0  0  0.424448  0  0.895714  0  0  0.305457  0.406852  0  0.92174  0
H  H11  1  0.28630036  0.21297304  0.04235868  1  0  0.440307  0  0.855677  0  0  0.414062  0  0.911078  0  0  0.424354  0  0.89586  0  0  0.305388  0.406757  0  0.921885  0
H  H12  1  0.76697664  0.73162174  0.86294100  1  0  0.451884  0  0.836295  0  0  0.421335  0  0.898008  0  0  0.431897  0  0.882373  0  0  0.307338  0.413866  0  0.909085  0
H  H13  1  0.23302154  0.26837927  0.13705930  1  0  0.451846  0  0.836341  0  0  0.42131  0  0.898034  0  0  0.43187  0  0.882403  0  0  0.307333  0.413841  0  0.90911  0
H  H14  1  0.47065595  0.30053898  0.90071617  1  0  0.44478  0  0.80184  0  0  0.429734  0  0.850831  0  0  0.438156  0  0.841179  0  0  0.334038  0.423702  0  0.857878  0
H  H15  1  0.52934829  0.69945914  0.09928899  1  0  0.444863  0  0.801799  0  0  0.429799  0  0.85083  0  0  0.438226  0  0.841165  0  0  0.334028  0.423765  0  0.857882  0
H  H16  1  0.65001656  0.29905299  0.81680028  1  0  0.444952  0  0.843596  0  0  0.413862  0  0.906678  0  0  0.423955  0  0.891826  0  0  0.309791  0.406755  0  0.917139  0
H  H17  1  0.34997613  0.70094389  0.18320151  1  0  0.444857  0  0.843721  0  0  0.413783  0  0.906776  0  0  0.423872  0  0.89193  0  0  0.309766  0.406681  0  0.91723  0
H  H18  1  0.22367584  0.73831780  0.76179216  1  0  0.437014  0  0.861702  0  0  0.40631  0  0.924641  0  0  0.416629  0  0.909571  0  0  0.301165  0.399032  0  0.93525  0
H  H19  1  0.77631595  0.26168186  0.23820858  1  0  0.437089  0  0.861612  0  0  0.406396  0  0.924539  0  0  0.416709  0  0.909476  0  0  0.301199  0.399122  0  0.935148  0
H  H20  1  0.50281163  0.67769626  0.74785942  1  0  0.434863  0  0.862239  0  0  0.405901  0  0.922042  0  0  0.415965  0  0.907228  0  0  0.3015  0.398822  0  0.932443  0
H  H21  1  0.49717541  0.32230758  0.25214089  1  0  0.434875  0  0.862215  0  0  0.405921  0  0.922001  0  0  0.415982  0  0.907191  0  0  0.301511  0.398846  0  0.932396  0
C  C22  1  0.82812193  0.10286571  0.68231281  1  0  0.738881  0  3.839205  0  0  0.693229  0  4.129146  0  0  0.72891  0  4.116757  0  0  0.240445  0.668982  0  4.136961  0
C  C23  1  0.17187786  0.89714089  0.31768259  1  0  0.738836  0  3.839265  0  0  0.693249  0  4.129105  0  0  0.728903  0  4.116766  0  0  0.240421  0.66901  0  4.136916  0
C  C24  1  0.88742697  0.17959725  0.58133498  1  0  -0.057882  0  3.721302  0  0  -0.037667  0  3.949204  0  0  -0.043519  0  3.970876  0  0  -0.007053  -0.033921  0  3.934685  0
C  C25  1  0.11258361  0.82040230  0.41866504  1  0  -0.057914  0  3.721297  0  0  -0.037673  0  3.949151  0  0  -0.043521  0  3.970842  0  0  -0.007038  -0.033933  0  3.934639  0
C  C26  1  0.12127813  0.15627899  0.54775651  1  0  -0.060087  0  3.699405  0  0  -0.083415  0  3.951665  0  0  -0.084601  0  3.971318  0  0  -0.071703  -0.082523  0  3.938434  0
C  C27  1  0.87873038  0.84371642  0.45224420  1  0  -0.060181  0  3.699453  0  0  -0.083484  0  3.951773  0  0  -0.084665  0  3.971432  0  0  -0.071703  -0.082592  0  3.938545  0
C  C28  1  0.16947209  0.23967695  0.45457392  1  0  -0.059751  0  3.722418  0  0  -0.084018  0  3.97031  0  0  -0.084825  0  3.991711  0  0  -0.079422  -0.083389  0  3.955819  0
C  C29  1  0.83053894  0.76032121  0.54542629  1  0  -0.05967  0  3.722532  0  0  -0.08401  0  3.970386  0  0  -0.08479  0  3.991802  0  0  -0.079513  -0.083381  0  3.955894  0
C  C30  1  0.98248458  0.35107379  0.39631522  1  0  -0.114164  0  3.732292  0  0  -0.08838  0  3.978339  0  0  -0.094658  0  4.000608  0  0  -0.013905  -0.084271  0  3.96342  0
C  C31  1  0.01752944  0.64892031  0.60367946  1  0  -0.114347  0  3.732591  0  0  -0.08847  0  3.978539  0  0  -0.094755  0  4.000802  0  0  -0.013873  -0.084362  0  3.963626  0
C  C32  1  0.74820402  0.37184919  0.42832764  1  0  -0.068941  0  3.743765  0  0  -0.092195  0  3.992202  0  0  -0.092689  0  4.012017  0  0  -0.082719  -0.091829  0  3.978903  0
C  C33  1  0.25180987  0.62815594  0.57166742  1  0  -0.068698  0  3.743896  0  0  -0.091979  0  3.992314  0  0  -0.092473  0  4.012141  0  0  -0.082639  -0.091604  0  3.979006  0
C  C34  1  0.70239340  0.28360791  0.52046666  1  0  -0.065293  0  3.725733  0  0  -0.08603  0  3.969336  0  0  -0.087744  0  3.990565  0  0  -0.079561  -0.084799  0  3.954976  0
C  C35  1  0.29762053  0.71639715  0.47953242  1  0  -0.065266  0  3.726093  0  0  -0.086082  0  3.969729  0  0  -0.087797  0  3.990961  0  0  -0.079563  -0.084851  0  3.95537  0
C  C36  1  0.98761459  0.90822470  0.99421146  1  0  0.563962  0  3.948148  0  0  0.517583  0  4.257662  0  0  0.547489  0  4.247233  0  0  0.218979  0.497221  0  4.264338  0
C  C37  1  0.01235599  0.09177214  0.00580190  1  0  0.563779  0  3.948974  0  0  0.51729  0  4.258615  0  0  0.547194  0  4.248187  0  0  0.218758  0.496932  0  4.265289  0
S  S38  1  0.03276241  0.46780165  0.27834481  1  0  1.361975  0  5.544773  0  0  1.254859  0  6.06647  0  0  1.303511  0  6.040916  0  0  0.551688  1.221425  0  6.082986  0
S  S39  1  0.96723699  0.53220082  0.72164988  1  0  1.361845  0  5.54484  0  0  1.254676  0  6.066548  0  0  1.303349  0  6.040979  0  0  0.551552  1.221224  0  6.083069  0
O  O40  1  0.62035011  0.08104329  0.70138275  1  0  -0.748558  0  2.00083  0  0  -0.706442  0  2.25984  0  0  -0.731171  0  2.246473  0  0  -0.413925  -0.689136  0  2.268577  0
O  O41  1  0.37964710  0.91896604  0.29861502  1  0  -0.748575  0  2.00106  0  0  -0.706469  0  2.26  0  0  -0.731186  0  2.246644  0  0  -0.413974  -0.689162  0  2.268739  0
O  O42  1  0.98163911  0.06929506  0.74283181  1  0  -0.739414  0  2.07402  0  0  -0.696395  0  2.33773  0  0  -0.721412  0  2.325595  0  0  -0.400679  -0.678929  0  2.345644  0
O  O43  1  0.01835131  0.93071423  0.25717091  1  0  -0.739326  0  2.073939  0  0  -0.696339  0  2.337628  0  0  -0.721345  0  2.325507  0  0  -0.400601  -0.678872  0  2.345544  0
O  O44  1  0.83407322  0.63399811  0.25695528  1  0  -0.774649  0  2.105084  0  0  -0.732385  0  2.39322  0  0  -0.753019  0  2.375982  0  0  -0.400574  -0.717744  0  2.404507  0
O  O45  1  0.16593093  0.36600559  0.74304639  1  0  -0.774662  0  2.105166  0  0  -0.732396  0  2.393334  0  0  -0.753035  0  2.376088  0  0  -0.400572  -0.717756  0  2.404622  0
O  O46  1  0.02905935  0.34134716  0.22225816  1  0  -0.662287  0  2.00178  0  0  -0.593885  0  2.232661  0  0  -0.616502  0  2.217541  0  0  -0.305417  -0.578093  0  2.242747  0
O  O47  1  0.97092758  0.65866229  0.77773666  1  0  -0.662192  0  2.001764  0  0  -0.593752  0  2.232644  0  0  -0.616396  0  2.217538  0  0  -0.305358  -0.577964  0  2.242729  0
O  O48  1  0.26510186  0.50849805  0.27213848  1  0  -0.677378  0  1.988324  0  0  -0.609062  0  2.221528  0  0  -0.631688  0  2.207216  0  0  -0.311994  -0.593279  0  2.231027  0
O  O49  1  0.73489634  0.49149753  0.72785660  1  0  -0.677338  0  1.988195  0  0  -0.609016  0  2.221449  0  0  -0.631652  0  2.20713  0  0  -0.31193  -0.593204  0  2.230928  0
O  O50  1  0.11283676  0.84333485  0.93294386  1  0  -0.631113  0  2.035343  0  0  -0.593522  0  2.271988  0  0  -0.614358  0  2.260719  0  0  -0.355778  -0.579179  0  2.279519  0
O  O51  1  0.88716368  0.15664832  0.06704962  1  0  -0.630738  0  2.036462  0  0  -0.593126  0  2.273158  0  0  -0.613945  0  2.261882  0  0  -0.355521  -0.578797  0  2.280701  0
O  O52  1  0.83424552  0.83782596  0.04805718  1  0  -0.705192  0  2.056925  0  0  -0.65809  0  2.293657  0  0  -0.681842  0  2.28138  0  0  -0.370871  -0.641499  0  2.30174  0
O  O53  1  0.16575147  0.16216812  0.95194485  1  0  -0.705247  0  2.056527  0  0  -0.658105  0  2.293259  0  0  -0.68186  0  2.280983  0  0  -0.370913  -0.641509  0  2.301335  0
O  O54  1  0.63689545  0.78234804  0.90282925  1  0  -0.921369  0  1.810728  0  0  -0.88281  0  1.987858  0  0  -0.89979  0  1.954265  0  0  -0.652015  -0.870842  0  2.011351  0
O  O55  1  0.36309634  0.21765164  0.09717083  1  0  -0.921276  0  1.810889  0  0  -0.882703  0  1.987991  0  0  -0.899686  0  1.954399  0  0  -0.651949  -0.870728  0  2.011485  0
O  O56  1  0.57386614  0.21840925  0.86688778  1  0  -0.875104  0  1.834043  0  0  -0.840227  0  2.021513  0  0  -0.856893  0  1.994034  0  0  -0.606126  -0.828439  0  2.040532  0
O  O57  1  0.42612953  0.78158898  0.13311436  1  0  -0.875117  0  1.834164  0  0  -0.84024  0  2.021589  0  0  -0.856912  0  1.994126  0  0  -0.606087  -0.828444  0  2.040599  0
O  O58  1  0.36774369  0.78463364  0.74956602  1  0  -0.915375  0  1.865491  0  0  -0.874142  0  2.059101  0  0  -0.892268  0  2.02766  0  0  -0.652554  -0.861261  0  2.080975  0
O  O59  1  0.63225201  0.21536455  0.25043880  1  0  -0.91542  0  1.865352  0  0  -0.874227  0  2.058972  0  0  -0.892347  0  2.027553  0  0  -0.652558  -0.861347  0  2.080817  0
