# generated using pymatgen
data_Cd2H28C35(N2O3)3
_symmetry_space_group_name_H-M   'P 1'
_cell_length_a   15.68473316
_cell_length_b   16.18559679
_cell_length_c   16.76255323
_cell_angle_alpha   89.99992577
_cell_angle_beta   89.99981821
_cell_angle_gamma   117.19032220
_symmetry_Int_Tables_number   1
_chemical_formula_structural   Cd2H28C35(N2O3)3
_chemical_formula_sum   'Cd8 H112 C140 N24 O36'
_cell_volume   3785.20002251
_cell_formula_units_Z   4
loop_
 _symmetry_equiv_pos_site_id
 _symmetry_equiv_pos_as_xyz
  1  'x, y, z'
loop_
 _atom_site_type_symbol
 _atom_site_label
 _atom_site_symmetry_multiplicity
 _atom_site_fract_x
 _atom_site_fract_y
 _atom_site_fract_z
 _atom_site_occupancy
 _atom_site_pbe_bader_charge
 _atom_site_pbe_bader_spin_density
 _atom_site_pbe_cm5_charge
 _atom_site_pbe_ddec_charge
 _atom_site_pbe_ddec_spin_density
 _atom_site_pbe_ddec_sum_bond_order
 _atom_site_pbe_magmom
Cd  Cd0  1  0.16601766  0.82344096  0.72345287  1  1.286686  0  0.782325  0.885213  0  2.256623  0
Cd  Cd1  1  0.88578731  0.71211182  0.69853561  1  1.33326  0  0.791833  0.970876  0  2.190941  0
Cd  Cd2  1  0.33397611  0.17655549  0.22344626  1  1.286474  0  0.78235  0.885315  0  2.256622  0
Cd  Cd3  1  0.61420789  0.28788961  0.19853608  1  1.333354  0  0.791822  0.970835  0  2.191041  0
Cd  Cd4  1  0.83398050  0.17656131  0.27654960  1  1.286574  0  0.782327  0.885264  0  2.256617  0
Cd  Cd5  1  0.11420956  0.28788906  0.30147043  1  1.333245  0  0.791855  0.970918  0  2.190917  0
Cd  Cd6  1  0.66602162  0.82343912  0.77654964  1  1.286583  0  0.782334  0.885271  0  2.256581  0
Cd  Cd7  1  0.38579475  0.71211403  0.80146578  1  1.333212  0  0.791859  0.970885  0  2.190937  0
H  H8  1  0.77167308  0.77737653  0.59700049  1  0.655734  0  0.288608  0.38826  0  0.948936  0
H  H9  1  0.78773991  0.68606437  0.55898961  1  0.652458  0  0.279232  0.373605  0  0.982628  0
H  H10  1  0.93916229  0.23160663  0.07654288  1  0.054561  0  0.097902  0.116166  0  1.010301  0
H  H11  1  0.06636913  0.29232463  0.08013906  1  0.039497  0  0.096083  0.107236  0  0.996428  0
H  H12  1  0.85808576  0.30565002  0.01274718  1  0.10551  0  0.103478  0.107511  0  1.027658  0
H  H13  1  0.85750424  0.42860611  0.92700938  1  0.091096  0  0.108203  0.120502  0  1.02028  0
H  H14  1  0.14736630  0.49856260  0.85150698  1  0.119873  0  0.112762  0.128395  0  1.000726  0
H  H15  1  0.14788570  0.37924009  0.94230826  1  0.096716  0  0.103654  0.108386  0  1.012425  0
H  H16  1  0.86060507  0.12171571  0.95874996  1  0.067123  0  0.108136  0.116776  0  0.993137  0
H  H17  1  0.86782602  0.00166480  0.87317655  1  0.13543  0  0.112969  0.135542  0  1.014191  0
H  H18  1  0.16742066  0.10347389  0.93527845  1  0.07631  0  0.109126  0.115776  0  1.001082  0
H  H19  1  0.16014965  0.22713901  0.01565237  1  0.10927  0  0.101185  0.106625  0  1.028779  0
H  H20  1  0.15975866  0.64195883  0.83824994  1  0.249603  0  0.14403  0.130426  0  1.047584  0
H  H21  1  0.85737024  0.50727678  0.80382404  1  0.196951  0  0.15928  0.139537  0  0.953499  0
H  H22  1  0.87051834  0.87631797  0.83418671  1  0.23948  0  0.148626  0.135885  0  1.0267  0
H  H23  1  0.17457863  0.01957437  0.83095309  1  0.150524  0  0.15442  0.127938  0  0.967949  0
H  H24  1  0.21405193  0.99825245  0.48615053  1  0.098369  0  0.099005  0.100298  0  1.043121  0
H  H25  1  0.00762464  0.98252817  0.31007803  1  0.05311  0  0.095295  0.097691  0  1.029938  0
H  H26  1  0.91720121  0.80472988  0.51654951  1  0.12105  0  0.099361  0.100581  0  1.065519  0
H  H27  1  0.79757361  0.79828770  0.42329540  1  0.051279  0  0.091433  0.133534  0  1.00622  0
H  H28  1  0.83759821  0.82637709  0.32316380  1  0.05241  0  0.090274  0.124812  0  0.993274  0
H  H29  1  0.82454290  0.90966448  0.38385738  1  0.049943  0  0.091018  0.131599  0  1.006095  0
H  H30  1  0.23047229  0.51142504  0.59735404  1  0.096617  0  0.099823  0.103437  0  1.031901  0
H  H31  1  0.08439753  0.52346436  0.38488960  1  0.114087  0  0.099429  0.105322  0  1.018134  0
H  H32  1  0.14397300  0.72675425  0.57035337  1  0.088565  0  0.096452  0.101167  0  1.056376  0
H  H33  1  0.02423030  0.63541594  0.37055648  1  0.046032  0  0.08973  0.126722  0  0.995915  0
H  H34  1  0.10680732  0.74608380  0.40853439  1  0.030166  0  0.086995  0.122591  0  1.000415  0
H  H35  1  0.99916377  0.67857769  0.46028596  1  0.055644  0  0.093685  0.141792  0  1.008167  0
H  H36  1  0.72832169  0.22262595  0.09700249  1  0.655809  0  0.288621  0.388311  0  0.948902  0
H  H37  1  0.71226085  0.31394242  0.05899274  1  0.652204  0  0.279209  0.373543  0  0.982737  0
H  H38  1  0.56084115  0.76839382  0.57654033  1  0.054358  0  0.097923  0.116176  0  1.010346  0
H  H39  1  0.43363626  0.70767648  0.58014144  1  0.039526  0  0.096061  0.107209  0  0.996503  0
H  H40  1  0.64191376  0.69434441  0.51274687  1  0.105654  0  0.103514  0.107562  0  1.027566  0
H  H41  1  0.64249455  0.57139240  0.42700523  1  0.091012  0  0.10818  0.120475  0  1.020406  0
H  H42  1  0.35263552  0.50143962  0.35150170  1  0.120131  0  0.112802  0.128452  0  1.000614  0
H  H43  1  0.35211684  0.62075624  0.44230879  1  0.097001  0  0.103661  0.108442  0  1.012444  0
H  H44  1  0.63939450  0.87828199  0.45874544  1  0.067139  0  0.108136  0.116859  0  0.993026  0
H  H45  1  0.63217076  0.99833043  0.37317010  1  0.135465  0  0.112968  0.13562  0  1.014283  0
H  H46  1  0.33257814  0.89652526  0.43527929  1  0.076281  0  0.109102  0.115745  0  1.000984  0
H  H47  1  0.33985290  0.77286373  0.51565613  1  0.109283  0  0.101197  0.106638  0  1.028754  0
H  H48  1  0.34024164  0.35804414  0.33824726  1  0.249521  0  0.144016  0.130546  0  1.047703  0
H  H49  1  0.64263292  0.49271799  0.30381701  1  0.197155  0  0.15929  0.139605  0  0.95321  0
H  H50  1  0.62947837  0.12368088  0.33418018  1  0.238806  0  0.148599  0.135859  0  1.026569  0
H  H51  1  0.32541838  0.98041890  0.33094669  1  0.150415  0  0.154519  0.128088  0  0.968066  0
H  H52  1  0.28594826  0.00174999  0.98614350  1  0.098062  0  0.098986  0.100286  0  1.043198  0
H  H53  1  0.49237411  0.01746865  0.81007215  1  0.052992  0  0.095298  0.097701  0  1.029919  0
H  H54  1  0.58280030  0.19527010  0.01654243  1  0.121103  0  0.099406  0.10062  0  1.065585  0
H  H55  1  0.70242419  0.20170735  0.92329314  1  0.051407  0  0.091414  0.133506  0  1.006204  0
H  H56  1  0.66240234  0.17361901  0.82315930  1  0.05235  0  0.090269  0.124798  0  0.99324  0
H  H57  1  0.67545443  0.09032932  0.88385534  1  0.050044  0  0.091031  0.131668  0  1.006098  0
H  H58  1  0.26953080  0.48857670  0.09735320  1  0.096629  0  0.099846  0.103459  0  1.031878  0
H  H59  1  0.41561107  0.47653494  0.88489113  1  0.114063  0  0.099441  0.105344  0  1.018161  0
H  H60  1  0.35602732  0.27324551  0.07035553  1  0.088503  0  0.096461  0.101282  0  1.056317  0
H  H61  1  0.47577423  0.36458273  0.87055916  1  0.046011  0  0.089758  0.126724  0  0.995979  0
H  H62  1  0.39319860  0.25391404  0.90853746  1  0.030017  0  0.087002  0.122559  0  1.000453  0
H  H63  1  0.50084154  0.32142138  0.96028832  1  0.055551  0  0.093722  0.141814  0  1.008121  0
H  H64  1  0.22832895  0.22262850  0.40299958  1  0.655834  0  0.288647  0.388308  0  0.948887  0
H  H65  1  0.21226565  0.31394275  0.44101225  1  0.652297  0  0.27923  0.373599  0  0.982628  0
H  H66  1  0.06083548  0.76839077  0.92345660  1  0.054583  0  0.097914  0.116166  0  1.010291  0
H  H67  1  0.93362906  0.70767903  0.91985803  1  0.039435  0  0.096087  0.107227  0  0.996363  0
H  H68  1  0.14190621  0.69434321  0.98724752  1  0.105612  0  0.1035  0.107576  0  1.027568  0
H  H69  1  0.14248677  0.57138643  0.07298413  1  0.0912  0  0.108287  0.12063  0  1.020239  0
H  H70  1  0.85262631  0.50143064  0.14848832  1  0.119897  0  0.112779  0.128412  0  1.000702  0
H  H71  1  0.85210821  0.62075453  0.05768764  1  0.096814  0  0.103621  0.108323  0  1.012448  0
H  H72  1  0.13939755  0.87828654  0.04124892  1  0.067121  0  0.108121  0.1168  0  0.993129  0
H  H73  1  0.13217757  0.99833815  0.12682174  1  0.135319  0  0.112981  0.135598  0  1.014079  0
H  H74  1  0.83258159  0.89652488  0.06472700  1  0.076328  0  0.109143  0.115772  0  1.001364  0
H  H75  1  0.83985236  0.77286464  0.98434711  1  0.109312  0  0.101202  0.106635  0  1.028795  0
H  H76  1  0.84023775  0.35803301  0.16174477  1  0.249023  0  0.144031  0.130562  0  1.047592  0
H  H77  1  0.14262662  0.49272410  0.19617604  1  0.197093  0  0.159272  0.13955  0  0.953334  0
H  H78  1  0.12947530  0.12368013  0.16582172  1  0.239021  0  0.148608  0.135927  0  1.026852  0
H  H79  1  0.82541714  0.98041747  0.16905534  1  0.150492  0  0.154431  0.127959  0  0.967836  0
H  H80  1  0.78594145  0.00174913  0.51385134  1  0.09801  0  0.098966  0.100223  0  1.0432  0
H  H81  1  0.99236425  0.01747203  0.68992742  1  0.05308  0  0.095316  0.097707  0  1.029896  0
H  H82  1  0.08279469  0.19527030  0.48345594  1  0.121046  0  0.099365  0.100604  0  1.065601  0
H  H83  1  0.20241599  0.20171668  0.57671243  1  0.051321  0  0.091415  0.133432  0  1.006133  0
H  H84  1  0.16238882  0.17362590  0.67684463  1  0.052296  0  0.09025  0.124682  0  0.993193  0
H  H85  1  0.17545117  0.09034128  0.61615045  1  0.049997  0  0.09097  0.131492  0  1.006118  0
H  H86  1  0.76953428  0.48858555  0.40264842  1  0.096812  0  0.099909  0.10353  0  1.031748  0
H  H87  1  0.91561475  0.47654482  0.61510869  1  0.11395  0  0.099419  0.105296  0  1.018168  0
H  H88  1  0.85602615  0.27325010  0.42964790  1  0.088555  0  0.096425  0.101112  0  1.056445  0
H  H89  1  0.97577169  0.36458631  0.62944360  1  0.045956  0  0.08972  0.1267  0  0.995949  0
H  H90  1  0.89319341  0.25391985  0.59146330  1  0.030269  0  0.086983  0.122558  0  1.000417  0
H  H91  1  0.00084012  0.32142456  0.53971471  1  0.055597  0  0.093676  0.14178  0  1.008223  0
H  H92  1  0.27167674  0.77737283  0.90299818  1  0.655892  0  0.288694  0.388392  0  0.948773  0
H  H93  1  0.28774146  0.68606053  0.94100853  1  0.652336  0  0.279197  0.373485  0  0.982812  0
H  H94  1  0.43916821  0.23161189  0.42345438  1  0.054486  0  0.097925  0.116192  0  1.010269  0
H  H95  1  0.56637558  0.29232505  0.41985864  1  0.039354  0  0.096067  0.107254  0  0.996349  0
H  H96  1  0.35809656  0.30566200  0.48724426  1  0.106001  0  0.103495  0.107504  0  1.027604  0
H  H97  1  0.35751486  0.42861610  0.57298411  1  0.091198  0  0.108277  0.120621  0  1.020274  0
H  H98  1  0.64737224  0.49856540  0.64849361  1  0.119821  0  0.112767  0.128417  0  1.000656  0
H  H99  1  0.64789177  0.37924252  0.55769009  1  0.09686  0  0.103625  0.108331  0  1.012476  0
H  H100  1  0.36060461  0.12171958  0.54124987  1  0.066933  0  0.108154  0.116848  0  0.993037  0
H  H101  1  0.36782675  0.00167044  0.62682401  1  0.135097  0  0.112974  0.135616  0  1.014292  0
H  H102  1  0.66742160  0.10347630  0.56472437  1  0.076342  0  0.109108  0.115753  0  1.000879  0
H  H103  1  0.66014875  0.22713783  0.48434573  1  0.109256  0  0.101184  0.1066  0  1.028794  0
H  H104  1  0.65976260  0.64196019  0.66175043  1  0.249522  0  0.144032  0.130478  0  1.047634  0
H  H105  1  0.35737433  0.50727521  0.69617830  1  0.197075  0  0.1593  0.139569  0  0.953379  0
H  H106  1  0.37051497  0.87631792  0.66581990  1  0.239027  0  0.148599  0.13581  0  1.026576  0
H  H107  1  0.67457559  0.01957989  0.66905100  1  0.150574  0  0.154493  0.128042  0  0.968222  0
H  H108  1  0.71405845  0.99824877  0.01385002  1  0.097979  0  0.098953  0.100205  0  1.043231  0
H  H109  1  0.50763762  0.98252593  0.18992793  1  0.052634  0  0.095344  0.097751  0  1.029888  0
H  H110  1  0.41720456  0.80473285  0.98345287  1  0.121169  0  0.099368  0.10058  0  1.065636  0
H  H111  1  0.29758406  0.79828793  0.07671231  1  0.051401  0  0.091388  0.133402  0  1.006168  0
H  H112  1  0.33761230  0.82637765  0.17684435  1  0.052325  0  0.090229  0.124675  0  0.993231  0
H  H113  1  0.32455122  0.90966318  0.11615130  1  0.049973  0  0.090994  0.131547  0  1.00611  0
H  H114  1  0.73046403  0.51141583  0.90265046  1  0.096861  0  0.099832  0.103462  0  1.031833  0
H  H115  1  0.58438992  0.52346523  0.11511253  1  0.11398  0  0.099458  0.105361  0  1.018137  0
H  H116  1  0.64396497  0.72674703  0.92964336  1  0.088535  0  0.096452  0.101124  0  1.056448  0
H  H117  1  0.52422325  0.63541675  0.12944091  1  0.045979  0  0.089751  0.126713  0  0.995972  0
H  H118  1  0.60680075  0.74608266  0.09146083  1  0.030089  0  0.086999  0.122562  0  1.00047  0
H  H119  1  0.49915689  0.67857741  0.03971175  1  0.055534  0  0.093732  0.141833  0  1.008107  0
C  C120  1  0.00439196  0.26060829  0.03978494  1  0.011636  0  -0.159443  -0.25788  0  3.94946  0
C  C121  1  0.00307892  0.33417963  0.98456996  1  0.033319  0  -0.006422  0.121266  0  3.955313  0
C  C122  1  0.92154104  0.34788110  0.97739963  1  -0.098478  0  -0.090911  -0.127009  0  3.971612  0
C  C123  1  0.92058198  0.41667609  0.92773054  1  0.018321  0  -0.089578  -0.161685  0  3.987913  0
C  C124  1  0.00233823  0.47098615  0.88304596  1  0.253616  0  0.088165  0.150648  0  4.033383  0
C  C125  1  0.08389092  0.45688477  0.88719379  1  -0.070308  0  -0.084918  -0.152361  0  3.962607  0
C  C126  1  0.08379565  0.38919630  0.93832805  1  -0.037158  0  -0.085201  -0.111789  0  3.952564  0
C  C127  1  0.00977704  0.18350983  0.99276928  1  0.024524  0  -0.006613  0.124835  0  3.961663  0
C  C128  1  0.92813423  0.11817574  0.95296912  1  -0.019791  0  -0.084087  -0.116565  0  3.9498  0
C  C129  1  0.93178707  0.04970754  0.90511189  1  -0.006008  0  -0.084924  -0.153108  0  3.963793  0
C  C130  1  0.01840310  0.04510661  0.89813997  1  0.189368  0  0.089031  0.152709  0  4.026354  0
C  C131  1  0.10035113  0.10818310  0.93840993  1  0.012461  0  -0.091433  -0.164948  0  4.003675  0
C  C132  1  0.09568229  0.17751850  0.98488074  1  -0.067226  0  -0.090767  -0.126549  0  3.969983  0
C  C133  1  0.08770756  0.62489864  0.81748711  1  0.959681  0  0.166415  0.106467  0  3.838272  0
C  C134  1  0.93246155  0.55727255  0.80173770  1  0.964236  0  0.174658  0.107939  0  3.840757  0
C  C135  1  0.94500831  0.89639003  0.82169922  1  0.963959  0  0.170052  0.110158  0  3.87028  0
C  C136  1  0.10091219  0.96899881  0.82030924  1  0.979328  0  0.170637  0.100103  0  3.873526  0
C  C137  1  0.06788376  0.89676529  0.50813255  1  -0.048795  0  -0.021702  -0.031563  0  4.007214  0
C  C138  1  0.14045137  0.96784966  0.46465871  1  -0.029215  0  -0.087868  -0.133817  0  3.976047  0
C  C139  1  0.11851489  0.99779076  0.39295544  1  -0.06473  0  -0.024143  -0.030957  0  4.028127  0
C  C140  1  0.02350817  0.95878394  0.36643817  1  -0.044435  0  -0.083368  -0.145086  0  3.907624  0
C  C141  1  0.94906421  0.89129463  0.41151648  1  0.046083  0  -0.005242  0.175172  0  3.966856  0
C  C142  1  0.97278677  0.85965180  0.48170029  1  -0.045687  0  -0.080136  -0.141319  0  3.894093  0
C  C143  1  0.09329689  0.86050766  0.58162193  1  1.547961  0  0.198697  0.573498  0  4.196394  0
C  C144  1  0.19784858  0.06980369  0.34472936  1  1.557815  0  0.195002  0.564095  0  4.227799  0
C  C145  1  0.84666825  0.85414781  0.38422428  1  -0.099939  0  -0.236874  -0.408014  0  3.951342  0
C  C146  1  0.19120819  0.62313702  0.59218119  1  -0.048328  0  -0.030726  -0.055095  0  4.033428  0
C  C147  1  0.19592254  0.54439872  0.56255746  1  -0.024829  0  -0.084635  -0.119362  0  3.970298  0
C  C148  1  0.15903205  0.51009141  0.48732616  1  -0.024635  0  -0.021554  -0.036408  0  4.002908  0
C  C149  1  0.11357675  0.55240525  0.44321836  1  -0.093015  0  -0.079811  -0.143821  0  3.910199  0
C  C150  1  0.10563580  0.62948863  0.47252472  1  -0.012663  0  -0.009218  0.16839  0  3.978118  0
C  C151  1  0.14647588  0.66509424  0.54704133  1  -0.033785  0  -0.085963  -0.145927  0  3.905508  0
C  C152  1  0.24029304  0.66486223  0.66913535  1  1.531822  0  0.196761  0.570612  0  4.232149  0
C  C153  1  0.17089427  0.43081377  0.45130304  1  1.571033  0  0.204134  0.576975  0  4.206229  0
C  C154  1  0.05632892  0.67440620  0.42533863  1  -0.062581  0  -0.238756  -0.408081  0  3.951398  0
C  C155  1  0.49560913  0.73939019  0.53978470  1  0.012043  0  -0.159465  -0.257864  0  3.949368  0
C  C156  1  0.49692661  0.66581794  0.48457120  1  0.033362  0  -0.006384  0.121259  0  3.955212  0
C  C157  1  0.57845428  0.65211584  0.47739856  1  -0.098622  0  -0.091041  -0.127179  0  3.972043  0
C  C158  1  0.57942447  0.58332378  0.42773075  1  0.018451  0  -0.089526  -0.161591  0  3.987288  0
C  C159  1  0.49765381  0.52901182  0.38304081  1  0.253308  0  0.088176  0.150676  0  4.033006  0
C  C160  1  0.41611453  0.54311732  0.38719363  1  -0.070115  0  -0.084897  -0.152296  0  3.963099  0
C  C161  1  0.41620182  0.61080006  0.43832542  1  -0.037722  0  -0.085204  -0.111847  0  3.952376  0
C  C162  1  0.49022499  0.81648980  0.49276856  1  0.024448  0  -0.00657  0.124862  0  3.961682  0
C  C163  1  0.57186250  0.88182129  0.45296658  1  -0.019735  0  -0.084125  -0.116655  0  3.95001  0
C  C164  1  0.56821405  0.95029035  0.40510629  1  -0.006048  0  -0.084963  -0.153345  0  3.963553  0
C  C165  1  0.48158753  0.95488713  0.39813791  1  0.189383  0  0.089094  0.152827  0  4.026  0
C  C166  1  0.39965051  0.89181533  0.43840998  1  0.012594  0  -0.09142  -0.16492  0  4.003944  0
C  C167  1  0.40431628  0.82248186  0.48488205  1  -0.067471  0  -0.090791  -0.126569  0  3.969974  0
C  C168  1  0.41228005  0.37510027  0.31748778  1  0.959491  0  0.166366  0.106197  0  3.837541  0
C  C169  1  0.56752203  0.44271045  0.30173095  1  0.96437  0  0.174655  0.107715  0  3.841476  0
C  C170  1  0.55498269  0.10360610  0.32169056  1  0.964906  0  0.170201  0.110343  0  3.870391  0
C  C171  1  0.39907745  0.03098826  0.32030441  1  0.979087  0  0.170489  0.099881  0  3.873274  0
C  C172  1  0.43211340  0.10323679  0.00812574  1  -0.048699  0  -0.021755  -0.031619  0  4.007476  0
C  C173  1  0.35954603  0.03215078  0.96465142  1  -0.028854  0  -0.087851  -0.133801  0  3.976114  0
C  C174  1  0.38148478  0.00220993  0.89294872  1  -0.06496  0  -0.024208  -0.030931  0  4.028047  0
C  C175  1  0.47649065  0.04121476  0.86643290  1  -0.0444  0  -0.083353  -0.145099  0  3.907601  0
C  C176  1  0.55093400  0.10870254  0.91151180  1  0.046183  0  -0.005191  0.175165  0  3.966866  0
C  C177  1  0.52721115  0.14034929  0.98169444  1  -0.045779  0  -0.080091  -0.141245  0  3.894298  0
C  C178  1  0.40669863  0.13949416  0.08161337  1  1.548186  0  0.198624  0.573504  0  4.196691  0
C  C179  1  0.30215294  0.93019787  0.84472291  1  1.557925  0  0.194945  0.563923  0  4.227664  0
C  C180  1  0.65333101  0.14584737  0.88422103  1  -0.100111  0  -0.236896  -0.408076  0  3.951384  0
C  C181  1  0.30879294  0.37686058  0.09218156  1  -0.048585  0  -0.030752  -0.055109  0  4.033466  0
C  C182  1  0.30407973  0.45560106  0.06255596  1  -0.024699  0  -0.084637  -0.119422  0  3.970288  0
C  C183  1  0.34097349  0.48990754  0.98732610  1  -0.024965  0  -0.021456  -0.03603  0  4.002566  0
C  C184  1  0.38642899  0.44759246  0.94321822  1  -0.092298  0  -0.079946  -0.144133  0  3.910406  0
C  C185  1  0.39436756  0.37050829  0.97252644  1  -0.012568  0  -0.009176  0.168629  0  3.978028  0
C  C186  1  0.35352517  0.33490421  0.04704341  1  -0.033604  0  -0.085999  -0.146191  0  3.905574  0
C  C187  1  0.25970648  0.33513787  0.16913652  1  1.531925  0  0.196821  0.570607  0  4.232094  0
C  C188  1  0.32910890  0.56918531  0.95130053  1  1.5705  0  0.203957  0.576468  0  4.206309  0
C  C189  1  0.44367600  0.32559366  0.92534206  1  -0.062517  0  -0.238815  -0.408097  0  3.951456  0
C  C190  1  0.99560583  0.73939049  0.96021395  1  0.011685  0  -0.15946  -0.257923  0  3.949357  0
C  C191  1  0.99691850  0.66581569  0.01542534  1  0.033436  0  -0.006382  0.121368  0  3.955107  0
C  C192  1  0.07845058  0.65211005  0.02259508  1  -0.099063  0  -0.09101  -0.12718  0  3.971993  0
C  C193  1  0.07941351  0.58331783  0.07226058  1  -0.023788  0  -0.089736  -0.161898  0  3.988027  0
C  C194  1  0.99765150  0.52900640  0.11694874  1  0.295581  0  0.088191  0.150746  0  4.033318  0
C  C195  1  0.91610423  0.54310846  0.11280032  1  -0.070786  0  -0.08486  -0.152318  0  3.962771  0
C  C196  1  0.91619666  0.61079763  0.06166666  1  -0.036759  0  -0.085152  -0.111718  0  3.952463  0
C  C197  1  0.99022141  0.81649035  0.00723140  1  0.024481  0  -0.006622  0.124826  0  3.961518  0
C  C198  1  0.07186872  0.88182720  0.04703096  1  -0.0198  0  -0.084046  -0.116558  0  3.949606  0
C  C199  1  0.06821105  0.95029195  0.09488819  1  -0.005948  0  -0.084966  -0.15319  0  3.963908  0
C  C200  1  0.98159981  0.95489356  0.10186369  1  0.189343  0  0.088977  0.152651  0  4.026201  0
C  C201  1  0.89964600  0.89181429  0.06159373  1  0.012515  0  -0.091442  -0.165034  0  4.003831  0
C  C202  1  0.90431967  0.82248236  0.01511934  1  -0.067187  0  -0.090776  -0.126486  0  3.970171  0
C  C203  1  0.91228316  0.37509600  0.18250819  1  0.960661  0  0.166497  0.106374  0  3.838046  0
C  C204  1  0.06752659  0.44271931  0.19826297  1  0.964577  0  0.174651  0.107893  0  3.840958  0
C  C205  1  0.05499613  0.10360666  0.17830563  1  0.963837  0  0.170102  0.110106  0  3.869774  0
C  C206  1  0.89908938  0.03099718  0.17969919  1  0.979817  0  0.170728  0.100084  0  3.873863  0
C  C207  1  0.93210832  0.10323490  0.49187051  1  -0.048693  0  -0.021776  -0.031737  0  4.007739  0
C  C208  1  0.85953943  0.03215054  0.53534435  1  -0.029045  0  -0.087759  -0.133561  0  3.97622  0
C  C209  1  0.88147688  0.00221013  0.60704941  1  -0.064905  0  -0.024143  -0.031008  0  4.028289  0
C  C210  1  0.97648170  0.04121696  0.63356608  1  -0.044311  0  -0.083535  -0.1453  0  3.907645  0
C  C211  1  0.05092755  0.10870487  0.58848956  1  0.045889  0  -0.005191  0.175197  0  3.966721  0
C  C212  1  0.02720437  0.14034909  0.51830337  1  -0.045397  0  -0.080059  -0.141245  0  3.894174  0
C  C213  1  0.90669519  0.13949253  0.41838292  1  1.548179  0  0.198587  0.573337  0  4.196916  0
C  C214  1  0.80214702  0.93019719  0.65527489  1  1.557743  0  0.195091  0.56422  0  4.227691  0
C  C215  1  0.15332225  0.14585308  0.61578057  1  -0.099754  0  -0.236766  -0.407612  0  3.951063  0
C  C216  1  0.80879419  0.37687010  0.40781889  1  -0.048329  0  -0.030783  -0.055084  0  4.033446  0
C  C217  1  0.80408431  0.45560978  0.43744620  1  -0.024996  0  -0.084687  -0.119425  0  3.970277  0
C  C218  1  0.84097639  0.48991639  0.51267511  1  -0.025118  0  -0.021584  -0.036464  0  4.002729  0
C  C219  1  0.88643358  0.44760115  0.55678231  1  -0.092477  0  -0.079922  -0.143849  0  3.910299  0
C  C220  1  0.89437104  0.37051848  0.52747476  1  -0.01274  0  -0.009122  0.168485  0  3.978265  0
C  C221  1  0.85352615  0.33491079  0.45295875  1  -0.033477  0  -0.085947  -0.145935  0  3.905536  0
C  C222  1  0.75970739  0.33514211  0.33086592  1  1.532103  0  0.196772  0.570516  0  4.232487  0
C  C223  1  0.82910806  0.56919057  0.54869942  1  1.570085  0  0.20417  0.576865  0  4.20629  0
C  C224  1  0.94367471  0.32559952  0.57466025  1  -0.062749  0  -0.238739  -0.408041  0  3.951546  0
C  C225  1  0.50439827  0.26061275  0.46021299  1  0.011872  0  -0.159501  -0.258031  0  3.949371  0
C  C226  1  0.50308240  0.33418569  0.51542470  1  0.033425  0  -0.006419  0.121279  0  3.955099  0
C  C227  1  0.42155066  0.34789266  0.52259377  1  -0.099385  0  -0.090966  -0.126967  0  3.971889  0
C  C228  1  0.42058746  0.41668331  0.57226098  1  -0.023846  0  -0.089731  -0.161972  0  3.988175  0
C  C229  1  0.50234468  0.47099114  0.61695151  1  0.29602  0  0.088279  0.150828  0  4.033258  0
C  C230  1  0.58389452  0.45688909  0.61280286  1  -0.070786  0  -0.084891  -0.152398  0  3.962695  0
C  C231  1  0.58380236  0.38920010  0.56166809  1  -0.036874  0  -0.08512  -0.111656  0  3.95247  0
C  C232  1  0.50977315  0.18351107  0.50723212  1  0.024637  0  -0.006521  0.124876  0  3.96165  0
C  C233  1  0.42813694  0.11818097  0.54703051  1  -0.01964  0  -0.084119  -0.11663  0  3.949952  0
C  C234  1  0.43178120  0.04970844  0.59489199  1  -0.005627  0  -0.085024  -0.153355  0  3.963277  0
C  C235  1  0.51841382  0.04511512  0.60186157  1  0.189411  0  0.089086  0.152823  0  4.025934  0
C  C236  1  0.60034574  0.10818694  0.56159248  1  0.012803  0  -0.09143  -0.165007  0  4.004032  0
C  C237  1  0.59568537  0.17751970  0.51511981  1  -0.067674  0  -0.090775  -0.126446  0  3.969876  0
C  C238  1  0.58771651  0.62490130  0.68251230  1  0.960182  0  0.166443  0.106307  0  3.838237  0
C  C239  1  0.43247177  0.55727722  0.69826375  1  0.964502  0  0.174602  0.107862  0  3.841  0
C  C240  1  0.44502022  0.89639407  0.67830952  1  0.965005  0  0.170181  0.110309  0  3.870726  0
C  C241  1  0.60092392  0.96901539  0.67969209  1  0.978812  0  0.170422  0.099902  0  3.873007  0
C  C242  1  0.56789179  0.89676685  0.99186778  1  -0.048796  0  -0.021739  -0.031706  0  4.007593  0
C  C243  1  0.64046197  0.96784937  0.03534329  1  -0.028926  0  -0.087753  -0.133559  0  3.976047  0
C  C244  1  0.61852480  0.99778952  0.10704897  1  -0.064426  0  -0.024123  -0.03092  0  4.028164  0
C  C245  1  0.52351985  0.95878260  0.13356538  1  -0.0443  0  -0.083547  -0.145381  0  3.907591  0
C  C246  1  0.44907238  0.89129553  0.08848827  1  0.045711  0  -0.005231  0.175153  0  3.966741  0
C  C247  1  0.47279531  0.85965434  0.01830205  1  -0.045325  0  -0.080069  -0.141193  0  3.894167  0
C  C248  1  0.59330465  0.86050948  0.91838075  1  1.548106  0  0.198636  0.573365  0  4.196836  0
C  C249  1  0.69785508  0.06980368  0.15527359  1  1.557855  0  0.195033  0.564132  0  4.227689  0
C  C250  1  0.34667822  0.85414999  0.11578143  1  -0.099837  0  -0.236733  -0.407632  0  3.951188  0
C  C251  1  0.69120059  0.62313057  0.90781852  1  -0.04874  0  -0.03074  -0.055033  0  4.0335  0
C  C252  1  0.69591352  0.54439217  0.93744650  1  -0.024913  0  -0.084588  -0.119306  0  3.970336  0
C  C253  1  0.65902491  0.51008986  0.01267815  1  -0.024931  0  -0.021523  -0.036294  0  4.002943  0
C  C254  1  0.61356781  0.55240425  0.05678424  1  -0.093047  0  -0.07996  -0.144027  0  3.910488  0
C  C255  1  0.60562826  0.62948633  0.02747483  1  -0.011872  0  -0.009147  0.168499  0  3.978156  0
C  C256  1  0.64646774  0.66508833  0.95295667  1  -0.03389  0  -0.086014  -0.145994  0  3.905665  0
C  C257  1  0.74028772  0.66485466  0.83086355  1  1.532296  0  0.196683  0.570367  0  4.232638  0
C  C258  1  0.67089497  0.43081554  0.04870372  1  1.569953  0  0.204064  0.576643  0  4.206433  0
C  C259  1  0.55632114  0.67440374  0.07465802  1  -0.062668  0  -0.23886  -0.408122  0  3.951458  0
N  N260  1  0.06455850  0.68094042  0.77601252  1  -0.736278  0  -0.239068  -0.185623  0  3.475217  0
N  N261  1  0.96733858  0.63877304  0.76605866  1  -0.744102  0  -0.224967  -0.17115  0  3.421727  0
N  N262  1  0.00616444  0.54566242  0.83509260  1  -1.268091  0  -0.206881  -0.01037  0  3.762913  0
N  N263  1  0.97519846  0.84747688  0.77760450  1  -0.699953  0  -0.22911  -0.196423  0  3.408193  0
N  N264  1  0.07370312  0.89332334  0.77700029  1  -0.759586  0  -0.230499  -0.179688  0  3.434895  0
N  N265  1  0.02190221  0.97417880  0.84955013  1  -1.276279  0  -0.208061  -0.008602  0  3.766598  0
N  N266  1  0.43543589  0.31905097  0.27600722  1  -0.736118  0  -0.238981  -0.185581  0  3.474682  0
N  N267  1  0.53265558  0.36122397  0.26605749  1  -0.744644  0  -0.225005  -0.170946  0  3.422293  0
N  N268  1  0.49384029  0.45433777  0.33508874  1  -1.267649  0  -0.206921  -0.010352  0  3.762913  0
N  N269  1  0.52479814  0.15251730  0.27759705  1  -0.69984  0  -0.229176  -0.196513  0  3.408578  0
N  N270  1  0.42629291  0.10667151  0.27699051  1  -0.759465  0  -0.23045  -0.179675  0  3.434767  0
N  N271  1  0.47809859  0.02581857  0.34954447  1  -1.276594  0  -0.208093  -0.008595  0  3.766523  0
N  N272  1  0.93543763  0.31905351  0.22398815  1  -0.736339  0  -0.23915  -0.185713  0  3.475167  0
N  N273  1  0.03265669  0.36122714  0.23394201  1  -0.744416  0  -0.224969  -0.171071  0  3.422014  0
N  N274  1  0.99383204  0.45433359  0.16490450  1  -1.268264  0  -0.206902  -0.010419  0  3.763155  0
N  N275  1  0.02479707  0.15251983  0.22240632  1  -0.699465  0  -0.229184  -0.196533  0  3.408061  0
N  N276  1  0.92629103  0.10666641  0.22300814  1  -0.759597  0  -0.23047  -0.179618  0  3.435265  0
N  N277  1  0.97809234  0.02581582  0.15045771  1  -1.276654  0  -0.208083  -0.008472  0  3.766215  0
N  N278  1  0.56456247  0.68094364  0.72398927  1  -0.736349  0  -0.239052  -0.185513  0  3.475259  0
N  N279  1  0.46734471  0.63877203  0.73394139  1  -0.744337  0  -0.224967  -0.171177  0  3.422098  0
N  N280  1  0.50616869  0.54566447  0.66490775  1  -1.268545  0  -0.20693  -0.01032  0  3.763247  0
N  N281  1  0.47520097  0.84748426  0.72239826  1  -0.699982  0  -0.229142  -0.19639  0  3.408845  0
N  N282  1  0.57370646  0.89332657  0.72300658  1  -0.75932  0  -0.230424  -0.179778  0  3.434697  0
N  N283  1  0.52189571  0.97418092  0.65045561  1  -1.276672  0  -0.208066  -0.00852  0  3.766267  0
O  O284  1  0.02891414  0.79204556  0.61971352  1  -1.197863  0  -0.338529  -0.594726  0  2.312125  0
O  O285  1  0.18127463  0.89869667  0.60348838  1  -1.156539  0  -0.33661  -0.55265  0  2.193558  0
O  O286  1  0.26490662  0.13830926  0.38003590  1  -1.213094  0  -0.335906  -0.590493  0  2.185562  0
O  O287  1  0.19514985  0.05726340  0.26903625  1  -1.162325  0  -0.335835  -0.556669  0  2.231553  0
O  O288  1  0.25469397  0.74670052  0.68849868  1  -1.204205  0  -0.346483  -0.604956  0  2.356145  0
O  O289  1  0.27052856  0.61812285  0.71120829  1  -1.164488  0  -0.3311  -0.564633  0  2.260924  0
O  O290  1  0.19985741  0.38433720  0.49540848  1  -1.181578  0  -0.332747  -0.564133  0  2.152853  0
O  O291  1  0.15228269  0.41769643  0.37706259  1  -1.184112  0  -0.341791  -0.572673  0  2.285059  0
O  O292  1  0.78264317  0.72276462  0.60785447  1  -1.302361  0  -0.586012  -0.782981  0  2.191429  0
O  O293  1  0.47107778  0.20796239  0.11970349  1  -1.197923  0  -0.338455  -0.594686  0  2.312032  0
O  O294  1  0.31872388  0.10129950  0.10348191  1  -1.156515  0  -0.336612  -0.552759  0  2.193856  0
O  O295  1  0.23509630  0.86169147  0.88002316  1  -1.213126  0  -0.335988  -0.590504  0  2.185825  0
O  O296  1  0.30485398  0.94273981  0.76902798  1  -1.162548  0  -0.335717  -0.556514  0  2.231336  0
O  O297  1  0.24530195  0.25330022  0.18850119  1  -1.204256  0  -0.346507  -0.604951  0  2.356056  0
O  O298  1  0.22947687  0.38188196  0.21121247  1  -1.164547  0  -0.331124  -0.564588  0  2.260839  0
O  O299  1  0.30014908  0.61566380  0.99540659  1  -1.181385  0  -0.33266  -0.563931  0  2.152928  0
O  O300  1  0.34772602  0.58230708  0.87706121  1  -1.183966  0  -0.341728  -0.572447  0  2.284975  0
O  O301  1  0.71735381  0.27723991  0.10785762  1  -1.302223  0  -0.586014  -0.783018  0  2.191448  0
O  O302  1  0.97107577  0.20795811  0.38029252  1  -1.19787  0  -0.338485  -0.594612  0  2.312129  0
O  O303  1  0.81872057  0.10129934  0.39651349  1  -1.156625  0  -0.336575  -0.552656  0  2.193942  0
O  O304  1  0.73508643  0.86169163  0.61997253  1  -1.213067  0  -0.336052  -0.590579  0  2.185677  0
O  O305  1  0.80485048  0.94273538  0.73096800  1  -1.162395  0  -0.335774  -0.556656  0  2.23147  0
O  O306  1  0.74530331  0.25330661  0.31150199  1  -1.204477  0  -0.346389  -0.60486  0  2.356401  0
O  O307  1  0.72947678  0.38189053  0.28879000  1  -1.164487  0  -0.331164  -0.564603  0  2.260844  0
O  O308  1  0.80015070  0.61566991  0.50459458  1  -1.180932  0  -0.332731  -0.564024  0  2.153012  0
O  O309  1  0.84771449  0.58230375  0.62294226  1  -1.183856  0  -0.341765  -0.572611  0  2.285059  0
O  O310  1  0.21735982  0.27724110  0.39214561  1  -1.302226  0  -0.586077  -0.783038  0  2.191344  0
O  O311  1  0.52892365  0.79204543  0.88028943  1  -1.19789  0  -0.338542  -0.594646  0  2.312141  0
O  O312  1  0.68127905  0.89870206  0.89651101  1  -1.156588  0  -0.336592  -0.552648  0  2.193844  0
O  O313  1  0.76490952  0.13831217  0.11997095  1  -1.213194  0  -0.336024  -0.590543  0  2.185607  0
O  O314  1  0.69515277  0.05726173  0.23096792  1  -1.162442  0  -0.335733  -0.556606  0  2.231483  0
O  O315  1  0.75469733  0.74669230  0.81150008  1  -1.204405  0  -0.346345  -0.604762  0  2.356409  0
O  O316  1  0.77051630  0.61810571  0.78878641  1  -1.164457  0  -0.331158  -0.564588  0  2.260881  0
O  O317  1  0.69985672  0.38433844  0.00459766  1  -1.180755  0  -0.332694  -0.563968  0  2.153021  0
O  O318  1  0.65228880  0.41770210  0.12294483  1  -1.183821  0  -0.341714  -0.572468  0  2.2851  0
O  O319  1  0.28264431  0.72275958  0.89214424  1  -1.30237  0  -0.58609  -0.783017  0  2.191439  0
