# generated using pymatgen
data_CuH13C13N2ClO4
_symmetry_space_group_name_H-M   'P 1'
_cell_length_a   8.28321746
_cell_length_b   8.74541915
_cell_length_c   11.41605982
_cell_angle_alpha   76.44010651
_cell_angle_beta   92.79106750
_cell_angle_gamma   69.92722070
_symmetry_Int_Tables_number   1
_chemical_formula_structural   CuH13C13N2ClO4
_chemical_formula_sum   'Cu2 H26 C26 N4 Cl2 O8'
_cell_volume   747.50378702
_cell_formula_units_Z   2
loop_
 _symmetry_equiv_pos_site_id
 _symmetry_equiv_pos_as_xyz
  1  'x, y, z'
loop_
 _atom_site_type_symbol
 _atom_site_label
 _atom_site_symmetry_multiplicity
 _atom_site_fract_x
 _atom_site_fract_y
 _atom_site_fract_z
 _atom_site_occupancy
 _atom_site_hle17_ddec_charge
 _atom_site_hle17_ddec_spin_density
 _atom_site_hle17_ddec_sum_bond_order
 _atom_site_hle17_magmom
 _atom_site_hse06_10hf_ddec_charge
 _atom_site_hse06_10hf_ddec_spin_density
 _atom_site_hse06_10hf_ddec_sum_bond_order
 _atom_site_hse06_10hf_magmom
 _atom_site_hse06_ddec_charge
 _atom_site_hse06_ddec_spin_density
 _atom_site_hse06_ddec_sum_bond_order
 _atom_site_hse06_magmom
 _atom_site_pbe_cm5_charge
 _atom_site_pbe_ddec_charge
 _atom_site_pbe_ddec_spin_density
 _atom_site_pbe_ddec_sum_bond_order
 _atom_site_pbe_magmom
Cu  Cu0  1  0.39131110  0.66633788  0.96832882  1  0.893064  -0.662796  1.837519  -0.486  0.896655  -0.804192  2.238819  -0.645  1.010206  -0.896064  2.136285  -0.75  0.632005  0.823528  -0.69197  2.305739  -0.543
Cu  Cu1  1  0.60869367  0.33367598  0.03165471  1  0.893145  0.662792  1.837288  0.486  0.896648  0.804183  2.238472  0.645  1.01029  0.896069  2.135973  0.75  0.632051  0.823534  0.691975  2.30555  0.544
H  H2  1  0.40861570  0.29078796  0.43475882  1  0.101144  -1e-05  0.945199  0.0  0.114434  -5e-06  1.000567  0.0  0.117357  -4e-06  0.999457  0.0  0.10438  0.112293  -5e-06  1.001516  0.0
H  H3  1  0.59137790  0.70918629  0.56524009  1  0.101093  1e-05  0.945136  0.0  0.114436  5e-06  1.000464  0.0  0.11736  4e-06  0.999352  0.0  0.104376  0.112297  5e-06  1.00141  0.0
H  H4  1  0.60922629  0.16605906  0.29599559  1  0.115905  -0.000106  0.975484  0.0  0.119285  -6.9e-05  1.045581  0.0  0.122021  -7e-05  1.044356  0.0  0.100886  0.117254  -6.1e-05  1.046641  0.0
H  H5  1  0.39078449  0.83391508  0.70400881  1  0.1158  0.000108  0.975705  0.0  0.119214  7e-05  1.045732  0.0  0.121935  7e-05  1.044543  0.0  0.100836  0.117183  6.1e-05  1.046796  0.0
H  H6  1  0.88760672  0.93783950  0.37581049  1  0.099482  -1.4e-05  0.945968  0.0  0.108824  1e-06  1.0049  0.0  0.111687  -1e-06  1.003586  0.0  0.101731  0.106688  4e-06  1.006013  0.0
H  H7  1  0.11239999  0.06213413  0.62420710  1  0.099475  1.2e-05  0.945996  0.0  0.10885  -2e-06  1.004878  0.0  0.111714  1e-06  1.003563  0.0  0.10173  0.10671  -4e-06  1.005994  0.0
H  H8  1  0.98361301  0.81359596  0.60170367  1  0.108558  1.2e-05  0.95841  0.0  0.120012  1.1e-05  1.017979  0.0  0.122991  1.1e-05  1.016563  0.0  0.107429  0.117859  1e-05  1.019084  0.0
H  H9  1  0.01638284  0.18638761  0.39831559  1  0.108494  -1.1e-05  0.95844  0.0  0.119955  -1.1e-05  1.017997  0.0  0.122936  -1.1e-05  1.016578  0.0  0.107404  0.117803  -1e-05  1.019099  0.0
H  H10  1  0.57382275  0.02956284  0.88975736  1  0.140227  -1.1e-05  0.923099  0.0  0.141853  1e-06  0.992584  0.0  0.144849  -1e-06  0.987132  0.0  0.148607  0.139378  2e-06  0.996834  0.0
H  H11  1  0.42616158  0.97045010  0.11024798  1  0.140287  9e-06  0.923237  0.0  0.141913  -1e-06  0.992628  0.0  0.144909  1e-06  0.987183  0.0  0.148649  0.13943  -2e-06  0.996883  0.0
H  H12  1  0.27284929  0.21729758  0.76905347  1  0.102545  3.6e-05  0.952558  0.0  0.115749  1.3e-05  1.011613  0.0  0.117516  1.2e-05  1.009442  0.0  0.105869  0.114222  1.1e-05  1.013444  0.0
H  H13  1  0.72714020  0.78272324  0.23094358  1  0.10248  -3.9e-05  0.952511  0.0  0.115762  -1.3e-05  1.011515  0.0  0.11753  -1.2e-05  1.009348  0.0  0.105853  0.114223  -1.1e-05  1.013355  0.0
H  H14  1  0.25118230  0.26675540  0.60831990  1  0.068001  -0.000391  0.938144  0.0  0.083144  -0.000267  1.001304  0.0  0.083404  -0.000171  1.001683  0.0  0.108037  0.082979  -0.000315  1.001077  0.0
H  H15  1  0.74880204  0.73324755  0.39168364  1  0.067992  0.00039  0.93813  0.0  0.083187  0.000268  1.001281  0.0  0.083451  0.000171  1.001658  0.0  0.108022  0.083018  0.000316  1.001055  0.0
H  H16  1  0.39378810  0.48813230  0.61140369  1  0.107089  -9e-05  0.922532  0.0  0.120445  -3.4e-05  0.983758  0.0  0.122562  -2.6e-05  0.983188  0.0  0.103379  0.119016  -3.8e-05  0.984056  0.0
H  H17  1  0.60622432  0.51184772  0.38857781  1  0.107151  8.4e-05  0.922307  0.0  0.120526  3.1e-05  0.983511  0.0  0.122647  2.4e-05  0.982947  0.0  0.103381  0.119105  3.5e-05  0.983801  0.0
H  H18  1  0.18246173  0.53536412  0.65061488  1  0.10524  0.000911  0.927286  0.001  0.12312  0.000733  0.981898  0.001  0.124883  0.000507  0.981165  0.0  0.103848  0.121632  0.000832  0.982637  0.001
H  H19  1  0.81755234  0.46464463  0.34937226  1  0.105302  -0.000914  0.927296  -0.001  0.123232  -0.000732  0.981838  -0.001  0.125001  -0.000506  0.981107  0.0  0.103898  0.121742  -0.000832  0.982579  -0.001
H  H20  1  0.87454104  0.81504738  0.94527943  1  0.109045  -8.3e-05  0.92134  0.0  0.119909  -4.1e-05  0.983136  0.0  0.121013  -2.2e-05  0.981802  0.0  0.113456  0.118943  -5.4e-05  0.984293  0.0
H  H21  1  0.12543397  0.18496896  0.05473487  1  0.109125  8.1e-05  0.921136  0.0  0.119867  4.2e-05  0.983074  0.0  0.120974  2.2e-05  0.981738  0.0  0.113449  0.118899  5.5e-05  0.98423  0.0
H  H22  1  0.01388940  0.80895512  0.83344567  1  0.103736  0.000497  0.932009  0.001  0.110205  0.000322  1.003134  0.0  0.110689  0.00022  1.002653  0.0  0.111001  0.109886  0.000366  1.003517  0.0
H  H23  1  0.98609741  0.19106605  0.16657583  1  0.103619  -0.000497  0.932243  -0.001  0.110109  -0.000323  1.003309  0.0  0.110596  -0.00022  1.002829  0.0  0.110986  0.109791  -0.000366  1.003695  0.0
H  H24  1  0.87754270  0.62200261  0.74904051  1  0.09729  3.6e-05  0.928397  0.0  0.111661  3.8e-05  0.989151  0.0  0.113275  1.2e-05  0.988716  0.0  0.100652  0.110599  5.5e-05  0.989346  0.0
H  H25  1  0.12247337  0.37801292  0.25096741  1  0.097374  -3.2e-05  0.928346  0.0  0.111735  -3.5e-05  0.989074  0.0  0.113343  -1e-05  0.988642  0.0  0.100646  0.110677  -5.3e-05  0.989274  0.0
H  H26  1  0.01544874  0.52825046  0.88869890  1  0.122154  -0.000867  0.928607  -0.001  0.139674  -0.000633  0.980122  -0.001  0.141258  -0.000421  0.980246  -0.001  0.108866  0.138375  -0.000722  0.980208  -0.001
H  H27  1  0.98456209  0.47176359  0.11131448  1  0.122141  0.000868  0.928801  0.001  0.139639  0.000632  0.980302  0.001  0.141221  0.000421  0.980413  0.001  0.108875  0.138341  0.000721  0.980401  0.001
C  C28  1  0.58504814  0.11720008  0.59588129  1  0.095128  -0.000289  3.809665  0.0  0.08231  -0.000132  4.058868  0.0  0.085659  -9e-05  4.083101  0.0  0.093944  0.080102  -0.000154  4.042546  0.0
C  C29  1  0.41493689  0.88279148  0.40412420  1  0.095288  0.00028  3.80968  0.0  0.082449  0.000131  4.058862  0.0  0.085799  8.8e-05  4.0831  0.0  0.093987  0.080242  0.000154  4.042538  0.0
C  C30  1  0.53314618  0.18851960  0.47104456  1  -0.149595  5.4e-05  3.770247  0.0  -0.168685  -3.1e-05  4.029856  0.0  -0.172113  -1e-05  4.050517  0.0  -0.095218  -0.166413  -3.5e-05  4.015947  0.0
C  C31  1  0.46684927  0.81145693  0.52896099  1  -0.149435  -4e-05  3.770281  0.0  -0.168582  3e-05  4.029894  0.0  -0.172008  1.2e-05  4.050551  0.0  -0.09515  -0.166312  3.5e-05  4.015984  0.0
C  C32  1  0.64491220  0.11838630  0.39423931  1  -0.051977  -2.1e-05  3.727943  0.0  -0.074065  1.6e-05  3.99136  0.0  -0.074525  -2.5e-05  4.01226  0.0  -0.09203  -0.07368  4.6e-05  3.977285  0.0
C  C33  1  0.35509063  0.88159017  0.60576898  1  -0.052016  2e-06  3.728163  0.0  -0.074121  -1.5e-05  3.991611  0.0  -0.074583  2.3e-05  4.012509  0.0  -0.092118  -0.073744  -4.6e-05  3.977541  0.0
C  C34  1  0.80475089  0.98485714  0.44077276  1  -0.073682  0.000798  3.773186  0.001  -0.089657  0.000237  4.031896  0.0  -0.092432  0.000139  4.054082  0.0  -0.094053  -0.087819  0.000326  4.016986  0.0
C  C35  1  0.19524903  0.01512424  0.55923816  1  -0.073882  -0.000771  3.773248  -0.001  -0.089905  -0.000236  4.032027  0.0  -0.09267  -0.000137  4.054183  0.0  -0.094095  -0.08806  -0.000325  4.017116  0.0
C  C36  1  0.85817572  0.91442748  0.56560975  1  -0.151578  -0.00036  3.774479  0.0  -0.170825  -8e-06  4.030521  0.0  -0.173208  -2.1e-05  4.050788  0.0  -0.092412  -0.169189  -9e-06  4.016902  0.0
C  C37  1  0.14182345  0.08555630  0.43440426  1  -0.151173  0.000337  3.774619  0.0  -0.17042  9e-06  4.030584  0.0  -0.172799  1.9e-05  4.050853  0.0  -0.092264  -0.168785  9e-06  4.016961  0.0
C  C38  1  0.74478250  0.98242045  0.64241111  1  0.103765  0.000762  3.782784  0.001  0.090815  0.000251  4.031369  0.0  0.093567  0.000143  4.054997  0.0  0.095956  0.088891  0.000335  4.015549  0.0
C  C39  1  0.25520255  0.01757475  0.35759815  1  0.103537  -0.000749  3.782744  -0.001  0.090658  -0.000251  4.031239  0.0  0.093407  -0.000142  4.054869  0.0  0.095877  0.088734  -0.000334  4.015426  0.0
C  C40  1  0.60388640  0.03669961  0.79771159  1  0.248483  0.000403  3.477041  0.0  0.168092  0.000179  3.750038  0.0  0.191237  0.000105  3.751796  0.0  0.210916  0.152751  0.000245  3.749005  0.0
C  C41  1  0.39610128  0.96330719  0.20229046  1  0.248504  -0.000392  3.477022  0.0  0.168254  -0.000181  3.749852  0.0  0.1914  -0.000105  3.751603  0.0  0.210982  0.152913  -0.000245  3.74882  0.0
C  C42  1  0.32685939  0.26837179  0.68936790  1  0.025697  -0.001057  3.617263  -0.001  -0.035193  -0.000689  3.870806  -0.001  -0.029671  -0.000455  3.880909  -0.001  -0.051111  -0.038928  -0.000789  3.864072  -0.001
C  C43  1  0.67312972  0.73163391  0.31062997  1  0.025871  0.001067  3.616859  0.001  -0.035209  0.00069  3.870552  0.001  -0.029687  0.000457  3.880667  0.001  -0.051113  -0.038927  0.00079  3.863823  0.001
C  C44  1  0.31753178  0.44804076  0.68048980  1  -0.259875  0.000461  3.652264  0.0  -0.303325  0.00025  3.904564  0.0  -0.310993  0.000193  3.910925  0.0  -0.156047  -0.297073  0.000292  3.899795  0.0
C  C45  1  0.68247738  0.55195803  0.31949371  1  -0.260324  -0.000447  3.651947  0.0  -0.303675  -0.000243  3.904331  0.0  -0.311365  -0.000194  3.910725  0.0  -0.156107  -0.297438  -0.000284  3.899573  0.0
C  C46  1  0.38144448  0.47113410  0.80003667  1  0.686287  0.000306  3.823362  0.0  0.654081  0.000322  4.120652  0.001  0.695197  0.000315  4.114687  0.001  0.212441  0.625693  0.000281  4.124631  0.001
C  C47  1  0.61860303  0.52885236  0.19994592  1  0.687147  -0.000306  3.823054  0.0  0.65469  -0.000329  4.12066  -0.001  0.695805  -0.000316  4.114695  -0.001  0.212606  0.626305  -0.000285  4.124654  -0.001
C  C48  1  0.88984574  0.79715143  0.85389734  1  0.020341  0.001622  3.579897  0.002  -0.03867  0.001024  3.83271  0.001  -0.033024  0.000687  3.843326  0.001  -0.049524  -0.042488  0.001166  3.825576  0.001
C  C49  1  0.11014469  0.20286245  0.14611756  1  0.020395  -0.001623  3.580042  -0.002  -0.038644  -0.001025  3.832999  -0.001  -0.033003  -0.00069  3.843612  -0.001  -0.049526  -0.042455  -0.001168  3.825871  -0.001
C  C50  1  0.88966201  0.62515168  0.84494785  1  -0.259638  0.002  3.630862  0.002  -0.302361  0.000655  3.881148  0.001  -0.310203  0.000411  3.88787  0.001  -0.155403  -0.295847  0.000754  3.875924  0.001
C  C51  1  0.11035527  0.37486387  0.15506009  1  -0.259972  -0.001995  3.631156  -0.002  -0.302574  -0.000654  3.881291  -0.001  -0.310406  -0.000408  3.88804  -0.001  -0.15545  -0.296074  -0.000752  3.876088  -0.001
C  C52  1  0.74560395  0.57437511  0.90104334  1  0.677582  -0.001403  3.824109  -0.002  0.644481  -0.000525  4.127555  -0.001  0.685552  -0.000603  4.122845  -0.001  0.210149  0.616251  -0.000408  4.130553  -0.001
C  C53  1  0.25438778  0.42564487  0.09894248  1  0.678049  0.00141  3.823692  0.002  0.64479  0.000524  4.127298  0.001  0.685862  0.000601  4.122572  0.001  0.210219  0.616555  0.000407  4.130308  0.001
N  N54  1  0.50177374  0.14689448  0.69595201  1  -0.101098  0.000375  3.50321  0.0  -0.014399  0.000241  3.729454  0.0  -0.031148  0.00014  3.751868  0.0  -0.228311  -0.003397  0.000302  3.714249  0.0
N  N55  1  0.49820265  0.85309717  0.30404986  1  -0.101292  -0.000377  3.503231  0.0  -0.01461  -0.00024  3.729548  0.0  -0.03136  -0.000139  3.751963  0.0  -0.228371  -0.003606  -0.000301  3.714336  0.0
N  N56  1  0.75112835  0.93794698  0.76859663  1  -0.086029  -0.000634  3.490229  -0.001  -0.000935  -0.000361  3.716213  0.0  -0.017184  -0.00022  3.738037  0.0  -0.221302  0.00964  -0.000449  3.701511  -0.001
N  N57  1  0.24886111  0.06205850  0.23140742  1  -0.08598  0.000629  3.490029  0.001  -0.00095  0.000361  3.715934  0.0  -0.017197  0.00022  3.737758  0.0  -0.221322  0.009628  0.000449  3.701231  0.001
Cl  Cl58  1  0.23223940  0.97405073  0.90504075  1  -0.670592  0.003026  0.709429  0.002  -0.637117  0.001678  0.927849  0.001  -0.652127  0.001717  0.896959  0.001  -0.402879  -0.625483  0.001587  0.948723  0.001
Cl  Cl59  1  0.76776078  0.02596200  0.09493852  1  -0.670637  -0.003031  0.709487  -0.002  -0.637116  -0.001681  0.927866  -0.001  -0.652142  -0.001718  0.896984  -0.001  -0.402863  -0.625486  -0.001592  0.948765  -0.001
O  O60  1  0.30941938  0.61550311  0.81845026  1  -0.58658  -0.065823  2.117461  -0.088  -0.560481  -0.047404  2.397098  -0.069  -0.606613  -0.037187  2.390699  -0.057  -0.307926  -0.530251  -0.049077  2.401356  -0.069
O  O61  1  0.69045889  0.38445336  0.18160461  1  -0.586715  0.065772  2.117842  0.088  -0.560488  0.047396  2.397629  0.069  -0.606613  0.037181  2.391239  0.057  -0.307879  -0.530283  0.049062  2.401913  0.069
O  O62  1  0.50149804  0.34332309  0.86935066  1  -0.581559  0.064553  2.127327  0.086  -0.555756  0.045835  2.403427  0.067  -0.602906  0.036159  2.395955  0.056  -0.308235  -0.524708  0.047465  2.408275  0.067
O  O63  1  0.49866535  0.65675130  0.13054910  1  -0.581934  -0.064579  2.126954  -0.087  -0.556217  -0.04584  2.403362  -0.067  -0.603368  -0.036163  2.395868  -0.056  -0.308368  -0.525144  -0.047475  2.408186  -0.067
O  O64  1  0.60071943  0.69326524  0.89344440  1  -0.596323  -0.060504  2.108355  -0.081  -0.571634  -0.044527  2.38796  -0.065  -0.619506  -0.034896  2.382455  -0.054  -0.3128  -0.539813  -0.046103  2.391252  -0.065
O  O65  1  0.39921514  0.30671506  0.10641511  1  -0.596573  0.060511  2.108176  0.081  -0.571841  0.044523  2.387935  0.065  -0.619739  0.034887  2.382433  0.054  -0.312969  -0.540017  0.046099  2.39125  0.065
O  O66  1  0.78384356  0.41762395  0.94953334  1  -0.562222  0.079695  2.064475  0.107  -0.541564  0.054234  2.336298  0.08  -0.589232  0.041824  2.329449  0.065  -0.306323  -0.51081  0.056292  2.341095  0.079
O  O67  1  0.21622675  0.58240164  0.05058576  1  -0.562354  -0.07965  2.064231  -0.107  -0.54164  -0.054208  2.336094  -0.08  -0.589275  -0.041807  2.329212  -0.065  -0.306215  -0.510874  -0.056269  2.340868  -0.079
