# generated using pymatgen
data_NdPH7C3O10
_symmetry_space_group_name_H-M   'P 1'
_cell_length_a   6.90511731
_cell_length_b   10.19206021
_cell_length_c   13.38582918
_cell_angle_alpha   89.99970877
_cell_angle_beta   89.99977543
_cell_angle_gamma   100.50784837
_symmetry_Int_Tables_number   1
_chemical_formula_structural   NdPH7C3O10
_chemical_formula_sum   'Nd4 P4 H28 C12 O40'
_cell_volume   926.26107380
_cell_formula_units_Z   4
loop_
 _symmetry_equiv_pos_site_id
 _symmetry_equiv_pos_as_xyz
  1  'x, y, z'
loop_
 _atom_site_type_symbol
 _atom_site_label
 _atom_site_symmetry_multiplicity
 _atom_site_fract_x
 _atom_site_fract_y
 _atom_site_fract_z
 _atom_site_occupancy
 _atom_site_hle17_bader_spin_density
 _atom_site_hle17_ddec_charge
 _atom_site_hle17_ddec_spin_density
 _atom_site_hle17_ddec_sum_bond_order
 _atom_site_hle17_magmom
 _atom_site_hse06_10hf_bader_spin_density
 _atom_site_hse06_10hf_ddec_charge
 _atom_site_hse06_10hf_ddec_spin_density
 _atom_site_hse06_10hf_ddec_sum_bond_order
 _atom_site_hse06_10hf_magmom
 _atom_site_hse06_bader_spin_density
 _atom_site_hse06_ddec_charge
 _atom_site_hse06_ddec_spin_density
 _atom_site_hse06_ddec_sum_bond_order
 _atom_site_hse06_magmom
 _atom_site_pbe_bader_spin_density
 _atom_site_pbe_cm5_charge
 _atom_site_pbe_ddec_charge
 _atom_site_pbe_ddec_spin_density
 _atom_site_pbe_ddec_sum_bond_order
 _atom_site_pbe_magmom
Nd  Nd0  1  0.15855019  0.27930031  0.89765083  1  0  2.322827  0  1.595564  0  0  2.210845  0  1.951084  0  0  2.248048  0  1.912157  0  0  1.484345  2.123427  0  2.091956  0
Nd  Nd1  1  0.84145393  0.22069980  0.39765206  1  0  2.322805  0  1.595488  0  0  2.210823  0  1.950992  0  0  2.248026  0  1.912062  0  0  1.48438  2.123415  0  2.091863  0
Nd  Nd2  1  0.84145276  0.72069859  0.10234702  1  0  2.322822  0  1.595553  0  0  2.210829  0  1.951079  0  0  2.248032  0  1.912151  0  0  1.484369  2.123402  0  2.092002  0
Nd  Nd3  1  0.15854349  0.77930006  0.60235027  1  0  2.322874  0  1.595528  0  0  2.210894  0  1.951042  0  0  2.248097  0  1.912114  0  0  1.484354  2.12349  0  2.091882  0
P  P4  1  0.77983735  0.07374735  0.05314554  1  0  1.525747  0  4.755074  0  0  1.363093  0  5.272303  0  0  1.413933  0  5.230193  0  0  0.383097  1.327192  0  5.296677  0
P  P5  1  0.22016293  0.42625048  0.55314213  1  0  1.525744  0  4.755078  0  0  1.36304  0  5.272326  0  0  1.4139  0  5.230197  0  0  0.383068  1.327125  0  5.296734  0
P  P6  1  0.22017115  0.92625058  0.94685828  1  0  1.525737  0  4.755094  0  0  1.363061  0  5.272309  0  0  1.413914  0  5.230187  0  0  0.383063  1.327156  0  5.296695  0
P  P7  1  0.77983252  0.57374738  0.44685423  1  0  1.525866  0  4.755067  0  0  1.363188  0  5.272299  0  0  1.414053  0  5.230166  0  0  0.383141  1.327268  0  5.296695  0
H  H8  1  0.54322165  0.19761757  0.05455675  1  0  0.440049  0  0.852924  0  0  0.405952  0  0.924654  0  0  0.418572  0  0.906345  0  0  0.318422  0.397079  0  0.937569  0
H  H9  1  0.45678638  0.30238227  0.55455331  1  0  0.439932  0  0.853037  0  0  0.40587  0  0.924754  0  0  0.418483  0  0.906454  0  0  0.318412  0.397003  0  0.937658  0
H  H10  1  0.45678949  0.80237937  0.94544110  1  0  0.44005  0  0.852893  0  0  0.405885  0  0.924745  0  0  0.418508  0  0.906434  0  0  0.318396  0.397011  0  0.937662  0
H  H11  1  0.54321709  0.69761862  0.44544454  1  0  0.439952  0  0.853008  0  0  0.405892  0  0.924723  0  0  0.418514  0  0.906416  0  0  0.318427  0.397016  0  0.937641  0
H  H12  1  0.90307578  0.98853438  0.25557715  1  0  0.402756  0  0.879248  0  0  0.376951  0  0.950533  0  0  0.388094  0  0.937967  0  0  0.317641  0.369223  0  0.958214  0
H  H13  1  0.09692089  0.51145907  0.75557707  1  0  0.402778  0  0.87924  0  0  0.376901  0  0.95062  0  0  0.38804  0  0.938062  0  0  0.317647  0.369171  0  0.958304  0
H  H14  1  0.09692086  0.01146249  0.74442444  1  0  0.40281  0  0.879197  0  0  0.376988  0  0.950496  0  0  0.388128  0  0.937933  0  0  0.317663  0.369259  0  0.958177  0
H  H15  1  0.90307523  0.48853580  0.24442153  1  0  0.402795  0  0.879152  0  0  0.376937  0  0.950517  0  0  0.388079  0  0.937951  0  0  0.317634  0.369213  0  0.958187  0
H  H16  1  0.79079061  0.34641959  0.94946005  1  0  0.421746  0  0.860222  0  0  0.392974  0  0.935492  0  0  0.402133  0  0.924873  0  0  0.31359  0.386744  0  0.941499  0
H  H17  1  0.20920215  0.15356610  0.44947258  1  0  0.421766  0  0.859956  0  0  0.392969  0  0.935287  0  0  0.402126  0  0.924669  0  0  0.313576  0.386747  0  0.941287  0
H  H18  1  0.20921038  0.65357730  0.05053556  1  0  0.421839  0  0.859982  0  0  0.392993  0  0.935347  0  0  0.402152  0  0.924728  0  0  0.313591  0.386768  0  0.94135  0
H  H19  1  0.79079320  0.84642578  0.55053498  1  0  0.421838  0  0.860017  0  0  0.393005  0  0.935395  0  0  0.402164  0  0.924773  0  0  0.31358  0.386778  0  0.941398  0
H  H20  1  0.87550075  0.48740288  0.89960996  1  0  0.433534  0  0.868864  0  0  0.401097  0  0.935155  0  0  0.412548  0  0.918484  0  0  0.301231  0.392987  0  0.946731  0
H  H21  1  0.12449149  0.01259615  0.39960751  1  0  0.433517  0  0.868897  0  0  0.401111  0  0.935159  0  0  0.412563  0  0.918487  0  0  0.301233  0.393001  0  0.946737  0
H  H22  1  0.12449299  0.51259397  0.10038864  1  0  0.433527  0  0.868882  0  0  0.401107  0  0.935161  0  0  0.412561  0  0.918488  0  0  0.301225  0.392996  0  0.946738  0
H  H23  1  0.87550473  0.98740470  0.60039183  1  0  0.433478  0  0.86896  0  0  0.401034  0  0.935267  0  0  0.412486  0  0.918596  0  0  0.301198  0.392921  0  0.946849  0
H  H24  1  0.60217603  0.32645529  0.81615737  1  0  0.442988  0  0.838363  0  0  0.419578  0  0.887581  0  0  0.429168  0  0.873487  0  0  0.307385  0.412228  0  0.898296  0
H  H25  1  0.39782554  0.17354944  0.31616719  1  0  0.443037  0  0.838305  0  0  0.419625  0  0.887523  0  0  0.429219  0  0.873422  0  0  0.307389  0.412279  0  0.898237  0
H  H26  1  0.39782164  0.67354558  0.18383749  1  0  0.443011  0  0.838325  0  0  0.419585  0  0.887572  0  0  0.429178  0  0.873471  0  0  0.307366  0.412238  0  0.898284  0
H  H27  1  0.60217068  0.82645141  0.68383813  1  0  0.443033  0  0.838303  0  0  0.419616  0  0.887532  0  0  0.429209  0  0.873433  0  0  0.307388  0.412269  0  0.898242  0
H  H28  1  0.46027120  0.34130131  0.72450086  1  0  0.442205  0  0.845469  0  0  0.413394  0  0.903868  0  0  0.423421  0  0.889022  0  0  0.305906  0.406065  0  0.914607  0
H  H29  1  0.53972730  0.15870013  0.22450820  1  0  0.442267  0  0.845401  0  0  0.413459  0  0.903793  0  0  0.423484  0  0.888951  0  0  0.305924  0.406133  0  0.914532  0
H  H30  1  0.53972724  0.65870254  0.27549474  1  0  0.442196  0  0.845517  0  0  0.413395  0  0.903898  0  0  0.42342  0  0.889055  0  0  0.305915  0.406066  0  0.914639  0
H  H31  1  0.46026986  0.84129873  0.77549712  1  0  0.442252  0  0.845403  0  0  0.413445  0  0.903794  0  0  0.423471  0  0.88895  0  0  0.305933  0.406111  0  0.914541  0
H  H32  1  0.09522338  0.09593009  0.13624529  1  0  0.135794  0  0.904971  0  0  0.141878  0  0.960882  0  0  0.145738  0  0.958284  0  0  0.141509  0.13911  0  0.962635  0
H  H33  1  0.90477663  0.40406907  0.63624725  1  0  0.135841  0  0.90496  0  0  0.1419  0  0.960876  0  0  0.145777  0  0.958269  0  0  0.141496  0.13913  0  0.96262  0
H  H34  1  0.90478283  0.90407580  0.86375779  1  0  0.135842  0  0.904981  0  0  0.141908  0  0.9609  0  0  0.145779  0  0.958296  0  0  0.141498  0.139137  0  0.962648  0
H  H35  1  0.09521933  0.59593078  0.36375284  1  0  0.135822  0  0.904928  0  0  0.141866  0  0.96085  0  0  0.14576  0  0.958223  0  0  0.141492  0.139101  0  0.962595  0
C  C36  1  0.95881759  0.13349178  0.15372100  1  0  -0.226883  0  3.694156  0  0  -0.234493  0  3.960051  0  0  -0.240481  0  3.9622  0  0  -6.5e-05  -0.22963  0  3.955064  0
C  C37  1  0.04118490  0.36650626  0.65372043  1  0  -0.227067  0  3.694239  0  0  -0.234572  0  3.960048  0  0  -0.240606  0  3.962208  0  0  -4.3e-05  -0.229703  0  3.95505  0
C  C38  1  0.04118298  0.86650910  0.84628058  1  0  -0.227072  0  3.694168  0  0  -0.234607  0  3.960022  0  0  -0.240626  0  3.962184  0  0  -4.2e-05  -0.229741  0  3.955029  0
C  C39  1  0.95881226  0.63349260  0.34627891  1  0  -0.227112  0  3.694402  0  0  -0.234576  0  3.960178  0  0  -0.240631  0  3.962353  0  0  -3.6e-05  -0.229714  0  3.955188  0
C  C40  1  0.00444013  0.28448592  0.15886522  1  0  0.731098  0  3.807907  0  0  0.676243  0  4.11416  0  0  0.711832  0  4.102022  0  0  0.241892  0.651742  0  4.118632  0
C  C41  1  0.99555309  0.21551004  0.65886322  1  0  0.73126  0  3.808244  0  0  0.676349  0  4.114563  0  0  0.711955  0  4.102408  0  0  0.241995  0.651852  0  4.119034  0
C  C42  1  0.99555532  0.71551194  0.84113861  1  0  0.731216  0  3.807976  0  0  0.676259  0  4.11437  0  0  0.71186  0  4.102218  0  0  0.241878  0.651765  0  4.118835  0
C  C43  1  0.00443920  0.78448681  0.34113239  1  0  0.731283  0  3.807879  0  0  0.67636  0  4.114247  0  0  0.711969  0  4.102091  0  0  0.241955  0.651862  0  4.118723  0
C  C44  1  0.45305075  0.55506049  0.97467921  1  0  0.557988  0  3.924085  0  0  0.513068  0  4.224045  0  0  0.543268  0  4.213554  0  0  0.224868  0.492821  0  4.22557  0
C  C45  1  0.54696539  0.94494728  0.47468095  1  0  0.558056  0  3.924851  0  0  0.51319  0  4.224728  0  0  0.543391  0  4.214234  0  0  0.224919  0.492944  0  4.226263  0
C  C46  1  0.54695981  0.44494542  0.02531714  1  0  0.557996  0  3.92444  0  0  0.513134  0  4.224313  0  0  0.543333  0  4.21382  0  0  0.224938  0.492892  0  4.225839  0
C  C47  1  0.45305610  0.05506167  0.52531690  1  0  0.557921  0  3.924356  0  0  0.513016  0  4.224313  0  0  0.543217  0  4.21382  0  0  0.224837  0.492765  0  4.225845  0
O  O48  1  0.58475184  0.12099892  0.09223251  1  0  -0.732644  0  2.020006  0  0  -0.650239  0  2.23349  0  0  -0.672346  0  2.206155  0  0  -0.365533  -0.6359  0  2.254027  0
O  O49  1  0.41525133  0.37900559  0.59222663  1  0  -0.732608  0  2.020107  0  0  -0.65014  0  2.2335  0  0  -0.672249  0  2.206186  0  0  -0.365524  -0.635814  0  2.254053  0
O  O50  1  0.41525847  0.87900599  0.90776982  1  0  -0.732689  0  2.020051  0  0  -0.650169  0  2.233536  0  0  -0.672282  0  2.206202  0  0  -0.365501  -0.635843  0  2.254105  0
O  O51  1  0.58475027  0.62099928  0.40776973  1  0  -0.732542  0  2.020019  0  0  -0.650153  0  2.233485  0  0  -0.672267  0  2.206144  0  0  -0.36556  -0.63581  0  2.254045  0
O  O52  1  0.84958277  0.14082186  0.95534646  1  0  -0.93166  0  1.966862  0  0  -0.865729  0  2.233128  0  0  -0.889813  0  2.212784  0  0  -0.440126  -0.84107  0  2.248333  0
O  O53  1  0.15041945  0.35918376  0.45534637  1  0  -0.931499  0  1.966958  0  0  -0.865601  0  2.233276  0  0  -0.889687  0  2.21293  0  0  -0.440084  -0.840938  0  2.248488  0
O  O54  1  0.15042770  0.85917806  0.04465364  1  0  -0.93155  0  1.966972  0  0  -0.865617  0  2.233208  0  0  -0.889708  0  2.212877  0  0  -0.440104  -0.840963  0  2.248435  0
O  O55  1  0.84957925  0.64082109  0.54465298  1  0  -0.931684  0  1.966877  0  0  -0.865711  0  2.233077  0  0  -0.889807  0  2.212738  0  0  -0.440128  -0.84105  0  2.248288  0
O  O56  1  0.74859355  0.92333887  0.05801403  1  0  -0.920171  0  1.980094  0  0  -0.857075  0  2.263692  0  0  -0.88096  0  2.241696  0  0  -0.467521  -0.831154  0  2.280671  0
O  O57  1  0.25140705  0.57666414  0.55801562  1  0  -0.920225  0  1.979971  0  0  -0.857125  0  2.263582  0  0  -0.881012  0  2.241579  0  0  -0.467533  -0.831205  0  2.280559  0
O  O58  1  0.25141598  0.07666305  0.94198756  1  0  -0.920193  0  1.980062  0  0  -0.857107  0  2.26367  0  0  -0.880994  0  2.24167  0  0  -0.467514  -0.831188  0  2.280648  0
O  O59  1  0.74858875  0.42334070  0.44198746  1  0  -0.920229  0  1.980114  0  0  -0.85715  0  2.263743  0  0  -0.881036  0  2.241732  0  0  -0.467551  -0.831226  0  2.280722  0
O  O60  1  0.87209888  0.08015005  0.24482500  1  0  -0.5997  0  2.287753  0  0  -0.552139  0  2.526915  0  0  -0.568059  0  2.516911  0  0  -0.43588  -0.534249  0  2.532925  0
O  O61  1  0.12790352  0.41985025  0.74482405  1  0  -0.599677  0  2.287686  0  0  -0.552131  0  2.527007  0  0  -0.568045  0  2.517032  0  0  -0.435921  -0.534249  0  2.533017  0
O  O62  1  0.12790024  0.91985081  0.75517583  1  0  -0.599729  0  2.287737  0  0  -0.552198  0  2.526974  0  0  -0.568109  0  2.51698  0  0  -0.43594  -0.534317  0  2.532988  0
O  O63  1  0.87209679  0.58014962  0.25517530  1  0  -0.59972  0  2.287838  0  0  -0.552138  0  2.526996  0  0  -0.568046  0  2.51702  0  0  -0.435895  -0.534249  0  2.532999  0
O  O64  1  0.07984408  0.34806468  0.08241626  1  0  -0.703279  0  2.056855  0  0  -0.654241  0  2.298319  0  0  -0.679292  0  2.287383  0  0  -0.333107  -0.630909  0  2.307008  0
O  O65  1  0.92016172  0.15193294  0.58242288  1  0  -0.703235  0  2.057382  0  0  -0.654197  0  2.298878  0  0  -0.679242  0  2.287921  0  0  -0.33314  -0.630875  0  2.307569  0
O  O66  1  0.92015649  0.65193619  0.91758383  1  0  -0.703288  0  2.057047  0  0  -0.654214  0  2.298558  0  0  -0.67926  0  2.287606  0  0  -0.333107  -0.630892  0  2.30725  0
O  O67  1  0.07983926  0.84806395  0.41757871  1  0  -0.703322  0  2.05683  0  0  -0.654309  0  2.298363  0  0  -0.67936  0  2.287416  0  0  -0.333163  -0.63098  0  2.307054  0
O  O68  1  0.95997636  0.33920127  0.23945531  1  0  -0.671779  0  2.001894  0  0  -0.615223  0  2.235517  0  0  -0.639119  0  2.222769  0  0  -0.355224  -0.59166  0  2.245701  0
O  O69  1  0.04002216  0.16079507  0.73945926  1  0  -0.67185  0  2.001763  0  0  -0.615295  0  2.23542  0  0  -0.639192  0  2.222664  0  0  -0.355263  -0.591727  0  2.245602  0
O  O70  1  0.04002131  0.66079959  0.76054404  1  0  -0.671793  0  2.001822  0  0  -0.61522  0  2.23554  0  0  -0.639118  0  2.222791  0  0  -0.355239  -0.591661  0  2.24572  0
O  O71  1  0.95997525  0.83920479  0.26054233  1  0  -0.671743  0  2.001824  0  0  -0.615251  0  2.23555  0  0  -0.639148  0  2.222792  0  0  -0.355209  -0.591684  0  2.245742  0
O  O72  1  0.30060412  0.51954660  0.92287764  1  0  -0.635523  0  2.068317  0  0  -0.595754  0  2.313125  0  0  -0.617029  0  2.303646  0  0  -0.356409  -0.574734  0  2.320798  0
O  O73  1  0.69939201  0.98044952  0.42288864  1  0  -0.635461  0  2.069371  0  0  -0.595704  0  2.314155  0  0  -0.616977  0  2.304671  0  0  -0.356426  -0.574698  0  2.321846  0
O  O74  1  0.69939619  0.48045328  0.07711199  1  0  -0.635472  0  2.068874  0  0  -0.595747  0  2.313713  0  0  -0.61702  0  2.304229  0  0  -0.35646  -0.574736  0  2.321397  0
O  O75  1  0.30059764  0.01954831  0.57711817  1  0  -0.635473  0  2.06822  0  0  -0.595706  0  2.313027  0  0  -0.616985  0  2.303549  0  0  -0.356388  -0.574687  0  2.320705  0
O  O76  1  0.53554586  0.67498877  0.99281375  1  0  -0.657692  0  2.126086  0  0  -0.601391  0  2.358692  0  0  -0.626544  0  2.349553  0  0  -0.341377  -0.578367  0  2.36553  0
O  O77  1  0.46444986  0.82500779  0.49281986  1  0  -0.65772  0  2.125682  0  0  -0.60148  0  2.358246  0  0  -0.626638  0  2.349108  0  0  -0.341398  -0.578448  0  2.365079  0
O  O78  1  0.46445632  0.32500713  0.00717813  1  0  -0.657689  0  2.125731  0  0  -0.601444  0  2.35832  0  0  -0.626598  0  2.349181  0  0  -0.341426  -0.578423  0  2.365159  0
O  O79  1  0.53555232  0.17498811  0.50718472  1  0  -0.657637  0  2.126305  0  0  -0.601383  0  2.358909  0  0  -0.626534  0  2.349767  0  0  -0.341376  -0.578356  0  2.365742  0
O  O80  1  0.84993441  0.38790074  0.88825414  1  0  -0.880827  0  1.904132  0  0  -0.831747  0  2.093528  0  0  -0.850191  0  2.065101  0  0  -0.611393  -0.812524  0  2.115086  0
O  O81  1  0.15006689  0.11209943  0.38825948  1  0  -0.880844  0  1.903861  0  0  -0.831777  0  2.093234  0  0  -0.850221  0  2.064809  0  0  -0.61137  -0.812552  0  2.114788  0
O  O82  1  0.15006564  0.61209814  0.11174371  1  0  -0.880944  0  1.903886  0  0  -0.83179  0  2.0934  0  0  -0.850235  0  2.064973  0  0  -0.611385  -0.812566  0  2.11496  0
O  O83  1  0.84993171  0.88789944  0.61174584  1  0  -0.880898  0  1.903937  0  0  -0.831757  0  2.093403  0  0  -0.850202  0  2.064976  0  0  -0.611352  -0.812534  0  2.114957  0
O  O84  1  0.46658460  0.30087164  0.79113334  1  0  -0.896631  0  1.806743  0  0  -0.85704  0  1.969456  0  0  -0.872921  0  1.938801  0  0  -0.633255  -0.838408  0  1.996432  0
O  O85  1  0.53342017  0.19912233  0.29114202  1  0  -0.896761  0  1.806695  0  0  -0.85716  0  1.969407  0  0  -0.873043  0  1.938748  0  0  -0.633269  -0.838522  0  1.996376  0
O  O86  1  0.53341545  0.69912724  0.20886227  1  0  -0.896649  0  1.806783  0  0  -0.857057  0  1.969496  0  0  -0.872939  0  1.938839  0  0  -0.633223  -0.838422  0  1.996476  0
O  O87  1  0.46657741  0.80087255  0.70886404  1  0  -0.896732  0  1.806681  0  0  -0.857151  0  1.969418  0  0  -0.873034  0  1.938759  0  0  -0.633308  -0.838522  0  1.9964  0
