# generated using pymatgen
data_Cu3H16C24(N10Cl)2
_symmetry_space_group_name_H-M   'P 1'
_cell_length_a   12.17191520
_cell_length_b   15.66851560
_cell_length_c   15.37032173
_cell_angle_alpha   90.00000701
_cell_angle_beta   90.00011103
_cell_angle_gamma   89.99998087
_symmetry_Int_Tables_number   1
_chemical_formula_structural   Cu3H16C24(N10Cl)2
_chemical_formula_sum   'Cu6 H32 C48 N40 Cl4'
_cell_volume   2931.36386865
_cell_formula_units_Z   2
loop_
 _symmetry_equiv_pos_site_id
 _symmetry_equiv_pos_as_xyz
  1  'x, y, z'
loop_
 _atom_site_type_symbol
 _atom_site_label
 _atom_site_symmetry_multiplicity
 _atom_site_fract_x
 _atom_site_fract_y
 _atom_site_fract_z
 _atom_site_occupancy
 _atom_site_pbe_bader_charge
 _atom_site_pbe_bader_spin_density
 _atom_site_pbe_cm5_charge
 _atom_site_pbe_ddec_charge
 _atom_site_pbe_ddec_spin_density
 _atom_site_pbe_ddec_sum_bond_order
 _atom_site_pbe_magmom
Cu  Cu0  1  0.00000000  0.00000000  0.00000065  1  1.046547  0.596641  0.771145  0.589258  0.754628  2.474415  0.595
Cu  Cu1  1  0.49999988  0.50000011  0.50000036  1  1.046574  0.596642  0.771147  0.589285  0.754627  2.474397  0.595
Cu  Cu2  1  0.15467576  0.00000027  0.18707044  1  0.984331  0.561549  0.745322  0.546957  0.710807  2.55383  0.562
Cu  Cu3  1  0.84532379  0.00000022  0.81292969  1  0.98442  0.56157  0.745323  0.546958  0.710831  2.553866  0.562
Cu  Cu4  1  0.34532437  0.50000014  0.68707114  1  0.984395  0.561551  0.745329  0.546962  0.71081  2.553826  0.562
Cu  Cu5  1  0.65467457  0.50000007  0.31292892  1  0.984396  0.561551  0.745345  0.546972  0.710808  2.55383  0.562
H  H6  1  0.76940721  0.71932586  0.08376401  1  0.116661  0.001541  0.119633  0.133118  0.000821  0.979816  0.001
H  H7  1  0.66267391  0.59625104  0.14505216  1  0.10095  0.002524  0.120072  0.084173  0.00099  0.985818  0.002
H  H8  1  0.84146364  0.59806167  0.37389917  1  0.191627  0.002507  0.10966  0.103337  0.001215  1.022617  0.002
H  H9  1  0.95784704  0.72174472  0.32162449  1  0.104745  0.001274  0.11625  0.126659  0.000691  0.986731  0.001
H  H10  1  0.23059245  0.71932598  0.91623478  1  0.116676  0.001541  0.119639  0.133126  0.000821  0.979827  0.001
H  H11  1  0.33732499  0.59625177  0.85494727  1  0.100973  0.002524  0.120062  0.084155  0.00099  0.985868  0.002
H  H12  1  0.15853609  0.59806178  0.62610091  1  0.191618  0.002507  0.109653  0.103325  0.001215  1.022629  0.002
H  H13  1  0.04215263  0.72174486  0.67837495  1  0.104724  0.001274  0.116257  0.126682  0.000691  0.986689  0.001
H  H14  1  0.73059223  0.78067376  0.58376588  1  0.116581  0.001541  0.119628  0.133122  0.000821  0.97981  0.001
H  H15  1  0.83732487  0.90374923  0.64505291  1  0.100977  0.002525  0.120081  0.084159  0.00099  0.985853  0.002
H  H16  1  0.65853652  0.90193863  0.87390029  1  0.1916  0.002508  0.109656  0.103328  0.001216  1.022607  0.002
H  H17  1  0.54215299  0.77825494  0.82162542  1  0.104696  0.001273  0.116249  0.126668  0.000691  0.98669  0.001
H  H18  1  0.26940988  0.78067637  0.41623487  1  0.116612  0.001541  0.119625  0.133131  0.000821  0.979844  0.001
H  H19  1  0.16267554  0.90374994  0.35494526  1  0.100992  0.002523  0.120077  0.084167  0.000989  0.985827  0.002
H  H20  1  0.34146471  0.90193799  0.12609917  1  0.19159  0.002507  0.109651  0.103325  0.001216  1.022586  0.002
H  H21  1  0.45784830  0.77825491  0.17837467  1  0.104621  0.001274  0.116247  0.126657  0.000691  0.986687  0.001
H  H22  1  0.23059255  0.28067371  0.91623476  1  0.116654  0.001541  0.119625  0.133112  0.000821  0.979854  0.001
H  H23  1  0.33732503  0.40374853  0.85494725  1  0.100971  0.002524  0.120075  0.084162  0.000989  0.985856  0.002
H  H24  1  0.15853613  0.40193854  0.62610090  1  0.191621  0.002507  0.109657  0.103332  0.001215  1.022615  0.002
H  H25  1  0.04215273  0.27825549  0.67837492  1  0.104729  0.001273  0.11626  0.126689  0.000691  0.986685  0.001
H  H26  1  0.76940731  0.28067423  0.08376398  1  0.116662  0.001541  0.119634  0.133118  0.000821  0.979816  0.001
H  H27  1  0.66267395  0.40374908  0.14505215  1  0.10095  0.002524  0.120072  0.084174  0.00099  0.985818  0.002
H  H28  1  0.84146368  0.40193844  0.37389915  1  0.191628  0.002507  0.109664  0.103327  0.001216  1.02262  0.002
H  H29  1  0.95784713  0.27825535  0.32162447  1  0.104736  0.001273  0.11625  0.126661  0.000691  0.986756  0.001
H  H30  1  0.26941000  0.21932389  0.41623484  1  0.116607  0.001541  0.119626  0.133121  0.000821  0.979842  0.001
H  H31  1  0.16267572  0.09625034  0.35494586  1  0.100996  0.002524  0.120085  0.084164  0.00099  0.985811  0.002
H  H32  1  0.34146489  0.09806158  0.12609977  1  0.191594  0.002507  0.109651  0.103316  0.001215  1.022602  0.002
H  H33  1  0.45784842  0.22174463  0.17837529  1  0.104629  0.001274  0.116252  0.126677  0.000691  0.986683  0.001
H  H34  1  0.73059235  0.21932640  0.58376584  1  0.116579  0.001541  0.119624  0.133136  0.000821  0.97981  0.001
H  H35  1  0.83732422  0.09625091  0.64505351  1  0.100988  0.002525  0.120071  0.08414  0.00099  0.985866  0.002
H  H36  1  0.65853669  0.09806159  0.87390024  1  0.191599  0.002508  0.109656  0.103328  0.001216  1.022612  0.002
H  H37  1  0.54215229  0.22174466  0.82162539  1  0.10472  0.001273  0.116247  0.126665  0.000691  0.986679  0.001
C  C38  1  0.93236686  0.80474492  0.16787038  1  0.959314  0.007482  0.210431  0.212983  0.005852  4.05601  0.009
C  C39  1  0.87221369  0.73030967  0.19834855  1  0.002502  -0.002808  0.024108  0.092135  -0.003511  3.991797  -0.002
C  C40  1  0.78871075  0.69346062  0.14774772  1  -0.019692  0.007104  -0.075276  -0.156027  0.004793  3.917695  0.006
C  C41  1  0.73004214  0.62507700  0.18135464  1  0.480811  -0.00016  0.045768  0.083107  -0.000799  3.98445  0.0
C  C42  1  0.83116854  0.62658511  0.30950233  1  0.431396  -0.000948  0.049023  0.099103  -0.00178  3.909923  -0.001
C  C43  1  0.89360074  0.69503383  0.28051925  1  -0.022729  0.006977  -0.07453  -0.154242  0.004649  3.916659  0.006
C  C44  1  0.06763277  0.80474507  0.83212907  1  0.959314  0.007482  0.210425  0.213009  0.005852  4.055996  0.009
C  C45  1  0.12778515  0.73030980  0.80165090  1  0.002497  -0.002808  0.0241  0.092134  -0.003511  3.991922  -0.002
C  C46  1  0.21128893  0.69346137  0.85225172  1  -0.019691  0.007104  -0.075261  -0.156023  0.004793  3.917704  0.006
C  C47  1  0.26995674  0.62507710  0.81864544  1  0.480811  -0.00016  0.045776  0.083147  -0.0008  3.984465  0.0
C  C48  1  0.16883035  0.62658458  0.69049710  1  0.431385  -0.000949  0.049061  0.09915  -0.00178  3.909886  -0.001
C  C49  1  0.10639812  0.69503396  0.71948018  1  -0.022739  0.006977  -0.074556  -0.154304  0.004649  3.916642  0.006
C  C50  1  0.56763279  0.69525536  0.66787134  1  0.959254  0.007484  0.210412  0.212975  0.005853  4.056034  0.009
C  C51  1  0.62778604  0.76969061  0.69834830  1  0.002495  -0.002806  0.024115  0.092114  -0.003509  3.991949  -0.002
C  C52  1  0.71128803  0.80653902  0.64774956  1  -0.019586  0.007109  -0.075241  -0.15599  0.004797  3.917834  0.006
C  C53  1  0.76995672  0.87492328  0.68135528  1  0.48034  -0.000169  0.045792  0.083164  -0.000811  3.984481  0.0
C  C54  1  0.66883064  0.87341518  0.80950347  1  0.431371  -0.000959  0.049028  0.099101  -0.001792  3.90986  -0.001
C  C55  1  0.60639919  0.80496582  0.78052094  1  -0.0227  0.006983  -0.074532  -0.154245  0.004653  3.916533  0.006
C  C56  1  0.43236771  0.69525600  0.33212875  1  0.95925  0.007482  0.210394  0.212899  0.005852  4.056075  0.009
C  C57  1  0.37221525  0.76969062  0.30165049  1  0.002502  -0.002808  0.024121  0.092193  -0.003511  3.991867  -0.002
C  C58  1  0.28871325  0.80654033  0.35225119  1  -0.01958  0.007103  -0.075277  -0.156088  0.004793  3.917829  0.006
C  C59  1  0.23004371  0.87492397  0.31864418  1  0.480617  -0.00016  0.045792  0.083146  -0.000799  3.984443  0.0
C  C60  1  0.33117061  0.87341519  0.19049600  1  0.43136  -0.000948  0.049075  0.099129  -0.001779  3.909821  -0.001
C  C61  1  0.39360290  0.80496645  0.21947917  1  -0.022671  0.006977  -0.07452  -0.154236  0.004649  3.916539  0.006
C  C62  1  0.06763290  0.19525530  0.83212903  1  0.959251  0.007482  0.210421  0.213002  0.005852  4.056013  0.009
C  C63  1  0.12778525  0.26968991  0.80165087  1  0.002482  -0.002808  0.024092  0.092104  -0.003511  3.991985  -0.002
C  C64  1  0.21128819  0.30653831  0.85225170  1  -0.019663  0.007104  -0.075225  -0.155951  0.004793  3.917707  0.006
C  C65  1  0.26995680  0.37492321  0.81864542  1  0.480825  -0.00016  0.045756  0.083085  -0.000799  3.984465  0.0
C  C66  1  0.16883040  0.37341574  0.69049774  1  0.431388  -0.000949  0.049056  0.099132  -0.00178  3.909846  -0.001
C  C67  1  0.10639821  0.30496638  0.71948016  1  -0.022736  0.006977  -0.074556  -0.154306  0.004649  3.916634  0.006
C  C68  1  0.93236699  0.19525514  0.16787034  1  0.959312  0.007482  0.210407  0.212938  0.005852  4.056073  0.009
C  C69  1  0.87221379  0.26969041  0.19834852  1  0.002499  -0.002808  0.024103  0.092141  -0.003511  3.991814  -0.002
C  C70  1  0.78871084  0.30653947  0.14774769  1  -0.019691  0.007104  -0.075274  -0.15602  0.004793  3.917692  0.006
C  C71  1  0.73004220  0.37492312  0.18135463  1  0.480805  -0.00016  0.045768  0.083098  -0.000799  3.984451  0.0
C  C72  1  0.83116859  0.37341435  0.30950231  1  0.431411  -0.000949  0.049045  0.099168  -0.00178  3.909875  -0.001
C  C73  1  0.89360164  0.30496561  0.28051923  1  -0.022742  0.006977  -0.074536  -0.154277  0.004649  3.916706  0.006
C  C74  1  0.43236780  0.30474421  0.33212938  1  0.959313  0.007482  0.210396  0.212917  0.005852  4.056053  0.009
C  C75  1  0.37221537  0.23030896  0.30165111  1  0.002505  -0.002808  0.024144  0.092182  -0.003511  3.991847  -0.002
C  C76  1  0.28871338  0.19345928  0.35225181  1  -0.019601  0.007103  -0.075285  -0.156073  0.004793  3.91776  0.006
C  C77  1  0.23004469  0.12507629  0.31864413  1  0.480261  -0.000158  0.045822  0.083239  -0.000799  3.984422  0.0
C  C78  1  0.33116995  0.12658503  0.19049595  1  0.431376  -0.000949  0.049055  0.099156  -0.00178  3.909837  -0.001
C  C79  1  0.39360304  0.19503375  0.21947978  1  -0.022665  0.006977  -0.074568  -0.154322  0.004649  3.916581  0.006
C  C80  1  0.56763287  0.30474485  0.66787131  1  0.959266  0.007484  0.21042  0.212981  0.005854  4.055985  0.009
C  C81  1  0.62778615  0.23030959  0.69834957  1  0.002501  -0.002806  0.024135  0.092202  -0.003509  3.991849  -0.002
C  C82  1  0.71128816  0.19346116  0.64774952  1  -0.019568  0.007109  -0.075265  -0.156094  0.004797  3.917801  0.006
C  C83  1  0.76995688  0.12507688  0.68135589  1  0.480611  -0.000171  0.045791  0.08321  -0.00081  3.984492  0.0
C  C84  1  0.66883080  0.12658438  0.80950342  1  0.431372  -0.00096  0.049047  0.099111  -0.001792  3.909842  -0.001
C  C85  1  0.60639850  0.19503376  0.78052090  1  -0.022737  0.006983  -0.074535  -0.154259  0.004653  3.916506  0.006
N  N86  1  0.98221757  0.90884858  0.09097158  1  -0.141317  0.085207  -0.122493  -0.013281  0.057985  3.576762  0.077
N  N87  1  0.03885913  0.91060126  0.16554119  1  -0.190189  0.083226  -0.133269  -0.042204  0.056409  3.612403  0.076
N  N88  1  0.00941438  0.84600549  0.21542301  1  -0.60091  0.010671  -0.210582  -0.252397  0.005755  3.186975  0.008
N  N89  1  0.91502109  0.84304273  0.09027798  1  -0.590689  0.010992  -0.196228  -0.214993  0.005941  3.149935  0.008
N  N90  1  0.75060598  0.59232150  0.26069912  1  -1.224276  0.104533  -0.344318  -0.205612  0.067801  3.630776  0.091
N  N91  1  0.01778284  0.90884875  0.90902789  1  -0.140891  0.085209  -0.122471  -0.013242  0.057986  3.576651  0.077
N  N92  1  0.96114045  0.91060182  0.83445893  1  -0.190189  0.083224  -0.133306  -0.042243  0.056408  3.612335  0.076
N  N93  1  0.99058606  0.84600603  0.78457645  1  -0.600937  0.01067  -0.210568  -0.252404  0.005754  3.186969  0.008
N  N94  1  0.08497770  0.84304289  0.90972213  1  -0.591086  0.010993  -0.196234  -0.215011  0.005942  3.149854  0.008
N  N95  1  0.24939292  0.59232160  0.73930095  1  -1.224246  0.104535  -0.344331  -0.205649  0.067803  3.630778  0.091
N  N96  1  0.51778189  0.59115169  0.59097310  1  -0.140844  0.085207  -0.122536  -0.013362  0.057986  3.576924  0.077
N  N97  1  0.46114012  0.58939851  0.66554144  1  -0.190204  0.083226  -0.133247  -0.042127  0.056409  3.612392  0.076
N  N98  1  0.49058664  0.65399365  0.71542461  1  -0.600905  0.01067  -0.210587  -0.252429  0.005753  3.186935  0.008
N  N99  1  0.58497837  0.65695690  0.59027896  1  -0.591089  0.01099  -0.196214  -0.214979  0.00594  3.149933  0.008
N  N100  1  0.74939308  0.90767878  0.76070039  1  -1.223801  0.104537  -0.344346  -0.205634  0.067806  3.630758  0.091
N  N101  1  0.48221783  0.59115169  0.40902763  1  -0.141299  0.085207  -0.122503  -0.013271  0.057985  3.576735  0.077
N  N102  1  0.53885961  0.58939848  0.33445929  1  -0.190217  0.083227  -0.133292  -0.042241  0.05641  3.612417  0.076
N  N103  1  0.50941470  0.65399426  0.28457678  1  -0.600864  0.010671  -0.210594  -0.252393  0.005755  3.187025  0.008
N  N104  1  0.41502215  0.65695754  0.40972178  1  -0.590672  0.010991  -0.196196  -0.214939  0.005941  3.149872  0.008
N  N105  1  0.25060815  0.90767818  0.23929843  1  -1.224044  0.104537  -0.344353  -0.205611  0.067803  3.630748  0.091
N  N106  1  0.01778301  0.09115100  0.90902784  1  -0.140887  0.085207  -0.12247  -0.013195  0.057985  3.576598  0.077
N  N107  1  0.96114063  0.08939831  0.83445888  1  -0.190204  0.083224  -0.133287  -0.042271  0.056408  3.612375  0.076
N  N108  1  0.99058539  0.15399409  0.78457641  1  -0.600865  0.01067  -0.210583  -0.252406  0.005754  3.18702  0.008
N  N109  1  0.08497785  0.15695748  0.90972209  1  -0.591088  0.010993  -0.196229  -0.215013  0.005942  3.149825  0.008
N  N110  1  0.24939296  0.40767871  0.73930094  1  -1.224272  0.104534  -0.344351  -0.205621  0.067802  3.630775  0.091
N  N111  1  0.98221775  0.09115210  0.09097218  1  -0.141276  0.085207  -0.122517  -0.013292  0.057985  3.576827  0.077
N  N112  1  0.03885931  0.08939903  0.16554114  1  -0.19012  0.083226  -0.133262  -0.042187  0.056409  3.612357  0.076
N  N113  1  0.00941370  0.15399482  0.21542361  1  -0.60093  0.010671  -0.210563  -0.252387  0.005755  3.18693  0.008
N  N114  1  0.91502124  0.15695732  0.09027794  1  -0.590722  0.010992  -0.196218  -0.214982  0.005941  3.14999  0.008
N  N115  1  0.75060602  0.40767798  0.26069976  1  -1.224249  0.104534  -0.344335  -0.205634  0.067802  3.630747  0.091
N  N116  1  0.48221787  0.40884852  0.40902762  1  -0.140864  0.085207  -0.122495  -0.013256  0.057985  3.57671  0.077
N  N117  1  0.53885965  0.41060107  0.33445928  1  -0.190212  0.083227  -0.133287  -0.042269  0.05641  3.612432  0.076
N  N118  1  0.50941477  0.34600529  0.28457741  1  -0.600914  0.010672  -0.210571  -0.25234  0.005755  3.186994  0.008
N  N119  1  0.41502222  0.34304268  0.40972241  1  -0.591113  0.010992  -0.196241  -0.215003  0.00594  3.149846  0.008
N  N120  1  0.25060751  0.09232143  0.23929903  1  -1.223705  0.104531  -0.344347  -0.205666  0.067801  3.63081  0.091
N  N121  1  0.51778193  0.40884853  0.59097244  1  -0.140858  0.085206  -0.122492  -0.013259  0.057985  3.576752  0.077
N  N122  1  0.46114016  0.41060110  0.66554142  1  -0.190196  0.083228  -0.133297  -0.042258  0.056411  3.612427  0.076
N  N123  1  0.49058588  0.34600659  0.71542459  1  -0.600905  0.01067  -0.21059  -0.252406  0.005753  3.186942  0.008
N  N124  1  0.58497844  0.34304330  0.59027894  1  -0.591088  0.010991  -0.19622  -0.214995  0.00594  3.149925  0.008
N  N125  1  0.74939325  0.09232139  0.76070034  1  -1.224078  0.104539  -0.344356  -0.205658  0.067806  3.630807  0.091
Cl  Cl126  1  0.22297707  0.00000025  0.03756483  1  -0.704097  -0.000116  -0.407403  -0.633303  -0.00175  1.120769  0.003
Cl  Cl127  1  0.77702248  0.00000024  0.96243464  1  -0.704093  -0.000118  -0.407387  -0.633311  -0.001751  1.120806  0.003
Cl  Cl128  1  0.27702269  0.50000014  0.53756544  1  -0.704087  -0.000116  -0.407391  -0.633306  -0.00175  1.120788  0.003
Cl  Cl129  1  0.72297707  0.50000007  0.46243398  1  -0.704076  -0.000115  -0.407388  -0.633307  -0.001749  1.120789  0.003
