# generated using pymatgen
data_ZnH14C14(N2O)6
_symmetry_space_group_name_H-M   'P 1'
_cell_length_a   7.28529949
_cell_length_b   7.89264208
_cell_length_c   9.08396435
_cell_angle_alpha   93.56792471
_cell_angle_beta   96.51321445
_cell_angle_gamma   115.05323789
_symmetry_Int_Tables_number   1
_chemical_formula_structural   ZnH14C14(N2O)6
_chemical_formula_sum   'Zn1 H14 C14 N12 O6'
_cell_volume   466.59135707
_cell_formula_units_Z   1
loop_
 _symmetry_equiv_pos_site_id
 _symmetry_equiv_pos_as_xyz
  1  'x, y, z'
loop_
 _atom_site_type_symbol
 _atom_site_label
 _atom_site_symmetry_multiplicity
 _atom_site_fract_x
 _atom_site_fract_y
 _atom_site_fract_z
 _atom_site_occupancy
 _atom_site_hle17_bader_spin_density
 _atom_site_hle17_ddec_charge
 _atom_site_hle17_ddec_spin_density
 _atom_site_hle17_ddec_sum_bond_order
 _atom_site_hle17_magmom
 _atom_site_hse06_10hf_bader_spin_density
 _atom_site_hse06_10hf_ddec_charge
 _atom_site_hse06_10hf_ddec_spin_density
 _atom_site_hse06_10hf_ddec_sum_bond_order
 _atom_site_hse06_10hf_magmom
 _atom_site_hse06_bader_spin_density
 _atom_site_hse06_ddec_charge
 _atom_site_hse06_ddec_spin_density
 _atom_site_hse06_ddec_sum_bond_order
 _atom_site_hse06_magmom
 _atom_site_pbe_bader_spin_density
 _atom_site_pbe_cm5_charge
 _atom_site_pbe_ddec_charge
 _atom_site_pbe_ddec_spin_density
 _atom_site_pbe_ddec_sum_bond_order
 _atom_site_pbe_magmom
Zn  Zn0  1  0.00000050  0.00000349  0.00000254  1  0  1.049828  0  1.810923  0  0  0.876618  0  2.251941  0  0  0.923767  0  2.199432  0  0  0.66127  0.844006  0  2.287696  0
H  H1  1  0.36785454  0.09865140  0.08790115  1  0  0.404612  0  0.907801  0  0  0.374497  0  0.973522  0  0  0.386128  0  0.956778  0  0  0.285712  0.366353  0  0.985208  0
H  H2  1  0.63214503  0.90134686  0.91210005  1  0  0.40465  0  0.907736  0  0  0.37455  0  0.97344  0  0  0.38618  0  0.956696  0  0  0.285733  0.366404  0  0.985126  0
H  H3  1  0.36654982  0.29838355  0.05958284  1  0  0.392089  0  0.919656  0  0  0.350234  0  1.005435  0  0  0.360649  0  0.990322  0  0  0.290164  0.342867  0  1.016133  0
H  H4  1  0.63345108  0.70161471  0.94042180  1  0  0.392121  0  0.919553  0  0  0.350261  0  1.005402  0  0  0.360677  0  0.990286  0  0  0.290202  0.342897  0  1.016096  0
H  H5  1  0.09767553  0.58079242  0.29166521  1  0  0.132421  0  0.952244  0  0  0.13286  0  1.030502  0  0  0.136215  0  1.028077  0  0  0.122915  0.130423  0  1.032311  0
H  H6  1  0.90232351  0.41920163  0.70833352  1  0  0.132429  0  0.952229  0  0  0.132832  0  1.030507  0  0  0.136197  0  1.028087  0  0  0.122887  0.1304  0  1.032301  0
H  H7  1  0.12018665  0.48506796  0.11261081  1  0  0.143923  0  0.93788  0  0  0.150659  0  1.001767  0  0  0.154333  0  0.999191  0  0  0.127033  0.148016  0  1.003605  0
H  H8  1  0.87981658  0.51492613  0.88738615  1  0  0.14393  0  0.937903  0  0  0.150656  0  1.00179  0  0  0.154337  0  0.999205  0  0  0.127037  0.148013  0  1.003628  0
H  H9  1  0.70072809  0.85261493  0.66904988  1  0  0.103992  0  0.955293  0  0  0.108435  0  1.024148  0  0  0.111994  0  1.021577  0  0  0.122919  0.105781  0  1.026164  0
H  H10  1  0.29927005  0.14738613  0.33094912  1  0  0.104017  0  0.955256  0  0  0.108443  0  1.024142  0  0  0.111981  0  1.021598  0  0  0.122923  0.105791  0  1.026154  0
H  H11  1  0.29526022  0.93640080  0.82410296  1  0  0.113575  0  0.962353  0  0  0.11862  0  1.025138  0  0  0.122162  0  1.022196  0  0  0.123718  0.115806  0  1.027768  0
H  H12  1  0.70473941  0.06359465  0.17589920  1  0  0.113607  0  0.962323  0  0  0.118637  0  1.025133  0  0  0.12218  0  1.02219  0  0  0.123748  0.115827  0  1.027766  0
H  H13  1  0.31234086  0.78456250  0.57622974  1  0  0.091204  0  0.951397  0  0  0.089315  0  1.029215  0  0  0.09355  0  1.025371  0  0  0.115189  0.086352  0  1.031855  0
H  H14  1  0.68766263  0.21544703  0.42376803  1  0  0.091226  0  0.951417  0  0  0.089348  0  1.029232  0  0  0.093583  0  1.025386  0  0  0.115211  0.086382  0  1.031875  0
C  C15  1  0.21306929  0.78715617  0.14499428  1  0  0.706128  0  3.839799  0  0  0.654947  0  4.142383  0  0  0.688623  0  4.134965  0  0  0.219806  0.632084  0  4.146793  0
C  C16  1  0.78692758  0.21284208  0.85500225  1  0  0.70616  0  3.839844  0  0  0.655009  0  4.142366  0  0  0.688692  0  4.13495  0  0  0.219862  0.632149  0  4.146778  0
C  C17  1  0.19372646  0.60267771  0.20285364  1  0  -0.229705  0  3.574963  0  0  -0.283056  0  3.825231  0  0  -0.285845  0  3.82927  0  0  -0.050135  -0.280852  0  3.822389  0
C  C18  1  0.80627530  0.39731918  0.79714331  1  0  -0.22976  0  3.575091  0  0  -0.283059  0  3.825301  0  0  -0.285879  0  3.829353  0  0  -0.050121  -0.280855  0  3.822459  0
C  C19  1  0.66927073  0.66923498  0.39202431  1  0  0.216648  0  3.788611  0  0  0.194967  0  4.074625  0  0  0.201037  0  4.091974  0  0  0.220145  0.190853  0  4.063271  0
C  C20  1  0.33073083  0.33076751  0.60797510  1  0  0.216643  0  3.788638  0  0  0.194942  0  4.074681  0  0  0.201011  0  4.092031  0  0  0.220103  0.190827  0  4.063329  0
C  C21  1  0.84448581  0.74514694  0.51276864  1  0  0.111655  0  3.780178  0  0  0.116624  0  4.029777  0  0  0.117187  0  4.050958  0  0  0.124217  0.115634  0  4.016021  0
C  C22  1  0.15551500  0.25485695  0.48723188  1  0  0.111654  0  3.78027  0  0  0.116633  0  4.029886  0  0  0.117197  0  4.051064  0  0  0.124203  0.115643  0  4.01613  0
C  C23  1  0.83561062  0.83294390  0.64919354  1  0  0.051461  0  3.643176  0  0  0.008608  0  3.904027  0  0  0.011211  0  3.921799  0  0  0.052709  0.006991  0  3.892517  0
C  C24  1  0.16438748  0.16705433  0.35081192  1  0  0.051451  0  3.643108  0  0  0.008581  0  3.904039  0  0  0.011199  0  3.921818  0  0  0.052685  0.006966  0  3.892526  0
C  C25  1  0.16430447  0.87927296  0.73538402  1  0  0.093665  0  3.626498  0  0  0.06064  0  3.879605  0  0  0.06497  0  3.89548  0  0  0.057694  0.05777  0  3.869086  0
C  C26  1  0.83569716  0.12072672  0.26461637  1  0  0.093609  0  3.626492  0  0  0.060611  0  3.879602  0  0  0.06494  0  3.895479  0  0  0.057668  0.057734  0  3.869089  0
C  C27  1  0.17321518  0.79532871  0.59804722  1  0  0.087347  0  3.672859  0  0  0.063482  0  3.940138  0  0  0.06445  0  3.955236  0  0  0.059463  0.062961  0  3.929596  0
C  C28  1  0.82678498  0.20467376  0.40195315  1  0  0.087341  0  3.672745  0  0  0.063438  0  3.940071  0  0  0.064411  0  3.95516  0  0  0.059426  0.062917  0  3.929534  0
N  N29  1  0.50259079  0.70253696  0.39110287  1  0  -0.277657  0  2.820023  0  0  -0.268041  0  3.093576  0  0  -0.273677  0  3.106495  0  0  -0.178717  -0.264012  0  3.084888  0
N  N30  1  0.49741359  0.29746556  0.60889463  1  0  -0.277694  0  2.820155  0  0  -0.268061  0  3.093695  0  0  -0.273698  0  3.106615  0  0  -0.178703  -0.264035  0  3.085009  0
N  N31  1  0.38899177  0.60685691  0.26286867  1  0  0.261569  0  3.531418  0  0  0.30381  0  3.811931  0  0  0.300928  0  3.833909  0  0  0.003099  0.305471  0  3.797345  0
N  N32  1  0.61101130  0.39314280  0.73712855  1  0  0.261555  0  3.531567  0  0  0.30378  0  3.812075  0  0  0.300904  0  3.834058  0  0  0.003071  0.30544  0  3.797489  0
N  N33  1  0.47723233  0.51775865  0.18758467  1  0  -0.108652  0  2.935426  0  0  -0.080483  0  3.208703  0  0  -0.08013  0  3.217612  0  0  -0.054773  -0.08059  0  3.203202  0
N  N34  1  0.52276938  0.48223823  0.81241558  1  0  -0.108564  0  2.935408  0  0  -0.080364  0  3.208667  0  0  -0.080011  0  3.217572  0  0  -0.054717  -0.080471  0  3.203166  0
N  N35  1  0.65428241  0.55499460  0.26817282  1  0  -0.210353  0  2.886103  0  0  -0.206803  0  3.167591  0  0  -0.211398  0  3.177234  0  0  -0.1829  -0.203945  0  3.161529  0
N  N36  1  0.34572338  0.44500512  0.73182798  1  0  -0.210365  0  2.88613  0  0  -0.206821  0  3.167631  0  0  -0.211414  0  3.177272  0  0  -0.182888  -0.203967  0  3.161571  0
N  N37  1  0.99487750  0.89686397  0.76068552  1  0  -0.269475  0  3.220165  0  0  -0.200421  0  3.487061  0  0  -0.214347  0  3.50408  0  0  -0.297368  -0.191446  0  3.475957  0
N  N38  1  0.00511925  0.10313426  0.23931759  1  0  -0.269463  0  3.220167  0  0  -0.200401  0  3.487062  0  0  -0.214327  0  3.504074  0  0  -0.297338  -0.191426  0  3.47596  0
N  N39  1  0.01384645  0.72588471  0.48761740  1  0  -0.262782  0  3.034559  0  0  -0.233371  0  3.295278  0  0  -0.24014  0  3.31101  0  0  -0.283807  -0.228346  0  3.284585  0
N  N40  1  0.98615775  0.27412342  0.51238147  1  0  -0.262766  0  3.034491  0  0  -0.233316  0  3.295176  0  0  -0.240086  0  3.310912  0  0  -0.283775  -0.228291  0  3.284483  0
O  O41  1  0.05395143  0.76910273  0.05822390  1  0  -0.638479  0  2.035664  0  0  -0.569214  0  2.290184  0  0  -0.59834  0  2.279592  0  0  -0.317651  -0.549035  0  2.29704  0
O  O42  1  0.94604621  0.23089412  0.94177043  1  0  -0.638467  0  2.035694  0  0  -0.569224  0  2.290236  0  0  -0.598349  0  2.279641  0  0  -0.317679  -0.549024  0  2.29704  0
O  O43  1  0.37364694  0.93655495  0.18913725  1  0  -0.621855  0  1.991763  0  0  -0.565293  0  2.21195  0  0  -0.59037  0  2.203019  0  0  -0.310776  -0.547541  0  2.217563  0
O  O44  1  0.62634771  0.06344467  0.81086463  1  0  -0.621912  0  1.991791  0  0  -0.565384  0  2.21198  0  0  -0.590462  0  2.203048  0  0  -0.310835  -0.547634  0  2.217592  0
O  O45  1  0.31765108  0.16631546  0.01445018  1  0  -0.81625  0  1.983837  0  0  -0.759321  0  2.202922  0  0  -0.781069  0  2.169575  0  0  -0.579291  -0.743598  0  2.225985  0
O  O46  1  0.68234708  0.83368278  0.98555198  1  0  -0.816312  0  1.983731  0  0  -0.759407  0  2.202818  0  0  -0.781153  0  2.169476  0  0  -0.57934  -0.743686  0  2.22588  0
