# generated using pymatgen
data_CdH10C12N2(ClO3)2
_symmetry_space_group_name_H-M   'P 1'
_cell_length_a   5.50340280
_cell_length_b   9.39198855
_cell_length_c   14.72085028
_cell_angle_alpha   89.99997037
_cell_angle_beta   96.05989416
_cell_angle_gamma   89.99955463
_symmetry_Int_Tables_number   1
_chemical_formula_structural   CdH10C12N2(ClO3)2
_chemical_formula_sum   'Cd2 H20 C24 N4 Cl4 O12'
_cell_volume   756.63799162
_cell_formula_units_Z   2
loop_
 _symmetry_equiv_pos_site_id
 _symmetry_equiv_pos_as_xyz
  1  'x, y, z'
loop_
 _atom_site_type_symbol
 _atom_site_label
 _atom_site_symmetry_multiplicity
 _atom_site_fract_x
 _atom_site_fract_y
 _atom_site_fract_z
 _atom_site_occupancy
 _atom_site_hle17_bader_spin_density
 _atom_site_hle17_ddec_charge
 _atom_site_hle17_ddec_spin_density
 _atom_site_hle17_ddec_sum_bond_order
 _atom_site_hle17_magmom
 _atom_site_hse06_10hf_bader_spin_density
 _atom_site_hse06_10hf_ddec_charge
 _atom_site_hse06_10hf_ddec_spin_density
 _atom_site_hse06_10hf_ddec_sum_bond_order
 _atom_site_hse06_10hf_magmom
 _atom_site_hse06_bader_spin_density
 _atom_site_hse06_ddec_charge
 _atom_site_hse06_ddec_spin_density
 _atom_site_hse06_ddec_sum_bond_order
 _atom_site_hse06_magmom
 _atom_site_pbe_bader_spin_density
 _atom_site_pbe_cm5_charge
 _atom_site_pbe_ddec_charge
 _atom_site_pbe_ddec_spin_density
 _atom_site_pbe_ddec_sum_bond_order
 _atom_site_pbe_magmom
Cd  Cd0  1  0.99999790  0.50000138  0.99999775  1  0  1.164148  0  1.647  0  0  0.97438  0  2.083402  0  0  1.028697  0  2.031766  0  0  0.765938  0.936543  0  2.118062  0
Cd  Cd1  1  0.49999667  0.00000305  0.49999807  1  0  1.164126  0  1.646982  0  0  0.974395  0  2.083393  0  0  1.028717  0  2.031751  0  0  0.765943  0.936562  0  2.118049  0
H  H2  1  0.57311262  0.38705662  0.08169285  1  0  0.418137  0  0.888526  0  0  0.386458  0  0.954005  0  0  0.397223  0  0.938575  0  0  0.283786  0.378953  0  0.964652  0
H  H3  1  0.92688118  0.88704680  0.41830760  1  0  0.418182  0  0.888459  0  0  0.386505  0  0.953933  0  0  0.397272  0  0.9385  0  0  0.283801  0.379002  0  0.964577  0
H  H4  1  0.42688079  0.61294963  0.91830407  1  0  0.418177  0  0.888459  0  0  0.38649  0  0.953948  0  0  0.397255  0  0.938518  0  0  0.283804  0.378985  0  0.964594  0
H  H5  1  0.07311750  0.11295412  0.58169431  1  0  0.418108  0  0.888549  0  0  0.38644  0  0.954011  0  0  0.397207  0  0.93858  0  0  0.283769  0.378937  0  0.964653  0
H  H6  1  0.82814939  0.30398009  0.10522597  1  0  0.41226  0  0.901717  0  0  0.377797  0  0.971837  0  0  0.390184  0  0.954053  0  0  0.275954  0.369149  0  0.984155  0
H  H7  1  0.67184394  0.80397214  0.39477784  1  0  0.412221  0  0.901767  0  0  0.377821  0  0.971807  0  0  0.390209  0  0.954023  0  0  0.275952  0.369173  0  0.984126  0
H  H8  1  0.17185121  0.69602509  0.89477400  1  0  0.412221  0  0.901765  0  0  0.377764  0  0.971873  0  0  0.390152  0  0.954089  0  0  0.275937  0.369117  0  0.984191  0
H  H9  1  0.32815289  0.19602878  0.60522467  1  0  0.412236  0  0.901742  0  0  0.377772  0  0.971863  0  0  0.39016  0  0.954079  0  0  0.275925  0.369123  0  0.984182  0
H  H10  1  0.76480785  0.36562141  0.81686185  1  0  0.089116  0  0.965609  0  0  0.091012  0  1.041957  0  0  0.094197  0  1.038747  0  0  0.113013  0.08858  0  1.044329  0
H  H11  1  0.73521125  0.86561793  0.68313312  1  0  0.089195  0  0.965752  0  0  0.09107  0  1.042071  0  0  0.094256  0  1.038865  0  0  0.113036  0.088634  0  1.044445  0
H  H12  1  0.23518352  0.63436780  0.18313973  1  0  0.089159  0  0.965623  0  0  0.091066  0  1.041941  0  0  0.094277  0  1.038699  0  0  0.113027  0.088625  0  1.044326  0
H  H13  1  0.26479869  0.13438619  0.31686252  1  0  0.089178  0  0.965766  0  0  0.09105  0  1.042102  0  0  0.094233  0  1.038894  0  0  0.113036  0.088617  0  1.044471  0
H  H14  1  0.40501925  0.23827284  0.97153928  1  0  0.102477  0  0.975039  0  0  0.104465  0  1.050396  0  0  0.108345  0  1.046208  0  0  0.110896  0.101637  0  1.053332  0
H  H15  1  0.09499139  0.73828604  0.52845969  1  0  0.102444  0  0.975148  0  0  0.104396  0  1.050508  0  0  0.108277  0  1.046327  0  0  0.110908  0.101567  0  1.053443  0
H  H16  1  0.59497395  0.76172489  0.02846239  1  0  0.102435  0  0.975066  0  0  0.104506  0  1.05031  0  0  0.10839  0  1.046122  0  0  0.110915  0.101678  0  1.053246  0
H  H17  1  0.90501292  0.26171915  0.47153909  1  0  0.102449  0  0.975064  0  0  0.104432  0  1.050422  0  0  0.108315  0  1.046233  0  0  0.110882  0.101607  0  1.053355  0
H  H18  1  0.13697957  0.99052842  0.73478803  1  0  0.125391  0  0.924197  0  0  0.134836  0  0.986974  0  0  0.138405  0  0.98354  0  0  0.115453  0.132052  0  0.98969  0
H  H19  1  0.36302848  0.49054023  0.76520748  1  0  0.125399  0  0.924339  0  0  0.13488  0  0.987091  0  0  0.138428  0  0.983678  0  0  0.115434  0.132097  0  0.989811  0
H  H20  1  0.86302636  0.00946292  0.26521557  1  0  0.125443  0  0.924223  0  0  0.134867  0  0.986996  0  0  0.138443  0  0.983554  0  0  0.115454  0.132083  0  0.989714  0
H  H21  1  0.63697406  0.50947028  0.23478986  1  0  0.125347  0  0.924309  0  0  0.134786  0  0.987101  0  0  0.138359  0  0.983662  0  0  0.115427  0.132003  0  0.989813  0
C  C22  1  0.74010623  0.16696077  0.68328212  1  0  0.651047  0  3.916975  0  0  0.592145  0  4.220613  0  0  0.627089  0  4.213275  0  0  0.207367  0.568651  0  4.224487  0
C  C23  1  0.75989803  0.66696549  0.81671621  1  0  0.651086  0  3.91696  0  0  0.592144  0  4.22064  0  0  0.627091  0  4.213297  0  0  0.207393  0.56865  0  4.224516  0
C  C24  1  0.25989066  0.83303270  0.31671904  1  0  0.651136  0  3.91705  0  0  0.592208  0  4.220722  0  0  0.627154  0  4.213376  0  0  0.207388  0.568714  0  4.2246  0
C  C25  1  0.24010272  0.33303650  0.18328036  1  0  0.651021  0  3.916745  0  0  0.592175  0  4.220346  0  0  0.627117  0  4.213011  0  0  0.207385  0.568681  0  4.224221  0
C  C26  1  0.93015876  0.17843935  0.76435553  1  0  -0.110386  0  3.768049  0  0  -0.085308  0  4.014856  0  0  -0.097433  0  4.037321  0  0  -0.016672  -0.077802  0  3.999816  0
C  C27  1  0.56985648  0.67844797  0.73563787  1  0  -0.110044  0  3.768227  0  0  -0.084956  0  4.015022  0  0  -0.09709  0  4.037509  0  0  -0.016488  -0.077451  0  3.999977  0
C  C28  1  0.06984172  0.82154880  0.23564715  1  0  -0.110312  0  3.76803  0  0  -0.085234  0  4.014834  0  0  -0.097372  0  4.037326  0  0  -0.01667  -0.077728  0  3.999789  0
C  C29  1  0.43015885  0.32155934  0.26436005  1  0  -0.110129  0  3.767954  0  0  -0.085183  0  4.014888  0  0  -0.09731  0  4.037364  0  0  -0.016633  -0.077678  0  3.999843  0
C  C30  1  0.91497333  0.28994179  0.82628201  1  0  0.118048  0  3.689398  0  0  0.069966  0  3.950241  0  0  0.079333  0  3.967023  0  0  0.044938  0.064238  0  3.938889  0
C  C31  1  0.58504724  0.78994410  0.67371097  1  0  0.117714  0  3.689829  0  0  0.069713  0  3.950595  0  0  0.07908  0  3.967382  0  0  0.04479  0.063988  0  3.939238  0
C  C32  1  0.08501619  0.71004955  0.17372017  1  0  0.117854  0  3.689436  0  0  0.069779  0  3.950229  0  0  0.079132  0  3.967038  0  0  0.044817  0.064053  0  3.938872  0
C  C33  1  0.41495551  0.21005683  0.32628162  1  0  0.117875  0  3.689439  0  0  0.069871  0  3.950274  0  0  0.079239  0  3.967055  0  0  0.044874  0.064144  0  3.938922  0
C  C34  1  0.26847950  0.21800795  0.91375249  1  0  0.072015  0  3.664727  0  0  0.030497  0  3.916327  0  0  0.038649  0  3.930741  0  0  0.04129  0.025189  0  3.906742  0
C  C35  1  0.23152977  0.71800573  0.58624438  1  0  0.072011  0  3.664698  0  0  0.03058  0  3.916329  0  0  0.038723  0  3.930754  0  0  0.041288  0.025271  0  3.906738  0
C  C36  1  0.73150819  0.78198872  0.08624961  1  0  0.072057  0  3.664566  0  0  0.030499  0  3.916206  0  0  0.038644  0  3.930614  0  0  0.041271  0.025189  0  3.906622  0
C  C37  1  0.76846909  0.28199413  0.41375347  1  0  0.072033  0  3.664765  0  0  0.030525  0  3.916385  0  0  0.038668  0  3.930802  0  0  0.041287  0.025217  0  3.906794  0
C  C38  1  0.29078314  0.10156192  0.85624692  1  0  0.096555  0  3.777277  0  0  0.112987  0  4.046766  0  0  0.111386  0  4.067236  0  0  0.021911  0.113273  0  4.033323  0
C  C39  1  0.20923722  0.60156604  0.64375382  1  0  0.096604  0  3.777258  0  0  0.113024  0  4.046751  0  0  0.111435  0  4.067194  0  0  0.021844  0.113313  0  4.033304  0
C  C40  1  0.70921372  0.89843581  0.14375491  1  0  0.096585  0  3.777386  0  0  0.112965  0  4.046963  0  0  0.111382  0  4.0674  0  0  0.021823  0.11325  0  4.033521  0
C  C41  1  0.79076885  0.39843595  0.35624640  1  0  0.09667  0  3.777156  0  0  0.113145  0  4.046571  0  0  0.111557  0  4.06702  0  0  0.021953  0.113428  0  4.03313  0
C  C42  1  0.12135735  0.08092763  0.78009487  1  0  -0.054464  0  3.663256  0  0  -0.09824  0  3.918116  0  0  -0.091943  0  3.93186  0  0  -0.062862  -0.101749  0  3.908773  0
C  C43  1  0.37867447  0.58092792  0.71990367  1  0  -0.054675  0  3.663603  0  0  -0.098528  0  3.918535  0  0  -0.092219  0  3.932281  0  0  -0.062916  -0.102045  0  3.909202  0
C  C44  1  0.87864496  0.91906584  0.21990789  1  0  -0.054594  0  3.663283  0  0  -0.098318  0  3.918128  0  0  -0.092029  0  3.931858  0  0  -0.062782  -0.101832  0  3.908794  0
C  C45  1  0.62132973  0.41908259  0.28009782  1  0  -0.054555  0  3.663449  0  0  -0.098317  0  3.918323  0  0  -0.09203  0  3.932064  0  0  -0.062879  -0.101827  0  3.908982  0
N  N46  1  0.08114011  0.31016444  0.89860940  1  0  -0.318936  0  3.23297  0  0  -0.239539  0  3.501737  0  0  -0.25968  0  3.519448  0  0  -0.322863  -0.226344  0  3.489497  0
N  N47  1  0.41886201  0.81017229  0.60138716  1  0  -0.318732  0  3.232836  0  0  -0.239408  0  3.501595  0  0  -0.259549  0  3.519303  0  0  -0.322782  -0.226211  0  3.489345  0
N  N48  1  0.91884950  0.68983009  0.10139074  1  0  -0.318891  0  3.232887  0  0  -0.239509  0  3.501677  0  0  -0.259655  0  3.519398  0  0  -0.32282  -0.226313  0  3.489434  0
N  N49  1  0.58113873  0.18983396  0.39860942  1  0  -0.318884  0  3.232883  0  0  -0.239506  0  3.501639  0  0  -0.259649  0  3.519353  0  0  -0.322816  -0.22631  0  3.489395  0
Cl  Cl50  1  0.53286025  0.98618038  0.87904309  1  0  -0.058327  0  1.403313  0  0  -0.038062  0  1.63442  0  0  -0.044313  0  1.63273  0  0  0.033913  -0.033711  0  1.635374  0
Cl  Cl51  1  0.96716221  0.48618043  0.62095070  1  0  -0.058394  0  1.403305  0  0  -0.038113  0  1.6344  0  0  -0.044363  0  1.632703  0  0  0.033897  -0.033759  0  1.635351  0
Cl  Cl52  1  0.46714568  0.01381735  0.12096051  1  0  -0.05828  0  1.403385  0  0  -0.037994  0  1.634507  0  0  -0.044252  0  1.63281  0  0  0.033966  -0.033643  0  1.635462  0
Cl  Cl53  1  0.03284569  0.51382156  0.37904960  1  0  -0.05843  0  1.403307  0  0  -0.038173  0  1.634388  0  0  -0.044425  0  1.632692  0  0  0.033858  -0.033821  0  1.63534  0
O  O54  1  0.79186427  0.08409119  0.61804719  1  0  -0.677442  0  2.046297  0  0  -0.594017  0  2.28597  0  0  -0.623927  0  2.273751  0  0  -0.326401  -0.57293  0  2.293321  0
O  O55  1  0.70815079  0.58408529  0.88194753  1  0  -0.677474  0  2.046406  0  0  -0.593959  0  2.286026  0  0  -0.623859  0  2.273794  0  0  -0.326411  -0.572877  0  2.293384  0
O  O56  1  0.20813819  0.91590760  0.38195218  1  0  -0.67748  0  2.046279  0  0  -0.594021  0  2.28592  0  0  -0.623923  0  2.273692  0  0  -0.326422  -0.572938  0  2.293275  0
O  O57  1  0.29185178  0.41591351  0.11804912  1  0  -0.677474  0  2.04629  0  0  -0.594003  0  2.28589  0  0  -0.623911  0  2.273673  0  0  -0.326425  -0.572921  0  2.293246  0
O  O58  1  0.54679149  0.23810893  0.68458336  1  0  -0.599157  0  1.968691  0  0  -0.547318  0  2.192783  0  0  -0.572972  0  2.186005  0  0  -0.307347  -0.529399  0  2.196626  0
O  O59  1  0.95321513  0.73811307  0.81541510  1  0  -0.599213  0  1.968623  0  0  -0.547389  0  2.192761  0  0  -0.573035  0  2.185962  0  0  -0.307355  -0.529475  0  2.196603  0
O  O60  1  0.45320168  0.76188241  0.31541899  1  0  -0.599221  0  1.968818  0  0  -0.547378  0  2.192918  0  0  -0.57304  0  2.186148  0  0  -0.307339  -0.529464  0  2.196762  0
O  O61  1  0.04678367  0.26189105  0.18458411  1  0  -0.599184  0  1.968627  0  0  -0.547369  0  2.192707  0  0  -0.573016  0  2.185917  0  0  -0.30733  -0.529454  0  2.196551  0
O  O62  1  0.71725288  0.34881533  0.05402203  1  0  -0.848393  0  1.888835  0  0  -0.784896  0  2.088098  0  0  -0.808925  0  2.053598  0  0  -0.595342  -0.768071  0  2.111196  0
O  O63  1  0.78274512  0.84880908  0.44598200  1  0  -0.848384  0  1.888843  0  0  -0.784947  0  2.088002  0  0  -0.808973  0  2.0535  0  0  -0.595348  -0.768122  0  2.1111  0
O  O64  1  0.28274592  0.65119092  0.94597717  1  0  -0.848357  0  1.888781  0  0  -0.784874  0  2.088052  0  0  -0.808904  0  2.053556  0  0  -0.595336  -0.768044  0  2.111135  0
O  O65  1  0.21725353  0.15119610  0.55402059  1  0  -0.84835  0  1.888844  0  0  -0.784853  0  2.088092  0  0  -0.808881  0  2.053591  0  0  -0.595303  -0.768053  0  2.111238  0
