# generated using pymatgen
data_CdH10C10N6(ClO2)2
_symmetry_space_group_name_H-M   'P 1'
_cell_length_a   3.71838992
_cell_length_b   13.17282629
_cell_length_c   15.38951972
_cell_angle_alpha   90.00204605
_cell_angle_beta   90.00448945
_cell_angle_gamma   89.99970717
_symmetry_Int_Tables_number   1
_chemical_formula_structural   CdH10C10N6(ClO2)2
_chemical_formula_sum   'Cd2 H20 C20 N12 Cl4 O8'
_cell_volume   753.80490346
_cell_formula_units_Z   2
loop_
 _symmetry_equiv_pos_site_id
 _symmetry_equiv_pos_as_xyz
  1  'x, y, z'
loop_
 _atom_site_type_symbol
 _atom_site_label
 _atom_site_symmetry_multiplicity
 _atom_site_fract_x
 _atom_site_fract_y
 _atom_site_fract_z
 _atom_site_occupancy
 _atom_site_hle17_bader_spin_density
 _atom_site_hle17_ddec_charge
 _atom_site_hle17_ddec_spin_density
 _atom_site_hle17_ddec_sum_bond_order
 _atom_site_hle17_magmom
 _atom_site_hse06_10hf_bader_spin_density
 _atom_site_hse06_10hf_ddec_charge
 _atom_site_hse06_10hf_ddec_spin_density
 _atom_site_hse06_10hf_ddec_sum_bond_order
 _atom_site_hse06_10hf_magmom
 _atom_site_hse06_bader_spin_density
 _atom_site_hse06_ddec_charge
 _atom_site_hse06_ddec_spin_density
 _atom_site_hse06_ddec_sum_bond_order
 _atom_site_hse06_magmom
 _atom_site_pbe_bader_spin_density
 _atom_site_pbe_cm5_charge
 _atom_site_pbe_ddec_charge
 _atom_site_pbe_ddec_spin_density
 _atom_site_pbe_ddec_sum_bond_order
 _atom_site_pbe_magmom
Cd  Cd0  1  0.92306490  0.00001257  0.99999789  1  0  0.927639  0  1.993353  0  0  0.763673  0  2.448552  0  0  0.809699  0  2.409589  0  0  0.593754  0.730649  0  2.475841  0
Cd  Cd1  1  0.07693623  0.50001205  0.50000113  1  0  0.927604  0  1.993519  0  0  0.763668  0  2.448764  0  0  0.809689  0  2.409799  0  0  0.593761  0.730652  0  2.476047  0
H  H2  1  0.76152501  0.22906804  0.99585272  1  0  0.331314  0  0.913876  0  0  0.310077  0  0.986922  0  0  0.317261  0  0.981542  0  0  0.288383  0.304896  0  0.99088  0
H  H3  1  0.76149918  0.77095226  0.00416116  1  0  0.331181  0  0.913859  0  0  0.310086  0  0.986712  0  0  0.31724  0  0.981352  0  0  0.288427  0.304907  0  0.990647  0
H  H4  1  0.23849190  0.72906481  0.50415930  1  0  0.331186  0  0.914006  0  0  0.310092  0  0.986858  0  0  0.317237  0  0.981527  0  0  0.288424  0.304912  0  0.990797  0
H  H5  1  0.23850428  0.27095081  0.49582441  1  0  0.331087  0  0.913955  0  0  0.309986  0  0.986816  0  0  0.317146  0  0.981447  0  0  0.28834  0.304805  0  0.990753  0
H  H6  1  0.91963041  0.34456534  0.03601072  1  0  0.354153  0  0.851132  0  0  0.336593  0  0.910204  0  0  0.343661  0  0.904546  0  0  0.322586  0.331665  0  0.914043  0
H  H7  1  0.91960054  0.65545104  0.96401703  1  0  0.35409  0  0.851353  0  0  0.336341  0  0.910672  0  0  0.343407  0  0.90502  0  0  0.322578  0.331404  0  0.91453  0
H  H8  1  0.08037823  0.84455822  0.46401374  1  0  0.354293  0  0.850993  0  0  0.33656  0  0.910301  0  0  0.343627  0  0.904643  0  0  0.322746  0.331622  0  0.914144  0
H  H9  1  0.08041119  0.15544917  0.53596454  1  0  0.35419  0  0.85124  0  0  0.336277  0  0.910782  0  0  0.343342  0  0.905135  0  0  0.322559  0.331336  0  0.914621  0
H  H10  1  0.00778272  0.99235390  0.20008926  1  0  0.093961  0  0.95262  0  0  0.095991  0  1.026426  0  0  0.099246  0  1.022144  0  0  0.111928  0.093552  0  1.029484  0
H  H11  1  0.00771533  0.00764554  0.79991306  1  0  0.093836  0  0.952774  0  0  0.095933  0  1.026526  0  0  0.099147  0  1.022314  0  0  0.111924  0.093517  0  1.029566  0
H  H12  1  0.99221206  0.49234708  0.29991298  1  0  0.093884  0  0.952692  0  0  0.095951  0  1.026422  0  0  0.099204  0  1.022146  0  0  0.111927  0.093506  0  1.029488  0
H  H13  1  0.99223765  0.50765220  0.70007968  1  0  0.093889  0  0.952657  0  0  0.095986  0  1.026411  0  0  0.0992  0  1.0222  0  0  0.111881  0.093578  0  1.029469  0
H  H14  1  0.43463764  0.26997618  0.30751484  1  0  0.117411  0  0.982482  0  0  0.122723  0  1.050717  0  0  0.126163  0  1.047349  0  0  0.098289  0.120159  0  1.053152  0
H  H15  1  0.43448525  0.73001253  0.69251462  1  0  0.117391  0  0.982494  0  0  0.122682  0  1.050727  0  0  0.126077  0  1.047405  0  0  0.098234  0.120119  0  1.053152  0
H  H16  1  0.56538999  0.76996754  0.19250245  1  0  0.117445  0  0.982417  0  0  0.122612  0  1.050778  0  0  0.126052  0  1.047405  0  0  0.098216  0.120053  0  1.053197  0
H  H17  1  0.56554513  0.23001589  0.80747217  1  0  0.117478  0  0.982482  0  0  0.122688  0  1.050762  0  0  0.126052  0  1.047484  0  0  0.09827  0.120139  0  1.053201  0
H  H18  1  0.25793432  0.35769018  0.17004221  1  0  0.135516  0  0.951639  0  0  0.141915  0  1.011688  0  0  0.145978  0  1.010112  0  0  0.110805  0.139074  0  1.012907  0
H  H19  1  0.25783670  0.64230787  0.82998603  1  0  0.135445  0  0.951441  0  0  0.141775  0  1.011581  0  0  0.145792  0  1.010098  0  0  0.110753  0.138938  0  1.012852  0
H  H20  1  0.74208820  0.85769199  0.32997659  1  0  0.135463  0  0.951516  0  0  0.141777  0  1.011686  0  0  0.145837  0  1.010121  0  0  0.110777  0.138941  0  1.012903  0
H  H21  1  0.74220955  0.14230868  0.66999795  1  0  0.135476  0  0.951508  0  0  0.141824  0  1.011638  0  0  0.145842  0  1.010148  0  0  0.110737  0.138983  0  1.012862  0
C  C22  1  0.02352790  0.22168180  0.11339644  1  0  0.505943  0  3.794769  0  0  0.476863  0  4.055116  0  0  0.500315  0  4.067572  0  0  0.241618  0.461348  0  4.045877  0
C  C23  1  0.02347034  0.77832742  0.88662240  1  0  0.505783  0  3.7946  0  0  0.476836  0  4.054789  0  0  0.500269  0  4.067283  0  0  0.241529  0.46132  0  4.045557  0
C  C24  1  0.97648198  0.72168053  0.38662056  1  0  0.505982  0  3.794581  0  0  0.476893  0  4.054981  0  0  0.500342  0  4.067443  0  0  0.241596  0.461381  0  4.045736  0
C  C25  1  0.97652132  0.27832794  0.61336467  1  0  0.505948  0  3.794632  0  0  0.476681  0  4.055296  0  0  0.500112  0  4.06779  0  0  0.241576  0.461172  0  4.046097  0
C  C26  1  0.21746127  0.12533283  0.26440523  1  0  -0.016809  0  3.738869  0  0  -0.028954  0  4.001773  0  0  -0.041328  0  4.026631  0  0  0.057077  -0.024462  0  3.982885  0
C  C27  1  0.21735805  0.87465861  0.73560734  1  0  -0.016877  0  3.73874  0  0  -0.029149  0  4.001564  0  0  -0.040704  0  4.02605  0  0  0.056962  -0.024554  0  3.982725  0
C  C28  1  0.78251309  0.62532750  0.23560865  1  0  -0.016472  0  3.738601  0  0  -0.029102  0  4.001786  0  0  -0.041392  0  4.026682  0  0  0.057052  -0.024587  0  3.982917  0
C  C29  1  0.78264492  0.37466536  0.76437766  1  0  -0.016959  0  3.739046  0  0  -0.029102  0  4.001806  0  0  -0.040681  0  4.026261  0  0  0.056999  -0.021329  0  3.985023  0
C  C30  1  0.05839323  0.07357236  0.19548838  1  0  0.124709  0  3.731423  0  0  0.078841  0  3.999365  0  0  0.092103  0  4.01582  0  0  0.050033  0.070317  0  3.988406  0
C  C31  1  0.05832336  0.92642984  0.80451549  1  0  0.124721  0  3.731144  0  0  0.078859  0  3.999149  0  0  0.091948  0  4.015561  0  0  0.050016  0.070314  0  3.988166  0
C  C32  1  0.94159553  0.57356729  0.30451572  1  0  0.124748  0  3.731639  0  0  0.079046  0  3.999605  0  0  0.09231  0  4.016053  0  0  0.050084  0.070533  0  3.988636  0
C  C33  1  0.94164908  0.42643227  0.69547539  1  0  0.124681  0  3.731602  0  0  0.078759  0  3.999705  0  0  0.091839  0  4.016131  0  0  0.049987  0.070331  0  3.988216  0
C  C34  1  0.29896718  0.22928556  0.25535699  1  0  -0.025867  0  3.723857  0  0  -0.0554  0  3.980055  0  0  -0.047443  0  3.996798  0  0  -0.069833  -0.06025  0  3.969014  0
C  C35  1  0.29885549  0.77070087  0.74466289  1  0  -0.026089  0  3.723816  0  0  -0.055603  0  3.980163  0  0  -0.04781  0  3.99689  0  0  -0.069922  -0.060453  0  3.96911  0
C  C36  1  0.70102950  0.72928383  0.24465568  1  0  -0.026258  0  3.723698  0  0  -0.055491  0  3.979965  0  0  -0.047536  0  3.996697  0  0  -0.069856  -0.060346  0  3.968926  0
C  C37  1  0.70116012  0.27070264  0.75532397  1  0  -0.026171  0  3.72419  0  0  -0.055597  0  3.980468  0  0  -0.047784  0  3.997199  0  0  -0.069903  -0.060349  0  3.968947  0
C  C38  1  0.20157696  0.27746953  0.18008165  1  0  -0.206565  0  3.653549  0  0  -0.219052  0  3.902497  0  0  -0.23243  0  3.922338  0  0  -0.09021  -0.210578  0  3.88909  0
C  C39  1  0.20149206  0.72253415  0.81993843  1  0  -0.206023  0  3.653246  0  0  -0.218514  0  3.902313  0  0  -0.231948  0  3.922279  0  0  -0.089873  -0.210057  0  3.888943  0
C  C40  1  0.79843479  0.77746187  0.31993584  1  0  -0.206205  0  3.653071  0  0  -0.218663  0  3.902052  0  0  -0.232037  0  3.921899  0  0  -0.090082  -0.210203  0  3.888645  0
C  C41  1  0.79853000  0.22253544  0.68004490  1  0  -0.206233  0  3.65351  0  0  -0.218603  0  3.902528  0  0  -0.23204  0  3.922493  0  0  -0.089973  -0.210137  0  3.889181  0
N  N42  1  0.97046958  0.11918760  0.12095360  1  0  -0.434483  0  3.15791  0  0  -0.36378  0  3.425152  0  0  -0.389343  0  3.441019  0  0  -0.339556  -0.346491  0  3.413751  0
N  N43  1  0.97042365  0.88081332  0.87906271  1  0  -0.434534  0  3.157367  0  0  -0.363883  0  3.424608  0  0  -0.389497  0  3.440567  0  0  -0.339531  -0.346582  0  3.413209  0
N  N44  1  0.02953416  0.61918531  0.37905697  1  0  -0.434593  0  3.157983  0  0  -0.363854  0  3.425148  0  0  -0.389419  0  3.441019  0  0  -0.339523  -0.346562  0  3.413737  0
N  N45  1  0.02954995  0.38081856  0.62092884  1  0  -0.434461  0  3.157602  0  0  -0.363747  0  3.425063  0  0  -0.389359  0  3.441023  0  0  -0.3395  -0.346457  0  3.413731  0
N  N46  1  0.90458325  0.26792862  0.04168608  1  0  -0.621559  0  3.112161  0  0  -0.588527  0  3.346874  0  0  -0.612454  0  3.347461  0  0  -0.549441  -0.571696  0  3.345817  0
N  N47  1  0.90454326  0.73208480  0.95833361  1  0  -0.621347  0  3.11199  0  0  -0.588315  0  3.346831  0  0  -0.612181  0  3.347461  0  0  -0.549557  -0.571481  0  3.345729  0
N  N48  1  0.09543087  0.76792866  0.45833163  1  0  -0.621633  0  3.112027  0  0  -0.588595  0  3.34688  0  0  -0.612476  0  3.347551  0  0  -0.549753  -0.571767  0  3.345767  0
N  N49  1  0.09545222  0.23208244  0.54165341  1  0  -0.621328  0  3.111927  0  0  -0.588025  0  3.347032  0  0  -0.611891  0  3.347664  0  0  -0.549485  -0.571196  0  3.345908  0
N  N50  1  0.30994654  0.07176345  0.34253476  1  0  0.474401  0  3.979914  0  0  0.517355  0  4.263041  0  0  0.538994  0  4.273827  0  0  0.041168  0.514139  0  4.238483  0
N  N51  1  0.30984532  0.92822216  0.65746972  1  0  0.47384  0  3.980416  0  0  0.517614  0  4.263077  0  0  0.537408  0  4.274455  0  0  0.040934  0.514069  0  4.239004  0
N  N52  1  0.69003947  0.57175055  0.15746784  1  0  0.473591  0  3.980741  0  0  0.517438  0  4.263419  0  0  0.538807  0  4.274597  0  0  0.04112  0.514127  0  4.23903  0
N  N53  1  0.69015408  0.42823523  0.84252331  1  0  0.473729  0  3.98061  0  0  0.517281  0  4.263531  0  0  0.537175  0  4.274742  0  0  0.040938  0.5029  0  4.256212  0
Cl  Cl54  1  0.43244164  0.89484644  0.07970691  1  0  -0.52476  0  1.079894  0  0  -0.460417  0  1.364578  0  0  -0.478847  0  1.344195  0  0  -0.263273  -0.446872  0  1.378958  0
Cl  Cl55  1  0.43238100  0.10517949  0.92029327  1  0  -0.524614  0  1.079749  0  0  -0.460291  0  1.364478  0  0  -0.478739  0  1.344126  0  0  -0.26324  -0.446751  0  1.378876  0
Cl  Cl56  1  0.56756600  0.39484780  0.42028817  1  0  -0.524668  0  1.079969  0  0  -0.460395  0  1.364739  0  0  -0.478824  0  1.344356  0  0  -0.263234  -0.446852  0  1.379119  0
Cl  Cl57  1  0.56762635  0.60517737  0.57971053  1  0  -0.524638  0  1.079909  0  0  -0.460367  0  1.364692  0  0  -0.478816  0  1.344335  0  0  -0.263236  -0.446823  0  1.379073  0
O  O58  1  0.47352270  0.11896187  0.40081102  1  0  -0.375286  0  1.747255  0  0  -0.362512  0  1.952985  0  0  -0.372079  0  1.947749  0  0  -0.152518  -0.360075  0  1.951412  0
O  O59  1  0.47338385  0.88100917  0.59920938  1  0  -0.374758  0  1.747665  0  0  -0.362378  0  1.953346  0  0  -0.371086  0  1.948188  0  0  -0.152219  -0.359824  0  1.951913  0
O  O60  1  0.52650523  0.61896011  0.09919693  1  0  -0.37469  0  1.747589  0  0  -0.362301  0  1.953195  0  0  -0.371779  0  1.948091  0  0  -0.15235  -0.359835  0  1.951677  0
O  O61  1  0.52661933  0.38101746  0.90078154  1  0  -0.374545  0  1.747613  0  0  -0.36214  0  1.953386  0  0  -0.370876  0  1.948175  0  0  -0.152156  -0.355882  0  1.957092  0
O  O62  1  0.22545855  0.97996720  0.34868449  1  0  -0.396192  0  1.765737  0  0  -0.383713  0  1.977399  0  0  -0.394867  0  1.971971  0  0  -0.153984  -0.380201  0  1.975999  0
O  O63  1  0.22538652  0.02001433  0.65131718  1  0  -0.395777  0  1.765686  0  0  -0.383746  0  1.977289  0  0  -0.394027  0  1.971944  0  0  -0.153861  -0.380122  0  1.976036  0
O  O64  1  0.77446858  0.47996081  0.15132154  1  0  -0.395775  0  1.766119  0  0  -0.383797  0  1.97785  0  0  -0.394858  0  1.972544  0  0  -0.153997  -0.38026  0  1.976502  0
O  O65  1  0.77458031  0.52002297  0.84867761  1  0  -0.395837  0  1.766051  0  0  -0.383661  0  1.977696  0  0  -0.393972  0  1.972293  0  0  -0.153921  -0.376326  0  1.981616  0
