# generated using pymatgen
data_Zn4H12C58O13F24
_symmetry_space_group_name_H-M   'P 1'
_cell_length_a   21.62217457
_cell_length_b   21.62222836
_cell_length_c   34.51706633
_cell_angle_alpha   89.99998337
_cell_angle_beta   89.99999989
_cell_angle_gamma   90.00013171
_symmetry_Int_Tables_number   1
_chemical_formula_structural   Zn4H12C58O13F24
_chemical_formula_sum   'Zn8 H24 C116 O26 F48'
_cell_volume   16137.40490439
_cell_formula_units_Z   2
loop_
 _symmetry_equiv_pos_site_id
 _symmetry_equiv_pos_as_xyz
  1  'x, y, z'
loop_
 _atom_site_type_symbol
 _atom_site_label
 _atom_site_symmetry_multiplicity
 _atom_site_fract_x
 _atom_site_fract_y
 _atom_site_fract_z
 _atom_site_occupancy
 _atom_site_pbe_bader_charge
 _atom_site_pbe_bader_spin_density
 _atom_site_pbe_cm5_charge
 _atom_site_pbe_ddec_charge
 _atom_site_pbe_ddec_spin_density
 _atom_site_pbe_ddec_sum_bond_order
 _atom_site_pbe_magmom
Zn  Zn0  1  0.55224851  0.55115196  0.03357030  1  1.312778  0  0.678576  0.972467  0  2.359431  0
Zn  Zn1  1  0.44775070  0.55115070  0.96642826  1  1.312672  0  0.678675  0.972546  0  2.359219  0
Zn  Zn2  1  0.44774965  0.44884509  0.03356973  1  1.312578  0  0.678594  0.972494  0  2.359288  0
Zn  Zn3  1  0.55224979  0.44884499  0.96642682  1  1.312738  0  0.678652  0.972489  0  2.359203  0
Zn  Zn4  1  0.44884714  0.44774889  0.46643009  1  1.312815  0  0.678619  0.97245  0  2.359269  0
Zn  Zn5  1  0.44884448  0.55224875  0.53357368  1  1.312766  0  0.678629  0.972443  0  2.359271  0
Zn  Zn6  1  0.55115195  0.55225073  0.46643124  1  1.312729  0  0.678638  0.972515  0  2.359184  0
Zn  Zn7  1  0.55115322  0.44775270  0.53357369  1  1.312594  0  0.678648  0.972528  0  2.35936  0
H  H8  1  0.42112790  0.43954673  0.15189641  1  0.082305  0  0.106175  0.11598  0  1.00071  0
H  H9  1  0.57886980  0.56045212  0.15189553  1  0.08238  0  0.106157  0.116018  0  1.000638  0
H  H10  1  0.56045308  0.57887291  0.34810340  1  0.082267  0  0.106194  0.116017  0  1.000787  0
H  H11  1  0.43954601  0.42112908  0.34810486  1  0.082309  0  0.106157  0.115979  0  1.000732  0
H  H12  1  0.36852591  0.46582516  0.23901100  1  0.05386  0  0.098389  0.09858  0  0.961911  0
H  H13  1  0.38404139  0.39644196  0.21354273  1  0.047383  0  0.099933  0.101845  0  0.969283  0
H  H14  1  0.63147503  0.53417503  0.23901041  1  0.053884  0  0.09838  0.098543  0  0.961934  0
H  H15  1  0.61595863  0.60355779  0.21354184  1  0.047379  0  0.099949  0.101889  0  0.969183  0
H  H16  1  0.53417595  0.63147478  0.26098939  1  0.053914  0  0.09837  0.098541  0  0.961942  0
H  H17  1  0.60355934  0.61595749  0.28645766  1  0.047461  0  0.099964  0.101865  0  0.96924  0
H  H18  1  0.46582499  0.36852540  0.26098999  1  0.053898  0  0.098392  0.098588  0  0.961902  0
H  H19  1  0.39644160  0.38404175  0.28645797  1  0.047381  0  0.099929  0.101842  0  0.969287  0
H  H20  1  0.57887013  0.43954814  0.84810419  1  0.08234  0  0.106167  0.11601  0  1.000718  0
H  H21  1  0.42112804  0.56045039  0.84810447  1  0.082331  0  0.106153  0.115944  0  1.000751  0
H  H22  1  0.43954712  0.57887131  0.65189776  1  0.082364  0  0.106177  0.115991  0  1.000727  0
H  H23  1  0.56045383  0.42113100  0.65189777  1  0.0824  0  0.106148  0.115954  0  1.000717  0
H  H24  1  0.63147449  0.46582534  0.76099018  1  0.053921  0  0.09837  0.098523  0  0.961977  0
H  H25  1  0.61595655  0.39644209  0.78645961  1  0.047347  0  0.099969  0.1019  0  0.969185  0
H  H26  1  0.36852599  0.53417415  0.76098988  1  0.053872  0  0.098377  0.098537  0  0.961913  0
H  H27  1  0.38404070  0.60355646  0.78645873  1  0.047384  0  0.099952  0.101884  0  0.969198  0
H  H28  1  0.46582390  0.63147552  0.73901205  1  0.053851  0  0.098378  0.098599  0  0.961879  0
H  H29  1  0.39644234  0.61595623  0.71354320  1  0.047533  0  0.099973  0.101922  0  0.969274  0
H  H30  1  0.53417473  0.36852583  0.73901120  1  0.05387  0  0.098384  0.098563  0  0.961913  0
H  H31  1  0.60355769  0.38404282  0.71354380  1  0.047448  0  0.099963  0.10189  0  0.969317  0
C  C32  1  0.49999766  0.66382231  0.99999802  1  1.590645  0  0.232998  0.645237  0  4.147521  0
C  C33  1  0.33496874  0.49999811  0.99999513  1  1.640803  0  0.232187  0.644566  0  4.154556  0
C  C34  1  0.49999654  0.49999851  0.10488285  1  1.539651  0  0.22757  0.608555  0  4.153291  0
C  C35  1  0.50000052  0.33617569  0.99999689  1  1.590117  0  0.233153  0.645617  0  4.147178  0
C  C36  1  0.66503036  0.50000312  0.99999339  1  1.640649  0  0.232316  0.64473  0  4.154372  0
C  C37  1  0.49999747  0.49999786  0.89511484  1  1.539505  0  0.227547  0.608621  0  4.153291  0
C  C38  1  0.33617676  0.49999453  0.49999986  1  1.590648  0  0.233048  0.645342  0  4.147082  0
C  C39  1  0.49999997  0.66503229  0.50000158  1  1.640758  0  0.232188  0.644602  0  4.154485  0
C  C40  1  0.49999978  0.50000122  0.39511667  1  1.539596  0  0.227555  0.608434  0  4.153711  0
C  C41  1  0.66382188  0.50000416  0.50000160  1  1.590622  0  0.232993  0.645317  0  4.147224  0
C  C42  1  0.49999959  0.33496917  0.50000509  1  1.640436  0  0.23223  0.64473  0  4.154173  0
C  C43  1  0.49999932  0.50000024  0.60488797  1  1.539335  0  0.227498  0.608479  0  4.153493  0
C  C44  1  0.26563390  0.49999850  0.99999629  1  0.065654  0  -0.023608  -0.213015  0  3.980761  0
C  C45  1  0.23193233  0.45157537  0.01692260  1  0.531728  0  0.101777  0.177128  0  4.073158  0
C  C46  1  0.16753593  0.45169138  0.01681367  1  0.612437  0  0.093567  0.135064  0  4.079572  0
C  C47  1  0.23192967  0.54842455  0.98307654  1  0.531571  0  0.101809  0.177254  0  4.072943  0
C  C48  1  0.16753420  0.54831209  0.98319156  1  0.612431  0  0.09357  0.135007  0  4.079579  0
C  C49  1  0.13392142  0.50000135  0.00000053  1  0.092832  0  -0.017927  -0.082702  0  4.077694  0
C  C50  1  0.06571691  0.50000081  0.00000140  1  0.135308  0  -0.019323  -0.088414  0  4.073137  0
C  C51  1  0.03218513  0.50008333  0.96533692  1  0.617842  0  0.096174  0.14483  0  4.076729  0
C  C52  1  0.03218605  0.49991705  0.03466686  1  0.617598  0  0.096206  0.144796  0  4.07686  0
C  C53  1  0.73436474  0.50000181  0.99999716  1  0.065815  0  -0.023574  -0.212913  0  3.980832  0
C  C54  1  0.76806491  0.54842493  0.01692143  1  0.531473  0  0.101656  0.177051  0  4.073304  0
C  C55  1  0.83246177  0.54830845  0.01681076  1  0.612897  0  0.093509  0.134955  0  4.079816  0
C  C56  1  0.76806758  0.45157530  0.98307655  1  0.531588  0  0.101817  0.177225  0  4.072988  0
C  C57  1  0.83246444  0.45168591  0.98319099  1  0.612388  0  0.093507  0.134966  0  4.079479  0
C  C58  1  0.86607489  0.49999803  0.00000082  1  0.092969  0  -0.017863  -0.082604  0  4.07777  0
C  C59  1  0.93428403  0.50000088  0.00000082  1  0.135274  0  -0.019312  -0.088436  0  4.073311  0
C  C60  1  0.96781442  0.50008277  0.03466483  1  0.440743  0  0.09633  0.145075  0  4.0767  0
C  C61  1  0.96781628  0.49991745  0.96533778  1  0.439926  0  0.096233  0.144939  0  4.076743  0
C  C62  1  0.40546157  0.43265563  0.23138463  1  -0.029784  0  -0.1532  -0.186642  0  3.980516  0
C  C63  1  0.59453799  0.56734364  0.23138375  1  -0.029854  0  -0.153206  -0.186618  0  3.98038  0
C  C64  1  0.56734464  0.59453691  0.26861489  1  -0.049294  0  -0.153161  -0.186558  0  3.980453  0
C  C65  1  0.43265584  0.40546235  0.26861520  1  -0.049219  0  -0.153163  -0.186592  0  3.980462  0
C  C66  1  0.45538073  0.46584748  0.16818603  1  0.006698  0  -0.087349  -0.160991  0  3.971278  0
C  C67  1  0.45439933  0.46620820  0.20848233  1  -0.033581  0  -0.004911  0.08359  0  3.962742  0
C  C68  1  0.54461697  0.53415182  0.16818603  1  0.006327  0  -0.087367  -0.161121  0  3.971304  0
C  C69  1  0.54559976  0.53379154  0.20848232  1  -0.033517  0  -0.004947  0.083548  0  3.962838  0
C  C70  1  0.53415366  0.54461924  0.33181552  1  0.006306  0  -0.087397  -0.161058  0  3.971267  0
C  C71  1  0.53379338  0.54560204  0.29151835  1  -0.033402  0  -0.004995  0.08343  0  3.962685  0
C  C72  1  0.46584775  0.45537998  0.33181379  1  0.006673  0  -0.087337  -0.161006  0  3.971327  0
C  C73  1  0.46620895  0.45440137  0.29151894  1  -0.033264  0  -0.004908  0.083538  0  3.962792  0
C  C74  1  0.49999839  0.50000127  0.14789723  1  -0.047945  0  -0.023359  -0.035116  0  4.031129  0
C  C75  1  0.49999885  0.50000218  0.22878909  1  -0.099012  0  -0.00377  -0.018546  0  3.940106  0
C  C76  1  0.50000024  0.49999984  0.35210346  1  -0.047919  0  -0.023354  -0.035112  0  4.031075  0
C  C77  1  0.49999931  0.50000309  0.27121333  1  0.042176  0  -0.00374  -0.018392  0  3.940006  0
C  C78  1  0.59453645  0.43265619  0.76861713  1  -0.0492  0  -0.153218  -0.186623  0  3.980479  0
C  C79  1  0.40546126  0.56734283  0.76861625  1  -0.029806  0  -0.15321  -0.186547  0  3.98041  0
C  C80  1  0.43265606  0.59453665  0.73138568  1  -0.049268  0  -0.153187  -0.186738  0  3.980503  0
C  C81  1  0.56734350  0.40546147  0.73138541  1  -0.029869  0  -0.153191  -0.186608  0  3.980419  0
C  C82  1  0.54461967  0.46584974  0.83181456  1  0.006652  0  -0.087376  -0.161026  0  3.9714  0
C  C83  1  0.54560061  0.46620679  0.79151855  1  -0.03343  0  -0.004997  0.083455  0  3.962849  0
C  C84  1  0.45538035  0.53415111  0.83181398  1  0.006625  0  -0.087271  -0.160732  0  3.97144  0
C  C85  1  0.45439848  0.53379038  0.79151855  1  -0.033256  0  -0.004949  0.083378  0  3.962836  0
C  C86  1  0.46584785  0.54461909  0.66818738  1  0.006737  0  -0.087362  -0.160934  0  3.971217  0
C  C87  1  0.46620860  0.54560140  0.70848339  1  -0.033646  0  -0.004942  0.08358  0  3.962758  0
C  C88  1  0.53415540  0.45538368  0.66818768  1  0.00634  0  -0.087329  -0.160883  0  3.971255  0
C  C89  1  0.53379281  0.45440043  0.70848340  1  -0.033597  0  -0.004926  0.083538  0  3.962871  0
C  C90  1  0.49999839  0.49999972  0.85210192  1  -0.048403  0  -0.023404  -0.03535  0  4.031472  0
C  C91  1  0.49999700  0.49999558  0.77121381  1  0.041987  0  -0.003716  -0.018398  0  3.939975  0
C  C92  1  0.50000117  0.50000116  0.64789742  1  -0.04802  0  -0.023425  -0.035447  0  4.031456  0
C  C93  1  0.49999839  0.49999837  0.72878929  1  -0.098977  0  -0.003805  -0.018604  0  3.940156  0
C  C94  1  0.50000136  0.26669673  0.99999805  1  0.12612  0  -0.022374  -0.21147  0  3.967339  0
C  C95  1  0.47226035  0.23268886  0.03001585  1  0.485372  0  0.101643  0.177226  0  4.067388  0
C  C96  1  0.47242492  0.16820892  0.02990838  1  0.629373  0  0.093359  0.133433  0  4.075103  0
C  C97  1  0.52774414  0.23268732  0.96998247  1  0.485741  0  0.101673  0.177342  0  4.067132  0
C  C98  1  0.52758127  0.16820876  0.97009199  1  0.62929  0  0.093357  0.133428  0  4.074838  0
C  C99  1  0.50000260  0.13431721  0.99999951  1  0.120899  0  -0.016166  -0.078849  0  4.066735  0
C  C100  1  0.50000113  0.06595285  0.99999923  1  0.139531  0  -0.017514  -0.085047  0  4.060482  0
C  C101  1  0.55529942  0.03221263  0.99996678  1  0.446084  0  0.095607  0.143007  0  4.074141  0
C  C102  1  0.44469999  0.03221458  0.00003302  1  0.446142  0  0.095552  0.142931  0  4.074181  0
C  C103  1  0.49999866  0.73329849  0.99999917  1  0.125552  0  -0.022312  -0.211426  0  3.967209  0
C  C104  1  0.47225635  0.76730791  0.96998184  1  0.485742  0  0.101786  0.17755  0  4.066932  0
C  C105  1  0.47241968  0.83178647  0.97009019  1  0.629663  0  0.093302  0.13325  0  4.075035  0
C  C106  1  0.52774012  0.76730866  0.03001580  1  0.485734  0  0.101739  0.177459  0  4.066968  0
C  C107  1  0.52757370  0.83178767  0.02990774  1  0.629716  0  0.093414  0.133339  0  4.075183  0
C  C108  1  0.49999604  0.86567477  0.99999945  1  0.120011  0  -0.016381  -0.078795  0  4.066931  0
C  C109  1  0.49999982  0.93404422  0.99999886  1  0.140748  0  -0.017471  -0.085204  0  4.060718  0
C  C110  1  0.44470246  0.96778490  0.99996583  1  0.622319  0  0.095561  0.142974  0  4.074185  0
C  C111  1  0.55529910  0.96778294  0.00003294  1  0.622383  0  0.095499  0.142966  0  4.074337  0
C  C112  1  0.49999912  0.73436603  0.50000071  1  0.065352  0  -0.023614  -0.213052  0  3.980707  0
C  C113  1  0.54842445  0.76806798  0.48307690  1  0.531897  0  0.101857  0.177343  0  4.073177  0
C  C114  1  0.54830844  0.83246375  0.48318959  1  0.612795  0  0.093504  0.134898  0  4.079665  0
C  C115  1  0.45157619  0.76807110  0.51692538  1  0.531948  0  0.101802  0.177209  0  4.072926  0
C  C116  1  0.45168818  0.83246733  0.51681354  1  0.612427  0  0.093561  0.135064  0  4.079379  0
C  C117  1  0.50000066  0.86607863  0.49999954  1  0.092856  0  -0.017897  -0.082596  0  4.077688  0
C  C118  1  0.50000166  0.93428298  0.50000069  1  0.135214  0  -0.019339  -0.088556  0  4.073303  0
C  C119  1  0.49991476  0.96781374  0.53466441  1  0.617729  0  0.096239  0.145004  0  4.076836  0
C  C120  1  0.50008264  0.96781561  0.46533638  1  0.439853  0  0.096264  0.144934  0  4.076644  0
C  C121  1  0.50000090  0.26563451  0.50000365  1  0.065599  0  -0.023648  -0.2131  0  3.980786  0
C  C122  1  0.45157511  0.23193303  0.48308043  1  0.532107  0  0.10182  0.177362  0  4.073197  0
C  C123  1  0.45169158  0.16753726  0.48319139  1  0.612912  0  0.093561  0.134951  0  4.079712  0
C  C124  1  0.54842661  0.23193082  0.51692427  1  0.531582  0  0.101756  0.177106  0  4.073133  0
C  C125  1  0.54831507  0.16753459  0.51681013  1  0.61253  0  0.093547  0.135089  0  4.079492  0
C  C126  1  0.50000121  0.13392190  0.49999989  1  0.092789  0  -0.017919  -0.082703  0  4.077842  0
C  C127  1  0.49999835  0.06571617  0.50000048  1  0.135217  0  -0.019305  -0.088383  0  4.073272  0
C  C128  1  0.49991692  0.03218540  0.46533676  1  0.617842  0  0.096248  0.144967  0  4.076672  0
C  C129  1  0.50008295  0.03218585  0.53466421  1  0.440779  0  0.096253  0.14485  0  4.0768  0
C  C130  1  0.73329962  0.50000100  0.50000334  1  0.125693  0  -0.022273  -0.211387  0  3.967099  0
C  C131  1  0.76730595  0.52774287  0.46998601  1  0.485676  0  0.101686  0.177398  0  4.066957  0
C  C132  1  0.83178605  0.52757644  0.47009204  1  0.630212  0  0.093394  0.133397  0  4.075254  0
C  C133  1  0.76730959  0.47225643  0.53001893  1  0.485658  0  0.10167  0.177485  0  4.066996  0
C  C134  1  0.83178830  0.47242115  0.52990883  1  0.629772  0  0.093403  0.133386  0  4.074968  0
C  C135  1  0.86567808  0.49999838  0.49999986  1  0.120228  0  -0.016417  -0.078949  0  4.06693  0
C  C136  1  0.93404678  0.49999753  0.49999899  1  0.140554  0  -0.017546  -0.085108  0  4.060727  0
C  C137  1  0.96778523  0.44469707  0.50003376  1  0.446358  0  0.09559  0.142956  0  4.074181  0
C  C138  1  0.96778582  0.55529575  0.49996885  1  0.444782  0  0.095512  0.142929  0  4.074271  0
C  C139  1  0.26669854  0.49999722  0.50000160  1  0.126198  0  -0.022277  -0.211264  0  3.966992  0
C  C140  1  0.23268951  0.52773900  0.53001776  1  0.485115  0  0.101745  0.17735  0  4.066917  0
C  C141  1  0.16820987  0.52757613  0.52990883  1  0.629701  0  0.093428  0.133431  0  4.075105  0
C  C142  1  0.23269037  0.47225398  0.46998457  1  0.485796  0  0.101614  0.177236  0  4.066925  0
C  C143  1  0.16821073  0.47241763  0.47009321  1  0.629605  0  0.093423  0.133481  0  4.074836  0
C  C144  1  0.13431963  0.49999707  0.50000102  1  0.120535  0  -0.016373  -0.078897  0  4.06684  0
C  C145  1  0.06595370  0.49999746  0.50000015  1  0.14071  0  -0.017616  -0.08517  0  4.060564  0
C  C146  1  0.03221479  0.55529745  0.50003375  1  0.622292  0  0.095523  0.142875  0  4.074284  0
C  C147  1  0.03221513  0.44469831  0.49996684  1  0.622386  0  0.095569  0.143036  0  4.07425  0
O  O148  1  0.49999978  0.49999830  0.99999948  1  -1.214657  0  -0.575925  -1.041707  0  2.549627  0
O  O149  1  0.54659747  0.63772259  0.01544360  1  -1.153264  0  -0.308318  -0.535476  0  2.31493  0
O  O150  1  0.36100130  0.52333571  0.97039644  1  -1.153943  0  -0.308441  -0.534327  0  2.31849  0
O  O151  1  0.47014704  0.45651637  0.08797904  1  -1.169855  0  -0.31818  -0.54913  0  2.332193  0
O  O152  1  0.45340148  0.63772226  0.98455262  1  -1.152964  0  -0.308401  -0.535501  0  2.315079  0
O  O153  1  0.52984650  0.54348296  0.08797846  1  -1.16967  0  -0.318101  -0.549009  0  2.332219  0
O  O154  1  0.36100587  0.47666543  0.02959198  1  -1.153567  0  -0.308409  -0.53446  0  2.319074  0
O  O155  1  0.45340301  0.36227493  0.01544305  1  -1.15256  0  -0.308395  -0.535625  0  2.314957  0
O  O156  1  0.63899549  0.47666924  0.97039557  1  -1.153994  0  -0.308473  -0.534337  0  2.318569  0
O  O157  1  0.54659484  0.36227343  0.98455061  1  -1.152896  0  -0.308383  -0.535605  0  2.31504  0
O  O158  1  0.63899415  0.52333948  0.02959198  1  -1.153392  0  -0.308516  -0.534593  0  2.318783  0
O  O159  1  0.47015408  0.54348548  0.91201952  1  -1.169683  0  -0.31816  -0.549072  0  2.332148  0
O  O160  1  0.52984039  0.45650978  0.91201924  1  -1.169691  0  -0.318081  -0.549071  0  2.332254  0
O  O161  1  0.50000070  0.50000027  0.50000160  1  -1.214685  0  -0.576083  -1.041759  0  2.549542  0
O  O162  1  0.36227398  0.45340316  0.48455388  1  -1.153014  0  -0.308321  -0.535483  0  2.31519  0
O  O163  1  0.47666278  0.63899793  0.52960260  1  -1.153867  0  -0.30845  -0.534383  0  2.318317  0
O  O164  1  0.54348202  0.52985156  0.41202077  1  -1.169724  0  -0.318167  -0.54903  0  2.332265  0
O  O165  1  0.36227594  0.54659475  0.51544845  1  -1.153173  0  -0.308373  -0.535542  0  2.314757  0
O  O166  1  0.45651614  0.47015271  0.41202136  1  -1.16975  0  -0.318129  -0.549003  0  2.33231  0
O  O167  1  0.52333524  0.63899661  0.47040782  1  -1.153663  0  -0.308398  -0.534438  0  2.319166  0
O  O168  1  0.63772280  0.54660016  0.48455851  1  -1.152859  0  -0.308241  -0.535472  0  2.315183  0
O  O169  1  0.52333677  0.36100305  0.52960639  1  -1.153672  0  -0.308479  -0.534459  0  2.318278  0
O  O170  1  0.63772269  0.45340254  0.51544816  1  -1.153277  0  -0.308448  -0.535611  0  2.314765  0
O  O171  1  0.47666709  0.36100579  0.47040958  1  -1.153497  0  -0.308383  -0.53442  0  2.318973  0
O  O172  1  0.45651205  0.52984356  0.58798155  1  -1.169602  0  -0.318047  -0.548909  0  2.332222  0
O  O173  1  0.54348843  0.47015971  0.58798127  1  -1.169479  0  -0.318047  -0.54894  0  2.332204  0
F  F174  1  0.26066643  0.59764292  0.96740835  1  -0.607492  0  -0.082666  -0.095357  0  1.369743  0
F  F175  1  0.13725516  0.59682556  0.96744862  1  -0.616067  0  -0.088521  -0.103805  0  1.364042  0
F  F176  1  0.26066620  0.40235706  0.03259167  1  -0.607499  0  -0.082664  -0.095322  0  1.369764  0
F  F177  1  0.13725909  0.40318015  0.03256009  1  -0.616064  0  -0.088355  -0.103666  0  1.364176  0
F  F178  1  0.06238006  0.49942526  0.93112283  1  -0.607491  0  -0.086582  -0.100722  0  1.36029  0
F  F179  1  0.93762690  0.50057693  0.93112167  1  -0.607428  0  -0.086618  -0.100793  0  1.360181  0
F  F180  1  0.06237636  0.50057612  0.06888211  1  -0.607289  0  -0.086574  -0.100688  0  1.360463  0
F  F181  1  0.93762597  0.49942184  0.06888095  1  -0.607415  0  -0.086618  -0.100787  0  1.360312  0
F  F182  1  0.86274163  0.40317106  0.96744863  1  -0.616108  0  -0.088475  -0.103749  0  1.363934  0
F  F183  1  0.73933452  0.40235694  0.96740634  1  -0.607568  0  -0.082645  -0.095358  0  1.369843  0
F  F184  1  0.86273861  0.59682106  0.03255630  1  -0.61635  0  -0.088387  -0.103674  0  1.364129  0
F  F185  1  0.73933104  0.59764461  0.03259165  1  -0.607563  0  -0.082539  -0.095282  0  1.369825  0
F  F186  1  0.55368698  0.26112106  0.93932893  1  -0.608582  0  -0.082346  -0.094931  0  1.371419  0
F  F187  1  0.55356289  0.13807870  0.93992227  1  -0.612713  0  -0.088992  -0.104186  0  1.363207  0
F  F188  1  0.44631757  0.26112391  0.06066649  1  -0.608374  0  -0.082294  -0.094852  0  1.371769  0
F  F189  1  0.44643907  0.13808201  0.06007838  1  -0.612615  0  -0.088979  -0.104189  0  1.363297  0
F  F190  1  0.61001966  0.06226394  0.00043514  1  -0.607476  0  -0.086285  -0.100023  0  1.361432  0
F  F191  1  0.61002021  0.93773268  0.99956574  1  -0.607541  0  -0.086306  -0.100022  0  1.361489  0
F  F192  1  0.38997843  0.06226624  0.99956495  1  -0.607523  0  -0.086283  -0.099998  0  1.361413  0
F  F193  1  0.38997943  0.93773636  0.00043187  1  -0.607479  0  -0.086301  -0.099985  0  1.361451  0
F  F194  1  0.55355540  0.86191687  0.06008063  1  -0.61252  0  -0.088969  -0.104133  0  1.363206  0
F  F195  1  0.55367828  0.73887775  0.06067137  1  -0.608419  0  -0.082315  -0.094929  0  1.371469  0
F  F196  1  0.44643528  0.86191747  0.93992047  1  -0.612417  0  -0.08896  -0.104163  0  1.363177  0
F  F197  1  0.44631628  0.73887604  0.93932744  1  -0.608589  0  -0.082386  -0.095023  0  1.371464  0
F  F198  1  0.40235631  0.73933672  0.53259531  1  -0.607604  0  -0.082636  -0.095344  0  1.369804  0
F  F199  1  0.40317645  0.86274583  0.53256024  1  -0.616154  0  -0.088447  -0.103759  0  1.364019  0
F  F200  1  0.59764241  0.73933557  0.46740698  1  -0.607585  0  -0.082709  -0.095395  0  1.369906  0
F  F201  1  0.59682071  0.86274144  0.46744434  1  -0.616398  0  -0.088414  -0.103715  0  1.364113  0
F  F202  1  0.50057284  0.93762351  0.56888082  1  -0.607324  0  -0.086639  -0.100804  0  1.360261  0
F  F203  1  0.49942440  0.06237468  0.56888061  1  -0.607288  0  -0.086618  -0.100733  0  1.360258  0
F  F204  1  0.49942171  0.93762261  0.43112114  1  -0.607528  0  -0.086599  -0.100742  0  1.360306  0
F  F205  1  0.50057739  0.06237703  0.43112122  1  -0.607521  0  -0.086621  -0.100782  0  1.360214  0
F  F206  1  0.59683097  0.13725654  0.53255249  1  -0.616208  0  -0.088488  -0.103795  0  1.363951  0
F  F207  1  0.59764694  0.26066750  0.53259217  1  -0.60764  0  -0.08256  -0.095287  0  1.369823  0
F  F208  1  0.40317792  0.13726049  0.46744585  1  -0.616343  0  -0.088424  -0.103722  0  1.364078  0
F  F209  1  0.40235669  0.26066683  0.46741166  1  -0.607754  0  -0.082672  -0.095387  0  1.369861  0
F  F210  1  0.73887301  0.44631365  0.56067217  1  -0.608621  0  -0.08235  -0.09502  0  1.371447  0
F  F211  1  0.86191937  0.44643496  0.56007768  1  -0.61267  0  -0.088926  -0.104148  0  1.363179  0
F  F212  1  0.73887128  0.55368605  0.43933392  1  -0.608458  0  -0.082339  -0.094922  0  1.371569  0
F  F213  1  0.86191210  0.55355901  0.43992088  1  -0.612921  0  -0.088935  -0.10416  0  1.363416  0
F  F214  1  0.93773453  0.38997650  0.49956530  1  -0.607566  0  -0.086231  -0.099962  0  1.361484  0
F  F215  1  0.06226385  0.38997780  0.50043676  1  -0.607552  0  -0.086211  -0.099979  0  1.361522  0
F  F216  1  0.93773617  0.61001857  0.50043731  1  -0.607406  0  -0.086272  -0.100001  0  1.361221  0
F  F217  1  0.06226595  0.61001756  0.49956470  1  -0.607426  0  -0.086273  -0.099972  0  1.361483  0
F  F218  1  0.13808098  0.44643277  0.43992437  1  -0.612839  0  -0.088918  -0.104159  0  1.363262  0
F  F219  1  0.26112180  0.44631405  0.43933104  1  -0.608498  0  -0.082346  -0.094944  0  1.371494  0
F  F220  1  0.13808157  0.55356416  0.56007738  1  -0.612641  0  -0.088975  -0.104179  0  1.363338  0
F  F221  1  0.26112100  0.55368131  0.56067216  1  -0.608458  0  -0.082395  -0.094961  0  1.371389  0
