# generated using pymatgen
data_Ag2H11C12N5O7
_symmetry_space_group_name_H-M   'P 1'
_cell_length_a   8.30387432
_cell_length_b   7.78491754
_cell_length_c   13.58067224
_cell_angle_alpha   89.42855933
_cell_angle_beta   97.04952598
_cell_angle_gamma   58.65780272
_symmetry_Int_Tables_number   1
_chemical_formula_structural   Ag2H11C12N5O7
_chemical_formula_sum   'Ag4 H22 C24 N10 O14'
_cell_volume   741.31736074
_cell_formula_units_Z   2
loop_
 _symmetry_equiv_pos_site_id
 _symmetry_equiv_pos_as_xyz
  1  'x, y, z'
loop_
 _atom_site_type_symbol
 _atom_site_label
 _atom_site_symmetry_multiplicity
 _atom_site_fract_x
 _atom_site_fract_y
 _atom_site_fract_z
 _atom_site_occupancy
 _atom_site_hle17_bader_spin_density
 _atom_site_hle17_ddec_charge
 _atom_site_hle17_ddec_spin_density
 _atom_site_hle17_ddec_sum_bond_order
 _atom_site_hle17_magmom
 _atom_site_hse06_10hf_bader_spin_density
 _atom_site_hse06_10hf_ddec_charge
 _atom_site_hse06_10hf_ddec_spin_density
 _atom_site_hse06_10hf_ddec_sum_bond_order
 _atom_site_hse06_10hf_magmom
 _atom_site_hse06_bader_spin_density
 _atom_site_hse06_ddec_charge
 _atom_site_hse06_ddec_spin_density
 _atom_site_hse06_ddec_sum_bond_order
 _atom_site_hse06_magmom
 _atom_site_pbe_bader_spin_density
 _atom_site_pbe_cm5_charge
 _atom_site_pbe_ddec_charge
 _atom_site_pbe_ddec_spin_density
 _atom_site_pbe_ddec_sum_bond_order
 _atom_site_pbe_magmom
Ag  Ag0  1  0.04718149  0.86069153  0.23060390  1  0  0.550806  0  1.349505  0  0  0.402428  0  1.789184  0  0  0.434861  0  1.737865  0  0  0.484805  0.379984  0  1.825089  0
Ag  Ag1  1  0.95282324  0.13930475  0.76938709  1  0  0.550826  0  1.349499  0  0  0.402475  0  1.789116  0  0  0.43491  0  1.737794  0  0  0.484812  0.380035  0  1.825012  0
Ag  Ag2  1  0.68870589  0.21526424  0.31783906  1  0  0.54271  0  1.376484  0  0  0.397897  0  1.822723  0  0  0.430495  0  1.771184  0  0  0.472081  0.37571  0  1.858405  0
Ag  Ag3  1  0.31128256  0.78474567  0.68215954  1  0  0.542639  0  1.376508  0  0  0.397813  0  1.82274  0  0  0.430413  0  1.771201  0  0  0.47208  0.375631  0  1.858412  0
H  H4  1  0.31505672  0.47883192  0.19082269  1  0  0.120774  0  0.967853  0  0  0.134747  0  1.050797  0  0  0.137592  0  1.046718  0  0  0.091585  0.132513  0  1.053828  0
H  H5  1  0.68494250  0.52116316  0.80916820  1  0  0.120761  0  0.967858  0  0  0.134724  0  1.050806  0  0  0.137568  0  1.046727  0  0  0.091569  0.132497  0  1.053823  0
H  H6  1  0.19422826  0.42096655  0.09205285  1  0  0.138993  0  0.94479  0  0  0.158225  0  1.001212  0  0  0.160086  0  1.001183  0  0  0.099441  0.15676  0  1.001341  0
H  H7  1  0.80578242  0.57902528  0.90794079  1  0  0.138989  0  0.944799  0  0  0.158238  0  1.001196  0  0  0.160102  0  1.001158  0  0  0.09944  0.156758  0  1.001333  0
H  H8  1  0.44814299  0.30322423  0.10838533  1  0  0.145775  0  0.94729  0  0  0.164558  0  1.01163  0  0  0.16647  0  1.010425  0  0  0.10487  0.162939  0  1.01267  0
H  H9  1  0.55185868  0.69677723  0.89161046  1  0  0.145768  0  0.947171  0  0  0.16455  0  1.011535  0  0  0.166465  0  1.010314  0  0  0.10485  0.162931  0  1.012574  0
H  H10  1  0.10720199  0.17784865  0.13756332  1  0  0.111788  0  0.966533  0  0  0.109368  0  1.04487  0  0  0.113574  0  1.041429  0  0  0.120008  0.106114  0  1.047678  0
H  H11  1  0.89280678  0.82214154  0.86242813  1  0  0.111802  0  0.966537  0  0  0.109264  0  1.045  0  0  0.113464  0  1.041571  0  0  0.119927  0.106015  0  1.047788  0
H  H12  1  0.62769758  0.90182650  0.41638672  1  0  0.133878  0  0.984898  0  0  0.135947  0  1.053988  0  0  0.140743  0  1.049282  0  0  0.129171  0.132299  0  1.057666  0
H  H13  1  0.37230099  0.09818005  0.58361313  1  0  0.13389  0  0.984978  0  0  0.135974  0  1.054051  0  0  0.140769  0  1.049344  0  0  0.12919  0.132333  0  1.057717  0
H  H14  1  0.09680741  0.54564275  0.38578724  1  0  0.114218  0  0.93882  0  0  0.123068  0  0.998898  0  0  0.126291  0  0.995858  0  0  0.126823  0.120643  0  1.001279  0
H  H15  1  0.90318870  0.45436030  0.61421937  1  0  0.114169  0  0.938843  0  0  0.123017  0  0.998945  0  0  0.12624  0  0.995905  0  0  0.126821  0.120596  0  1.001325  0
H  H16  1  0.60610434  0.56283968  0.14314963  1  0  0.116208  0  0.952261  0  0  0.124791  0  1.012982  0  0  0.127541  0  1.011226  0  0  0.123222  0.122701  0  1.01442  0
H  H17  1  0.39390254  0.43715876  0.85684796  1  0  0.116157  0  0.952297  0  0  0.124797  0  1.01293  0  0  0.127547  0  1.011175  0  0  0.123212  0.122709  0  1.014365  0
H  H18  1  0.69149066  0.97692388  0.10945039  1  0  0.123228  0  0.997262  0  0  0.139037  0  1.071696  0  0  0.141241  0  1.069795  0  0  0.092581  0.13726  0  1.073181  0
H  H19  1  0.30852205  0.02306656  0.89054487  1  0  0.123326  0  0.997247  0  0  0.139131  0  1.071679  0  0  0.141341  0  1.06976  0  0  0.092611  0.137352  0  1.073167  0
H  H20  1  0.56729932  0.85689383  0.05752242  1  0  0.136472  0  0.965895  0  0  0.158657  0  1.022438  0  0  0.160153  0  1.022774  0  0  0.097982  0.157462  0  1.022313  0
H  H21  1  0.43271360  0.14309704  0.94247653  1  0  0.136526  0  0.96588  0  0  0.158708  0  1.02242  0  0  0.160208  0  1.022747  0  0  0.097996  0.157511  0  1.022294  0
H  H22  1  0.80435146  0.77441366  0.03717935  1  0  0.144141  0  0.950431  0  0  0.170332  0  1.003435  0  0  0.171264  0  1.003413  0  0  0.103535  0.16952  0  1.003563  0
H  H23  1  0.19565906  0.22557421  0.96281821  1  0  0.144242  0  0.95036  0  0  0.170432  0  1.003368  0  0  0.171361  0  1.003351  0  0  0.103564  0.169618  0  1.003497  0
H  H24  1  0.56386851  0.57735033  0.53811230  1  0  0.398133  0  0.882583  0  0  0.366843  0  0.960655  0  0  0.379736  0  0.947028  0  0  0.3095  0.35771  0  0.970346  0
H  H25  1  0.43612983  0.42265538  0.46189276  1  0  0.398089  0  0.88262  0  0  0.366769  0  0.960729  0  0  0.379664  0  0.947101  0  0  0.309477  0.357635  0  0.970419  0
C  C26  1  0.32322513  0.35674073  0.14712635  1  0  -0.399615  0  3.707858  0  0  -0.484362  0  3.944731  0  0  -0.488815  0  3.953103  0  0  -0.24399  -0.480658  0  3.939094  0
C  C27  1  0.67677802  0.64326151  0.85286426  1  0  -0.399686  0  3.707697  0  0  -0.484443  0  3.944574  0  0  -0.488903  0  3.952987  0  0  -0.243967  -0.480719  0  3.938932  0
C  C28  1  0.34648345  0.19145340  0.21438250  1  0  0.297829  0  3.662167  0  0  0.304652  0  3.8991  0  0  0.312362  0  3.919949  0  0  0.141121  0.299048  0  3.885407  0
C  C29  1  0.65352094  0.80855208  0.78561094  1  0  0.297919  0  3.66234  0  0  0.304726  0  3.899211  0  0  0.312424  0  3.920068  0  0  0.141078  0.299116  0  3.885524  0
C  C30  1  0.22317183  0.11781125  0.20037132  1  0  0.038354  0  3.575852  0  0  0.003849  0  3.825877  0  0  0.003486  0  3.843662  0  0  0.059064  0.003508  0  3.814936  0
C  C31  1  0.77683244  0.88217684  0.79962528  1  0  0.038289  0  3.576263  0  0  0.003939  0  3.826194  0  0  0.003584  0  3.843976  0  0  0.059193  0.003602  0  3.815246  0
C  C32  1  0.38527926  0.89449919  0.33966971  1  0  0.047389  0  3.691151  0  0  0.050693  0  3.932278  0  0  0.045652  0  3.953095  0  0  0.121894  0.053364  0  3.919057  0
C  C33  1  0.61472354  0.10549141  0.66033484  1  0  0.047355  0  3.691346  0  0  0.050809  0  3.932252  0  0  0.045769  0  3.953071  0  0  0.121921  0.053479  0  3.919024  0
C  C34  1  0.50917926  0.96578077  0.35467569  1  0  0.103601  0  3.593254  0  0  0.058655  0  3.845638  0  0  0.065514  0  3.860777  0  0  0.06669  0.053863  0  3.836127  0
C  C35  1  0.49082068  0.03421939  0.64532085  1  0  0.103551  0  3.593359  0  0  0.058549  0  3.84569  0  0  0.065407  0  3.860826  0  0  0.066651  0.053744  0  3.836181  0
C  C36  1  0.42279192  0.72108453  0.40747165  1  0  0.670269  0  3.76032  0  0  0.61069  0  4.059629  0  0  0.646253  0  4.049414  0  0  0.252805  0.58631  0  4.066607  0
C  C37  1  0.57720762  0.27891774  0.59252994  1  0  0.670321  0  3.76012  0  0  0.610705  0  4.059421  0  0  0.646272  0  4.049204  0  0  0.252874  0.586338  0  4.06637  0
C  C38  1  0.98634395  0.55075976  0.33165300  1  0  0.097421  0  3.635607  0  0  0.05975  0  3.882087  0  0  0.066456  0  3.897457  0  0  0.05908  0.055055  0  3.872216  0
C  C39  1  0.01365463  0.44923987  0.66835092  1  0  0.097496  0  3.635685  0  0  0.05978  0  3.882153  0  0  0.066489  0  3.897519  0  0  0.059117  0.05507  0  3.872289  0
C  C40  1  0.91611384  0.42557584  0.34730149  1  0  0.051887  0  3.711287  0  0  0.052071  0  3.956468  0  0  0.050415  0  3.974815  0  0  0.109289  0.052526  0  3.944618  0
C  C41  1  0.08387635  0.57442845  0.65270043  1  0  0.051817  0  3.711306  0  0  0.052118  0  3.956398  0  0  0.050462  0  3.974745  0  0  0.109344  0.052572  0  3.944551  0
C  C42  1  0.98525749  0.28309266  0.44126084  1  0  0.596605  0  4.008223  0  0  0.548022  0  4.306732  0  0  0.581077  0  4.302113  0  0  0.186201  0.525669  0  4.308468  0
C  C43  1  0.01472502  0.71692466  0.55874750  1  0  0.596737  0  4.007964  0  0  0.548012  0  4.306662  0  0  0.581065  0  4.302051  0  0  0.186206  0.52567  0  4.308384  0
C  C44  1  0.71568450  0.55954474  0.19755933  1  0  0.028323  0  3.624051  0  0  -0.005078  0  3.871169  0  0  -0.005129  0  3.890448  0  0  0.048593  -0.005437  0  3.858597  0
C  C45  1  0.28431929  0.44045550  0.80243955  1  0  0.028369  0  3.623991  0  0  -0.005067  0  3.871093  0  0  -0.005117  0  3.890369  0  0  0.048598  -0.005424  0  3.858515  0
C  C46  1  0.78179448  0.68896181  0.18175309  1  0  0.277611  0  3.696147  0  0  0.283358  0  3.939466  0  0  0.289608  0  3.961736  0  0  0.125448  0.278971  0  3.924417  0
C  C47  1  0.21820992  0.31103675  0.81824442  1  0  0.2777  0  3.696121  0  0  0.28346  0  3.939419  0  0  0.289709  0  3.961692  0  0  0.125517  0.279069  0  3.924369  0
C  C48  1  0.70453949  0.83324585  0.09167427  1  0  -0.40047  0  3.690765  0  0  -0.485723  0  3.917636  0  0  -0.489752  0  3.926798  0  0  -0.253003  -0.482466  0  3.911359  0
C  C49  1  0.29547260  0.16674627  0.90832237  1  0  -0.400799  0  3.690938  0  0  -0.486034  0  3.917731  0  0  -0.490068  0  3.926909  0  0  -0.253108  -0.482772  0  3.911449  0
N  N50  1  0.49115839  0.11074903  0.29168913  1  0  -0.291645  0  3.246975  0  0  -0.20946  0  3.5202  0  0  -0.227483  0  3.534236  0  0  -0.321792  -0.197532  0  3.511039  0
N  N51  1  0.50884126  0.88924691  0.70830911  1  0  -0.291587  0  3.246766  0  0  -0.209414  0  3.520005  0  0  -0.227431  0  3.534044  0  0  -0.321781  -0.19748  0  3.510844  0
N  N52  1  0.24297918  0.97004129  0.26177083  1  0  -0.224931  0  3.29575  0  0  -0.152573  0  3.569582  0  0  -0.163961  0  3.585167  0  0  -0.307099  -0.144876  0  3.559601  0
N  N53  1  0.75702763  0.02995006  0.73822938  1  0  -0.224862  0  3.29599  0  0  -0.152571  0  3.569709  0  0  -0.163957  0  3.585289  0  0  -0.307088  -0.144877  0  3.559726  0
N  N54  1  0.91896484  0.68188775  0.25025383  1  0  -0.317649  0  3.279107  0  0  -0.230531  0  3.548938  0  0  -0.249549  0  3.564746  0  0  -0.327121  -0.217545  0  3.538144  0
N  N55  1  0.08103721  0.31811119  0.74974580  1  0  -0.317673  0  3.279078  0  0  -0.230588  0  3.548952  0  0  -0.249606  0  3.564756  0  0  -0.327176  -0.217591  0  3.538147  0
N  N56  1  0.78074814  0.43196999  0.27952173  1  0  -0.261386  0  3.333724  0  0  -0.18804  0  3.602063  0  0  -0.200912  0  3.619339  0  0  -0.318525  -0.179041  0  3.590461  0
N  N57  1  0.21924440  0.56803392  0.72047807  1  0  -0.261347  0  3.333653  0  0  -0.188008  0  3.601947  0  0  -0.200881  0  3.619224  0  0  -0.318535  -0.179006  0  3.590341  0
N  N58  1  0.20117749  0.78466415  0.98761708  1  0  0.705912  0  4.140743  0  0  0.741189  0  4.427035  0  0  0.767647  0  4.433945  0  0  0.09571  0.736133  0  4.401056  0
N  N59  1  0.79882056  0.21534426  0.01238560  1  0  0.705916  0  4.140779  0  0  0.741229  0  4.426961  0  0  0.767701  0  4.433861  0  0  0.095734  0.736118  0  4.401054  0
O  O60  1  0.52328187  0.70466281  0.49322369  1  0  -0.503571  0  2.163504  0  0  -0.448561  0  2.392301  0  0  -0.471351  0  2.378054  0  0  -0.298621  -0.432984  0  2.402055  0
O  O61  1  0.47671312  0.29533397  0.50677953  1  0  -0.503538  0  2.163474  0  0  -0.4485  0  2.392287  0  0  -0.471289  0  2.378039  0  0  -0.298627  -0.432926  0  2.402029  0
O  O62  1  0.37255316  0.60123518  0.38071991  1  0  -0.568924  0  2.072811  0  0  -0.518715  0  2.326465  0  0  -0.542607  0  2.31368  0  0  -0.272414  -0.502522  0  2.335159  0
O  O63  1  0.62744919  0.39876765  0.61928766  1  0  -0.568945  0  2.072637  0  0  -0.518779  0  2.326328  0  0  -0.542673  0  2.31354  0  0  -0.272455  -0.502589  0  2.335011  0
O  O64  1  0.14470493  0.23776035  0.48780532  1  0  -0.610101  0  1.962674  0  0  -0.567887  0  2.20128  0  0  -0.595082  0  2.196494  0  0  -0.326004  -0.547787  0  2.203388  0
O  O65  1  0.85526894  0.76224398  0.51220198  1  0  -0.610219  0  1.96238  0  0  -0.567956  0  2.201061  0  0  -0.595152  0  2.196269  0  0  -0.326072  -0.547865  0  2.20319  0
O  O66  1  0.87376702  0.22802774  0.46348305  1  0  -0.612239  0  2.01172  0  0  -0.548925  0  2.269364  0  0  -0.578593  0  2.259229  0  0  -0.337102  -0.527335  0  2.275105  0
O  O67  1  0.12619485  0.77199552  0.53651617  1  0  -0.6122  0  2.011658  0  0  -0.548864  0  2.269365  0  0  -0.578525  0  2.25923  0  0  -0.337077  -0.527279  0  2.275102  0
O  O68  1  0.06901661  0.76986846  0.01669969  1  0  -0.490611  0  1.779347  0  0  -0.474868  0  2.003128  0  0  -0.490754  0  1.997366  0  0  -0.201665  -0.467567  0  2.001012  0
O  O69  1  0.93098459  0.23015140  0.98331356  1  0  -0.490683  0  1.779333  0  0  -0.474977  0  2.003104  0  0  -0.490871  0  1.997344  0  0  -0.20174  -0.467664  0  2.001012  0
O  O70  1  0.33292896  0.77366611  0.04981355  1  0  -0.476677  0  1.75573  0  0  -0.466025  0  1.968635  0  0  -0.479915  0  1.964024  0  0  -0.199416  -0.460087  0  1.965675  0
O  O71  1  0.66708428  0.22633599  0.95018036  1  0  -0.476631  0  1.755803  0  0  -0.466015  0  1.96873  0  0  -0.479929  0  1.964158  0  0  -0.199407  -0.460061  0  1.96578  0
O  O72  1  0.20076651  0.80949491  0.89446164  1  0  -0.534521  0  1.85678  0  0  -0.518045  0  2.116934  0  0  -0.534576  0  2.106233  0  0  -0.214761  -0.51021  0  2.118227  0
O  O73  1  0.79922116  0.19050942  0.10553945  1  0  -0.53447  0  1.85669  0  0  -0.518036  0  2.116907  0  0  -0.53457  0  2.106205  0  0  -0.214733  -0.51016  0  2.118166  0
