# generated using pymatgen
data_CdH14C15S2N8O
_symmetry_space_group_name_H-M   'P 1'
_cell_length_a   5.78185786
_cell_length_b   13.26131893
_cell_length_c   13.24190540
_cell_angle_alpha   89.69775559
_cell_angle_beta   92.69562372
_cell_angle_gamma   99.86722341
_symmetry_Int_Tables_number   1
_chemical_formula_structural   CdH14C15S2N8O
_chemical_formula_sum   'Cd2 H28 C30 S4 N16 O2'
_cell_volume   999.19387964
_cell_formula_units_Z   2
loop_
 _symmetry_equiv_pos_site_id
 _symmetry_equiv_pos_as_xyz
  1  'x, y, z'
loop_
 _atom_site_type_symbol
 _atom_site_label
 _atom_site_symmetry_multiplicity
 _atom_site_fract_x
 _atom_site_fract_y
 _atom_site_fract_z
 _atom_site_occupancy
 _atom_site_hle17_bader_spin_density
 _atom_site_hle17_ddec_charge
 _atom_site_hle17_ddec_spin_density
 _atom_site_hle17_ddec_sum_bond_order
 _atom_site_hle17_magmom
 _atom_site_hse06_10hf_bader_spin_density
 _atom_site_hse06_10hf_ddec_charge
 _atom_site_hse06_10hf_ddec_spin_density
 _atom_site_hse06_10hf_ddec_sum_bond_order
 _atom_site_hse06_10hf_magmom
 _atom_site_hse06_bader_spin_density
 _atom_site_hse06_ddec_charge
 _atom_site_hse06_ddec_spin_density
 _atom_site_hse06_ddec_sum_bond_order
 _atom_site_hse06_magmom
 _atom_site_pbe_bader_spin_density
 _atom_site_pbe_cm5_charge
 _atom_site_pbe_ddec_charge
 _atom_site_pbe_ddec_spin_density
 _atom_site_pbe_ddec_sum_bond_order
 _atom_site_pbe_magmom
Cd  Cd0  1  0.50033111  0.17684774  0.30192190  1  0  0.982257  0  2.01506  0  0  0.802783  0  2.485229  0  0  0.846925  0  2.448175  0  0  0.731503  0.771918  0  2.510284  0
Cd  Cd1  1  0.49972530  0.82314784  0.69807673  1  0  0.982247  0  2.014986  0  0  0.802752  0  2.485163  0  0  0.846894  0  2.448107  0  0  0.731541  0.77189  0  2.510213  0
H  H2  1  0.67420218  0.95902213  0.19952649  1  0  0.112627  0  0.9338  0  0  0.11904  0  1.002675  0  0  0.122016  0  0.998738  0  0  0.139087  0.116845  0  1.005409  0
H  H3  1  0.32584523  0.04096708  0.80045216  1  0  0.112551  0  0.933733  0  0  0.118958  0  1.002608  0  0  0.121928  0  0.998676  0  0  0.13904  0.116768  0  1.005344  0
H  H4  1  0.64321331  0.82654178  0.04360290  1  0  0.097321  0  0.931044  0  0  0.10495  0  1.004441  0  0  0.106808  0  1.002489  0  0  0.115462  0.103569  0  1.005864  0
H  H5  1  0.35676566  0.17343322  0.95637595  1  0  0.097402  0  0.930826  0  0  0.104942  0  1.00437  0  0  0.10681  0  1.002405  0  0  0.115502  0.103557  0  1.005797  0
H  H6  1  0.37597635  0.81051792  0.96789491  1  0  0.105051  0  0.926612  0  0  0.114984  0  0.996142  0  0  0.115958  0  0.995693  0  0  0.116841  0.114253  0  0.996484  0
H  H7  1  0.62399075  0.18947460  0.03209221  1  0  0.105028  0  0.926502  0  0  0.114963  0  0.996053  0  0  0.115932  0  0.99561  0  0  0.116783  0.114233  0  0.99639  0
H  H8  1  0.02609977  0.69431936  0.02072295  1  0  0.100796  0  0.966455  0  0  0.107406  0  1.038138  0  0  0.110185  0  1.036466  0  0  0.097452  0.105368  0  1.03945  0
H  H9  1  0.97384466  0.30568662  0.97928416  1  0  0.10084  0  0.966335  0  0  0.107323  0  1.038191  0  0  0.110103  0  1.036515  0  0  0.097361  0.105291  0  1.03949  0
H  H10  1  0.71693351  0.47844648  0.17186929  1  0  0.108499  0  0.961121  0  0  0.130004  0  1.023606  0  0  0.130649  0  1.024626  0  0  0.084376  0.129434  0  1.023046  0
H  H11  1  0.28302183  0.52156479  0.82813819  1  0  0.108522  0  0.961146  0  0  0.130079  0  1.023557  0  0  0.130721  0  1.024582  0  0  0.084381  0.129517  0  1.022989  0
H  H12  1  0.84062380  0.45553693  0.05753914  1  0  0.116142  0  0.961417  0  0  0.140887  0  1.018055  0  0  0.140906  0  1.020262  0  0  0.091064  0.140788  0  1.016588  0
H  H13  1  0.15934807  0.54447265  0.94247102  1  0  0.116222  0  0.961328  0  0  0.140941  0  1.017993  0  0  0.14098  0  1.020175  0  0  0.09108  0.140837  0  1.016537  0
H  H14  1  0.68969605  0.56005780  0.06563637  1  0  0.109846  0  0.954805  0  0  0.12852  0  1.019  0  0  0.129996  0  1.019253  0  0  0.087622  0.127424  0  1.018879  0
H  H15  1  0.31027126  0.43994886  0.93436910  1  0  0.10981  0  0.954865  0  0  0.128498  0  1.019075  0  0  0.129975  0  1.019326  0  0  0.087582  0.127401  0  1.01895  0
H  H16  1  0.71931174  0.73767159  0.48367346  1  0  0.121248  0  0.922473  0  0  0.131497  0  0.98161  0  0  0.134559  0  0.977425  0  0  0.146048  0.129312  0  0.984276  0
H  H17  1  0.28069914  0.26231555  0.51633590  1  0  0.121194  0  0.922508  0  0  0.131355  0  0.981756  0  0  0.134413  0  0.977576  0  0  0.145985  0.129167  0  0.984432  0
H  H18  1  0.72404810  0.60649712  0.33792722  1  0  0.088183  0  0.924916  0  0  0.101228  0  0.989542  0  0  0.10286  0  0.987441  0  0  0.118937  0.100173  0  0.990533  0
H  H19  1  0.27591699  0.39350752  0.66206683  1  0  0.088221  0  0.924892  0  0  0.101173  0  0.98959  0  0  0.102813  0  0.987505  0  0  0.118933  0.100121  0  0.990589  0
H  H20  1  0.51174252  0.49269206  0.34137413  1  0  0.096022  0  0.925003  0  0  0.107251  0  0.993256  0  0  0.108343  0  0.992072  0  0  0.117118  0.106616  0  0.99354  0
H  H21  1  0.48822051  0.50731572  0.65861765  1  0  0.095999  0  0.924943  0  0  0.107261  0  0.993128  0  0  0.108392  0  0.991918  0  0  0.117091  0.106602  0  0.993448  0
H  H22  1  0.10997621  0.48741461  0.26552300  1  0  0.098178  0  0.962907  0  0  0.107447  0  1.030765  0  0  0.109991  0  1.029175  0  0  0.098302  0.105608  0  1.032028  0
H  H23  1  0.88997353  0.51260036  0.73449195  1  0  0.097984  0  0.96311  0  0  0.107289  0  1.030966  0  0  0.109832  0  1.029379  0  0  0.098265  0.105449  0  1.032234  0
H  H24  1  0.06356024  0.07521276  0.10834620  1  0  0.088641  0  0.956924  0  0  0.090957  0  1.032609  0  0  0.093203  0  1.02976  0  0  0.127674  0.089312  0  1.034596  0
H  H25  1  0.93651379  0.92479966  0.89165013  1  0  0.088523  0  0.957064  0  0  0.090865  0  1.032699  0  0  0.093108  0  1.029848  0  0  0.127608  0.089209  0  1.034719  0
H  H26  1  0.06192104  0.60803805  0.59124312  1  0  0.093947  0  0.939666  0  0  0.099645  0  1.00893  0  0  0.102065  0  1.005904  0  0  0.131483  0.097844  0  1.011215  0
H  H27  1  0.93807625  0.39196546  0.40875857  1  0  0.093977  0  0.939632  0  0  0.099703  0  1.008881  0  0  0.102126  0  1.005852  0  0  0.131464  0.097904  0  1.011162  0
H  H28  1  0.83322008  0.71133270  0.21036745  1  0  0.366235  0  0.867793  0  0  0.349989  0  0.932067  0  0  0.35737  0  0.924  0  0  0.312269  0.344761  0  0.93781  0
H  H29  1  0.16675015  0.28865455  0.78961438  1  0  0.366191  0  0.867782  0  0  0.349974  0  0.931987  0  0  0.357355  0  0.923919  0  0  0.312291  0.34475  0  0.937725  0
C  C30  1  0.51153642  0.97168623  0.16135469  1  0  0.174838  0  3.633933  0  0  0.096779  0  3.897729  0  0  0.111724  0  3.908637  0  0  0.160302  0.087378  0  3.889857  0
C  C31  1  0.48850637  0.02830507  0.83863369  1  0  0.175009  0  3.633618  0  0  0.096901  0  3.897381  0  0  0.111846  0  3.908297  0  0  0.160311  0.087481  0  3.889531  0
C  C32  1  0.45146408  0.81714532  0.04551895  1  0  -0.050589  0  3.651124  0  0  -0.1293  0  3.902409  0  0  -0.124597  0  3.91173  0  0  -0.04815  -0.132204  0  3.896037  0
C  C33  1  0.54852081  0.18284407  0.95446633  1  0  -0.050765  0  3.65076  0  0  -0.129443  0  3.901973  0  0  -0.124745  0  3.911285  0  0  -0.048169  -0.132351  0  3.895603  0
C  C34  1  0.35460516  0.72537672  0.10737032  1  0  -0.017158  0  3.748407  0  0  -0.004422  0  3.997253  0  0  -0.008406  0  4.022037  0  0  -0.022851  -0.001759  0  3.980532  0
C  C35  1  0.64537030  0.27462397  0.89262621  1  0  -0.016709  0  3.748308  0  0  -0.003997  0  3.997103  0  0  -0.007978  0  4.021885  0  0  -0.022741  -0.001337  0  3.980386  0
C  C36  1  0.12956522  0.67024813  0.08483198  1  0  -0.161205  0  3.727929  0  0  -0.188288  0  3.976767  0  0  -0.189186  0  3.995635  0  0  -0.091433  -0.187542  0  3.964049  0
C  C37  1  0.87039385  0.32975549  0.91517397  1  0  -0.16158  0  3.727803  0  0  -0.188513  0  3.976754  0  0  -0.18941  0  3.995618  0  0  -0.091443  -0.187762  0  3.964026  0
C  C38  1  0.03749179  0.58311817  0.14002902  1  0  0.110948  0  3.804434  0  0  0.135987  0  4.048822  0  0  0.135471  0  4.072908  0  0  -0.023264  0.136167  0  4.032616  0
C  C39  1  0.96245965  0.41689229  0.85998137  1  0  0.111254  0  3.803703  0  0  0.136079  0  4.048427  0  0  0.135563  0  4.072513  0  0  -0.023188  0.136257  0  4.032226  0
C  C40  1  0.80819837  0.51686597  0.10776525  1  0  -0.337911  0  3.713584  0  0  -0.417346  0  3.943989  0  0  -0.419658  0  3.955102  0  0  -0.24627  -0.415431  0  3.93644  0
C  C41  1  0.19176900  0.48314520  0.89224406  1  0  -0.338147  0  3.713475  0  0  -0.41758  0  3.943931  0  0  -0.419903  0  3.955024  0  0  -0.246333  -0.415666  0  3.936381  0
C  C42  1  0.54977087  0.68959689  0.49293914  1  0  0.176352  0  3.62793  0  0  0.098661  0  3.88986  0  0  0.120673  0  3.904688  0  0  0.164498  0.089216  0  3.882496  0
C  C43  1  0.45023097  0.31039339  0.50706927  1  0  0.176265  0  3.628069  0  0  0.098664  0  3.890025  0  0  0.120678  0  3.904846  0  0  0.164423  0.089205  0  3.88268  0
C  C44  1  0.53521365  0.57654108  0.33789342  1  0  -0.037572  0  3.659955  0  0  -0.116356  0  3.911283  0  0  -0.104535  0  3.923469  0  0  -0.041778  -0.119661  0  3.90534  0
C  C45  1  0.46474899  0.42346589  0.66209984  1  0  -0.037661  0  3.659917  0  0  -0.116324  0  3.911162  0  0  -0.104582  0  3.923408  0  0  -0.041796  -0.119637  0  3.905272  0
C  C46  1  0.40012558  0.60954450  0.24700299  1  0  -0.041541  0  3.781656  0  0  -0.028183  0  4.032594  0  0  -0.031798  0  4.055655  0  0  -0.026979  -0.025374  0  4.01574  0
C  C47  1  0.59982756  0.39046146  0.75300284  1  0  -0.041575  0  3.781606  0  0  -0.028207  0  4.032451  0  0  -0.03181  0  4.055532  0  0  -0.026973  -0.025389  0  4.0156  0
C  C48  1  0.49110547  0.69463586  0.18867003  1  0  0.225055  0  3.771814  0  0  0.209077  0  4.035739  0  0  0.216674  0  4.053721  0  0  0.077087  0.203764  0  4.023524  0
C  C49  1  0.50885897  0.30536335  0.81132618  1  0  0.224814  0  3.772011  0  0  0.20889  0  4.03588  0  0  0.216487  0  4.053859  0  0  0.077008  0.203573  0  4.02367  0
C  C50  1  0.17626656  0.55497286  0.22143617  1  0  -0.149875  0  3.738349  0  0  -0.184091  0  3.996141  0  0  -0.185319  0  4.016887  0  0  -0.09404  -0.183091  0  3.982089  0
C  C51  1  0.82367995  0.44504284  0.77858096  1  0  -0.149635  0  3.738209  0  0  -0.183838  0  3.996044  0  0  -0.185068  0  4.016802  0  0  -0.093953  -0.182845  0  3.982  0
C  C52  1  0.01451712  0.27745516  0.19521755  1  0  0.30219  0  4.031043  0  0  0.2841  0  4.330268  0  0  0.305939  0  4.344541  0  0  0.142673  0.26923  0  4.320238  0
C  C53  1  0.98554937  0.72255365  0.80480346  1  0  0.302114  0  4.031712  0  0  0.284018  0  4.330941  0  0  0.305854  0  4.345214  0  0  0.14259  0.269145  0  4.320911  0
C  C54  1  0.96322961  0.09475707  0.39137192  1  0  0.300435  0  4.027971  0  0  0.281573  0  4.327853  0  0  0.303728  0  4.34241  0  0  0.138968  0.266502  0  4.317656  0
C  C55  1  0.03681638  0.90521460  0.60863437  1  0  0.300319  0  4.028182  0  0  0.281458  0  4.328055  0  0  0.303611  0  4.342609  0  0  0.138897  0.266393  0  4.317859  0
C  C56  1  0.19801857  0.02739814  0.11533030  1  0  0.19553  0  3.725959  0  0  0.143519  0  4.015588  0  0  0.154839  0  4.029453  0  0  0.139771  0.136226  0  4.005866  0
C  C57  1  0.80203879  0.97260752  0.88466398  1  0  0.1957  0  3.726285  0  0  0.143654  0  4.015937  0  0  0.154984  0  4.029797  0  0  0.139826  0.136358  0  4.006209  0
C  C58  1  0.21531550  0.62338163  0.54591750  1  0  0.191674  0  3.725402  0  0  0.140296  0  4.0162  0  0  0.152484  0  4.026614  0  0  0.140677  0.133044  0  4.007071  0
C  C59  1  0.78467791  0.37662108  0.45408635  1  0  0.19145  0  3.725541  0  0  0.140046  0  4.016315  0  0  0.152231  0  4.026731  0  0  0.14057  0.132797  0  4.007186  0
S  S60  1  0.28642113  0.30849174  0.16425741  1  0  -0.345705  0  2.097825  0  0  -0.31261  0  2.413769  0  0  -0.328775  0  2.407901  0  0  -0.146642  -0.301122  0  2.41749  0
S  S61  1  0.71363946  0.69151943  0.83576272  1  0  -0.345747  0  2.097897  0  0  -0.312663  0  2.413854  0  0  -0.328827  0  2.407981  0  0  -0.146664  -0.301161  0  2.417575  0
S  S62  1  0.69816472  0.03600202  0.41111432  1  0  -0.31787  0  2.170685  0  0  -0.287425  0  2.483207  0  0  -0.304108  0  2.475971  0  0  -0.152382  -0.275788  0  2.487885  0
S  S63  1  0.30188472  0.96398520  0.58888248  1  0  -0.317957  0  2.17027  0  0  -0.287542  0  2.482851  0  0  -0.304209  0  2.475582  0  0  -0.152465  -0.275908  0  2.487532  0
N  N64  1  0.19314005  0.94514100  0.05772485  1  0  -0.277451  0  2.847381  0  0  -0.275939  0  3.117272  0  0  -0.284294  0  3.13125  0  0  -0.223994  -0.270097  0  3.107809  0
N  N65  1  0.80689912  0.05486640  0.94226519  1  0  -0.277343  0  2.847615  0  0  -0.275868  0  3.117467  0  0  -0.284222  0  3.131443  0  0  -0.223946  -0.270031  0  3.107997  0
N  N66  1  0.23636408  0.56867076  0.46394678  1  0  -0.280722  0  2.86414  0  0  -0.281481  0  3.137547  0  0  -0.282939  0  3.15789  0  0  -0.22561  -0.27567  0  3.12766  0
N  N67  1  0.76360729  0.43133680  0.53605202  1  0  -0.280548  0  2.864271  0  0  -0.281289  0  3.137693  0  0  -0.282747  0  3.158031  0  0  -0.225427  -0.275489  0  3.127801  0
N  N68  1  0.39114691  0.04647753  0.18017476  1  0  -0.41252  0  3.2336  0  0  -0.336303  0  3.515192  0  0  -0.359498  0  3.532504  0  0  -0.34774  -0.320529  0  3.502737  0
N  N69  1  0.60892225  0.95352283  0.81981370  1  0  -0.412719  0  3.233651  0  0  -0.336411  0  3.515174  0  0  -0.359612  0  3.532487  0  0  -0.347708  -0.320635  0  3.502721  0
N  N70  1  0.39504599  0.91138153  0.08772621  1  0  0.051499  0  3.545148  0  0  0.170814  0  3.734106  0  0  0.159741  0  3.758542  0  0  -0.131221  0.177108  0  3.719196  0
N  N71  1  0.60498156  0.08861841  0.91225735  1  0  0.051401  0  3.545281  0  0  0.170834  0  3.734098  0  0  0.159758  0  3.758536  0  0  -0.131226  0.177148  0  3.719159  0
N  N72  1  0.40466796  0.69820036  0.56684604  1  0  -0.401143  0  3.21181  0  0  -0.332174  0  3.501266  0  0  -0.353481  0  3.514335  0  0  -0.342976  -0.317201  0  3.489814  0
N  N73  1  0.59533684  0.30179294  0.43316401  1  0  -0.400902  0  3.21184  0  0  -0.33192  0  3.501236  0  0  -0.353226  0  3.514306  0  0  -0.34279  -0.316949  0  3.489792  0
N  N74  1  0.45076710  0.61201264  0.43161588  1  0  0.043408  0  3.561239  0  0  0.162859  0  3.750478  0  0  0.128121  0  3.808151  0  0  -0.132431  0.169456  0  3.735127  0
N  N75  1  0.54921608  0.38798632  0.56838688  1  0  0.043369  0  3.561508  0  0  0.162721  0  3.750807  0  0  0.128006  0  3.808487  0  0  -0.132536  0.169381  0  3.735346  0
N  N76  1  0.81507955  0.25603556  0.21635051  1  0  -0.551103  0  2.88911  0  0  -0.491842  0  3.164315  0  0  -0.51305  0  3.170999  0  0  -0.405935  -0.477313  0  3.159612  0
N  N77  1  0.18496412  0.74396363  0.78366067  1  0  -0.550979  0  2.889605  0  0  -0.4917  0  3.164736  0  0  -0.512906  0  3.171417  0  0  -0.405835  -0.477167  0  3.160028  0
N  N78  1  0.15474604  0.13966220  0.37865406  1  0  -0.555545  0  2.94873  0  0  -0.499079  0  3.228035  0  0  -0.521561  0  3.23595  0  0  -0.408654  -0.483706  0  3.22247  0
N  N79  1  0.84532725  0.86031184  0.62134318  1  0  -0.55533  0  2.949344  0  0  -0.498896  0  3.228677  0  0  -0.521375  0  3.23659  0  0  -0.408534  -0.483528  0  3.223117  0
O  O80  1  0.70938546  0.75332560  0.21089292  1  0  -0.518996  0  2.097101  0  0  -0.475363  0  2.301015  0  0  -0.48998  0  2.292838  0  0  -0.366881  -0.46479  0  2.306383  0
O  O81  1  0.29059437  0.24666838  0.78909456  1  0  -0.51883  0  2.097022  0  0  -0.475199  0  2.30089  0  0  -0.489821  0  2.292722  0  0  -0.366788  -0.464618  0  2.306244  0
