# generated using pymatgen
data_CdH24C28(N2O3)2
_symmetry_space_group_name_H-M   'P 1'
_cell_length_a   10.70344776
_cell_length_b   17.02909488
_cell_length_c   17.82366951
_cell_angle_alpha   99.45437063
_cell_angle_beta   89.99990813
_cell_angle_gamma   89.99991744
_symmetry_Int_Tables_number   1
_chemical_formula_structural   CdH24C28(N2O3)2
_chemical_formula_sum   'Cd4 H96 C112 N16 O24'
_cell_volume   3204.59248016
_cell_formula_units_Z   4
loop_
 _symmetry_equiv_pos_site_id
 _symmetry_equiv_pos_as_xyz
  1  'x, y, z'
loop_
 _atom_site_type_symbol
 _atom_site_label
 _atom_site_symmetry_multiplicity
 _atom_site_fract_x
 _atom_site_fract_y
 _atom_site_fract_z
 _atom_site_occupancy
 _atom_site_pbe_bader_charge
 _atom_site_pbe_bader_spin_density
 _atom_site_pbe_cm5_charge
 _atom_site_pbe_ddec_charge
 _atom_site_pbe_ddec_spin_density
 _atom_site_pbe_ddec_sum_bond_order
 _atom_site_pbe_magmom
Cd  Cd0  1  0.54721331  0.32930666  0.48414829  1  1.228981  0  0.771908  0.860934  0  2.16031  0
Cd  Cd1  1  0.04721074  0.17069255  0.01585213  1  1.229043  0  0.771917  0.860922  0  2.160288  0
Cd  Cd2  1  0.45278816  0.67069365  0.51585069  1  1.229055  0  0.771907  0.860937  0  2.160266  0
Cd  Cd3  1  0.95278886  0.82930658  0.98414779  1  1.229051  0  0.771916  0.860925  0  2.160312  0
H  H4  1  0.45547500  0.22308065  0.31096672  1  0.195162  0  0.134185  0.115714  0  1.031748  0
H  H5  1  0.95547380  0.27691811  0.18903380  1  0.195192  0  0.134199  0.115736  0  1.031759  0
H  H6  1  0.54452461  0.77691966  0.68903339  1  0.195169  0  0.134201  0.115747  0  1.031716  0
H  H7  1  0.04452580  0.72308161  0.81096621  1  0.195197  0  0.134209  0.115742  0  1.031743  0
H  H8  1  0.32264824  0.44548450  0.42176882  1  0.146236  0  0.115112  0.112856  0  1.052756  0
H  H9  1  0.82264597  0.05451381  0.07823288  1  0.146272  0  0.115088  0.112884  0  1.052747  0
H  H10  1  0.67735137  0.55451582  0.57823016  1  0.146053  0  0.115108  0.11283  0  1.05276  0
H  H11  1  0.17735456  0.94548650  0.92176667  1  0.146275  0  0.115095  0.112896  0  1.052747  0
H  H12  1  0.19886872  0.40550990  0.28307252  1  0.124847  0  0.128266  0.131484  0  0.990696  0
H  H13  1  0.69886694  0.09448915  0.21692941  1  0.124772  0  0.128239  0.131449  0  0.990694  0
H  H14  1  0.80113181  0.59448982  0.71692750  1  0.124832  0  0.128263  0.131475  0  0.990701  0
H  H15  1  0.30113360  0.90550998  0.78306995  1  0.12478  0  0.128243  0.131462  0  0.990678  0
H  H16  1  0.18005358  0.25962236  0.19545676  1  0.084359  0  0.118228  0.110358  0  0.985993  0
H  H17  1  0.68005309  0.24037790  0.30454482  1  0.084346  0  0.118225  0.110337  0  0.986014  0
H  H18  1  0.81994603  0.74037617  0.80454362  1  0.084336  0  0.118235  0.110331  0  0.986006  0
H  H19  1  0.31994745  0.75962301  0.69545595  1  0.084342  0  0.118234  0.110349  0  0.985997  0
H  H20  1  0.31550813  0.19920313  0.19396535  1  0.09413  0  0.116457  0.103449  0  0.994802  0
H  H21  1  0.81550750  0.30079697  0.30603439  1  0.094179  0  0.116446  0.103432  0  0.994819  0
H  H22  1  0.68449147  0.80079599  0.80603513  1  0.094156  0  0.116445  0.103421  0  0.994823  0
H  H23  1  0.18449210  0.69920394  0.69396525  1  0.094191  0  0.116439  0.103412  0  0.994844  0
H  H24  1  0.29153928  0.27277695  0.08326955  1  0.092498  0  0.106775  0.0816  0  1.005095  0
H  H25  1  0.79153946  0.22722378  0.41673200  1  0.092464  0  0.10677  0.081547  0  1.005094  0
H  H26  1  0.70846032  0.72722218  0.91673093  1  0.092504  0  0.106779  0.081588  0  1.005081  0
H  H27  1  0.20846014  0.77277594  0.58326858  1  0.092474  0  0.106761  0.081538  0  1.005146  0
H  H28  1  0.31151677  0.36460473  0.14725077  1  0.062799  0  0.104253  0.07353  0  0.987665  0
H  H29  1  0.81151452  0.13539598  0.35275131  1  0.062786  0  0.104227  0.073516  0  0.987629  0
H  H30  1  0.68848470  0.63539440  0.85275027  1  0.062771  0  0.104238  0.07351  0  0.987649  0
H  H31  1  0.18848695  0.86460434  0.64724880  1  0.062776  0  0.104217  0.073511  0  0.987683  0
H  H32  1  0.70039723  0.26841826  0.11035799  1  0.067987  0  0.096922  0.110495  0  1.041709  0
H  H33  1  0.20039633  0.23157781  0.38963955  1  0.06813  0  0.096933  0.110518  0  1.041637  0
H  H34  1  0.29960237  0.73158086  0.88964137  1  0.067993  0  0.096934  0.110519  0  1.041634  0
H  H35  1  0.79960234  0.76842311  0.61036065  1  0.068137  0  0.096941  0.110524  0  1.041626  0
H  H36  1  0.82471987  0.31597865  0.00836296  1  0.081156  0  0.098401  0.100514  0  1.034677  0
H  H37  1  0.32471974  0.18401847  0.49163462  1  0.081141  0  0.098406  0.100488  0  1.034669  0
H  H38  1  0.17527973  0.68402047  0.99163696  1  0.081156  0  0.098404  0.100502  0  1.034688  0
H  H39  1  0.67527987  0.81598125  0.50836539  1  0.081125  0  0.098403  0.100479  0  1.034692  0
H  H40  1  0.36749234  0.37117746  0.02962030  1  0.06629  0  0.104105  0.124094  0  1.022835  0
H  H41  1  0.86749073  0.12882438  0.47038135  1  0.066329  0  0.104125  0.124151  0  1.022788  0
H  H42  1  0.63250726  0.62882286  0.97038037  1  0.066293  0  0.104104  0.124092  0  1.022858  0
H  H43  1  0.13250887  0.87117654  0.52961829  1  0.066332  0  0.104108  0.124107  0  1.022856  0
H  H44  1  0.37681330  0.44010673  0.92172075  1  0.073515  0  0.101222  0.116079  0  1.031981  0
H  H45  1  0.87681383  0.05989339  0.57828064  1  0.07357  0  0.10123  0.116068  0  1.032044  0
H  H46  1  0.62318630  0.55989418  0.07827945  1  0.073516  0  0.101224  0.116076  0  1.032017  0
H  H47  1  0.12318577  0.94010633  0.42171937  1  0.073535  0  0.101232  0.116074  0  1.03203  0
H  H48  1  0.72583088  0.45841236  0.80423863  1  0.070857  0  0.102746  0.115845  0  0.99792  0
H  H49  1  0.22583186  0.04158851  0.69576078  1  0.070858  0  0.102745  0.115844  0  0.997938  0
H  H50  1  0.27416966  0.54158795  0.19576148  1  0.070858  0  0.102745  0.11584  0  0.997937  0
H  H51  1  0.77416867  0.95841180  0.30423876  1  0.070845  0  0.102735  0.115833  0  0.997935  0
H  H52  1  0.83478078  0.38659141  0.89651971  1  0.043493  0  0.099816  0.104251  0  1.016059  0
H  H53  1  0.33477904  0.11340935  0.60348015  1  0.043503  0  0.099807  0.104229  0  1.01611  0
H  H54  1  0.16521976  0.61340891  0.10348096  1  0.043491  0  0.099817  0.104251  0  1.016089  0
H  H55  1  0.66521963  0.88659156  0.39652005  1  0.043493  0  0.099819  0.104235  0  1.016098  0
H  H56  1  0.34042498  0.55146475  0.85706888  1  0.095004  0  0.102111  0.074002  0  1.021278  0
H  H57  1  0.84042539  0.94853500  0.64293132  1  0.095015  0  0.102118  0.074005  0  1.021292  0
H  H58  1  0.65957555  0.44853497  0.14293113  1  0.094983  0  0.102125  0.074026  0  1.021284  0
H  H59  1  0.15957421  0.05146531  0.35706879  1  0.095013  0  0.102134  0.074032  0  1.021267  0
H  H60  1  0.31189977  0.45155704  0.81000396  1  0.060251  0  0.105708  0.072069  0  0.979221  0
H  H61  1  0.81190096  0.04844315  0.68999638  1  0.060259  0  0.105697  0.072045  0  0.979268  0
H  H62  1  0.68810077  0.54844328  0.18999615  1  0.060244  0  0.105714  0.072075  0  0.979184  0
H  H63  1  0.18809957  0.95155717  0.31000316  1  0.060258  0  0.105708  0.072071  0  0.979247  0
H  H64  1  0.23273646  0.56266437  0.73990984  1  0.045272  0  0.119295  0.102167  0  0.96324  0
H  H65  1  0.73273751  0.93733610  0.76009058  1  0.045303  0  0.119311  0.102191  0  0.963208  0
H  H66  1  0.76726408  0.43733595  0.26009027  1  0.045281  0  0.119297  0.10218  0  0.963227  0
H  H67  1  0.26726209  0.06266362  0.23990888  1  0.045307  0  0.11931  0.102198  0  0.963212  0
H  H68  1  0.39137786  0.58619208  0.72497662  1  0.123324  0  0.124301  0.119218  0  0.953229  0
H  H69  1  0.89137986  0.91380821  0.77502418  1  0.123283  0  0.124293  0.119186  0  0.95325  0
H  H70  1  0.60862174  0.41380823  0.27502293  1  0.123295  0  0.124302  0.119227  0  0.953229  0
H  H71  1  0.10862161  0.08619210  0.22497593  1  0.123292  0  0.124296  0.119207  0  0.953238  0
H  H72  1  0.14153058  0.43251365  0.66584832  1  0.127219  0  0.125827  0.125911  0  0.995877  0
H  H73  1  0.64153135  0.06748732  0.83415231  1  0.127234  0  0.125822  0.125897  0  0.995849  0
H  H74  1  0.85846902  0.56748667  0.33415235  1  0.127226  0  0.125836  0.125925  0  0.995879  0
H  H75  1  0.35846919  0.93251240  0.16584770  1  0.127233  0  0.125832  0.125909  0  0.99587  0
H  H76  1  0.52441748  0.48035542  0.63418981  1  0.157313  0  0.133935  0.104556  0  1.030766  0
H  H77  1  0.02441806  0.01964508  0.86580974  1  0.157308  0  0.133921  0.104506  0  1.030756  0
H  H78  1  0.47558213  0.51964549  0.36580983  1  0.157314  0  0.133933  0.104551  0  1.030761  0
H  H79  1  0.97558155  0.98035405  0.13418962  1  0.157303  0  0.133925  0.104534  0  1.03073  0
H  H80  1  0.23269962  0.32672710  0.54292899  1  0.141356  0  0.114736  0.111893  0  1.028997  0
H  H81  1  0.73269982  0.17327318  0.95707089  1  0.141337  0  0.114742  0.111889  0  1.028991  0
H  H82  1  0.76729905  0.67327322  0.45707112  1  0.141403  0  0.114748  0.111895  0  1.028991  0
H  H83  1  0.26730072  0.82672654  0.04292857  1  0.141331  0  0.114735  0.111886  0  1.029003  0
H  H84  1  0.87025558  0.49553902  0.61457293  1  0.082674  0  0.102471  0.103875  0  1.020995  0
H  H85  1  0.37025614  0.00446288  0.88542707  1  0.082687  0  0.102444  0.103842  0  1.020998  0
H  H86  1  0.12974495  0.50446070  0.38542652  1  0.082662  0  0.102454  0.103864  0  1.02098  0
H  H87  1  0.62974439  0.99553684  0.11457239  1  0.082688  0  0.102478  0.103913  0  1.020955  0
H  H88  1  0.93159977  0.42325495  0.37592412  1  0.076198  0  0.099173  0.095597  0  1.021899  0
H  H89  1  0.43159899  0.07674384  0.12407586  1  0.076217  0  0.099178  0.095597  0  1.021921  0
H  H90  1  0.06840077  0.57674477  0.62407533  1  0.076209  0  0.099172  0.095594  0  1.021938  0
H  H91  1  0.56840061  0.92325648  0.87592368  1  0.076223  0  0.09917  0.095577  0  1.021944  0
H  H92  1  0.43997452  0.03131341  0.37352405  1  0.054009  0  0.095526  0.095325  0  1.016467  0
H  H93  1  0.93997399  0.46868894  0.12647873  1  0.05396  0  0.095533  0.095375  0  1.01634  0
H  H94  1  0.56002602  0.96868750  0.62647728  1  0.053999  0  0.095547  0.09537  0  1.016421  0
H  H95  1  0.06002655  0.53131078  0.87352297  1  0.054027  0  0.095541  0.095358  0  1.016404  0
H  H96  1  0.61604078  0.10153958  0.59001592  1  0.062782  0  0.10279  0.107928  0  1.000474  0
H  H97  1  0.11603944  0.39845963  0.90998614  1  0.062813  0  0.102798  0.107902  0  1.000501  0
H  H98  1  0.38395975  0.89846133  0.40998428  1  0.062328  0  0.102796  0.107923  0  1.000464  0
H  H99  1  0.88395922  0.60154009  0.09001612  1  0.06231  0  0.102786  0.107891  0  1.000495  0
C  C100  1  0.40511638  0.27906786  0.32180430  1  0.940863  0  0.136474  0.079651  0  3.929625  0
C  C101  1  0.90511347  0.22093036  0.17819618  1  0.94104  0  0.136453  0.079575  0  3.929789  0
C  C102  1  0.59488509  0.72093186  0.67819571  1  0.940906  0  0.136479  0.079611  0  3.92964  0
C  C103  1  0.09488707  0.77906995  0.82180449  1  0.940948  0  0.136501  0.079663  0  3.929761  0
C  C104  1  0.33279835  0.39349968  0.37809260  1  0.374185  0  -0.006951  -0.045459  0  4.036397  0
C  C105  1  0.83279679  0.10649802  0.12190899  1  0.374113  0  -0.006977  -0.04565  0  4.036502  0
C  C106  1  0.66720218  0.60650004  0.62190685  1  0.374399  0  -0.006964  -0.045462  0  4.036433  0
C  C107  1  0.16720374  0.89350170  0.87809102  1  0.37412  0  -0.007003  -0.045699  0  4.03648  0
C  C108  1  0.27058860  0.37491824  0.31002629  1  0.302108  0  0.002803  -0.106651  0  3.915087  0
C  C109  1  0.77058682  0.12508013  0.18997603  1  0.302052  0  0.002793  -0.106645  0  3.914958  0
C  C110  1  0.72941193  0.62508089  0.68997363  1  0.302055  0  0.002806  -0.106644  0  3.915031  0
C  C111  1  0.22941372  0.87491959  0.81002399  1  0.302044  0  0.002819  -0.1066  0  3.91491  0
C  C112  1  0.28213002  0.26069811  0.20033556  1  0.320229  0  -0.0537  -0.101252  0  3.90189  0
C  C113  1  0.78212955  0.23930143  0.29966525  1  0.320187  0  -0.053698  -0.101274  0  3.901926  0
C  C114  1  0.71786958  0.73930042  0.79966427  1  0.320254  0  -0.05368  -0.101173  0  3.901864  0
C  C115  1  0.21787099  0.76069888  0.70033542  1  0.320194  0  -0.053682  -0.101195  0  3.90184  0
C  C116  1  0.33394234  0.30055996  0.13728526  1  0.440271  0  -0.068755  0.008179  0  3.902922  0
C  C117  1  0.83394086  0.19944012  0.36271558  1  0.440267  0  -0.068745  0.008256  0  3.90282  0
C  C118  1  0.66605820  0.69943857  0.86271457  1  0.440185  0  -0.068762  0.008229  0  3.902841  0
C  C119  1  0.16605968  0.80056079  0.63728462  1  0.440259  0  -0.068706  0.00828  0  3.902891  0
C  C120  1  0.52645233  0.31724436  0.07619987  1  0.3713  0  0.077097  0.262961  0  4.089875  0
C  C121  1  0.02645145  0.18275428  0.42379992  1  0.371165  0  0.077113  0.262992  0  4.089912  0
C  C122  1  0.47354727  0.68275536  0.92379958  1  0.371288  0  0.077076  0.262909  0  4.089914  0
C  C123  1  0.97354815  0.81724604  0.57620075  1  0.37118  0  0.077101  0.262985  0  4.089977  0
C  C124  1  0.65671132  0.30164336  0.07008347  1  -0.018506  0  -0.116232  -0.220595  0  4.027178  0
C  C125  1  0.15671039  0.19835394  0.42991543  1  -0.018518  0  -0.11628  -0.220678  0  4.02714  0
C  C126  1  0.34328922  0.69835576  0.92991645  1  -0.018414  0  -0.116228  -0.220572  0  4.027058  0
C  C127  1  0.84329015  0.80164637  0.57008468  1  -0.018518  0  -0.116268  -0.220647  0  4.027183  0
C  C128  1  0.72476888  0.32795117  0.01346896  1  -0.062915  0  -0.092654  -0.115015  0  4.025883  0
C  C129  1  0.22476878  0.17204785  0.48653069  1  -0.063005  0  -0.09267  -0.114946  0  4.02586  0
C  C130  1  0.27523073  0.67204855  0.98653105  1  -0.063009  0  -0.092661  -0.115018  0  4.025864  0
C  C131  1  0.77523082  0.82795187  0.51346932  1  -0.062984  0  -0.09267  -0.114983  0  4.025865  0
C  C132  1  0.66722069  0.37012909  0.96037169  1  -0.056078  0  -0.023422  0.034557  0  4.024647  0
C  C133  1  0.16722002  0.12986947  0.53962742  1  -0.056101  0  -0.023474  0.034446  0  4.024739  0
C  C134  1  0.33277985  0.62987123  0.03962842  1  -0.056085  0  -0.023455  0.034524  0  4.024657  0
C  C135  1  0.83277959  0.87012966  0.46037138  1  -0.056075  0  -0.023414  0.034573  0  4.024642  0
C  C136  1  0.53576582  0.38532409  0.96679412  1  -0.025899  0  -0.005792  0.132996  0  4.035147  0
C  C137  1  0.03576520  0.11467521  0.53320523  1  -0.025831  0  -0.005729  0.133046  0  4.035108  0
C  C138  1  0.46423378  0.61467682  0.03320608  1  -0.025898  0  -0.005812  0.132969  0  4.035206  0
C  C139  1  0.96423440  0.88532392  0.46679413  1  -0.025905  0  -0.005802  0.133009  0  4.035165  0
C  C140  1  0.46709391  0.35842688  0.02564671  1  0.00208  0  -0.119079  -0.293133  0  3.973626  0
C  C141  1  0.96709226  0.14157187  0.47435267  1  0.002089  0  -0.11909  -0.293178  0  3.973595  0
C  C142  1  0.53290663  0.64157343  0.97435340  1  0.002074  0  -0.119038  -0.293087  0  3.973697  0
C  C143  1  0.03290734  0.85842785  0.52564622  1  0.002125  0  -0.119098  -0.293215  0  3.973726  0
C  C144  1  0.47613459  0.42731145  0.91440357  1  0.003016  0  -0.119107  -0.29042  0  3.980504  0
C  C145  1  0.97613507  0.07268737  0.58559696  1  0.002974  0  -0.119135  -0.290425  0  3.980529  0
C  C146  1  0.52386595  0.57268887  0.08559653  1  0.003046  0  -0.119105  -0.290406  0  3.980493  0
C  C147  1  0.02386453  0.92731116  0.41440231  1  0.003046  0  -0.1191  -0.2904  0  3.980505  0
C  C148  1  0.54464714  0.45218394  0.85690404  1  0.425297  0  0.076824  0.257912  0  4.094133  0
C  C149  1  0.04464825  0.04781535  0.64309587  1  0.425266  0  0.076817  0.257895  0  4.094136  0
C  C150  1  0.45535246  0.54781578  0.14309598  1  0.42529  0  0.076823  0.257921  0  4.094114  0
C  C151  1  0.95535229  0.95218437  0.35690415  1  0.425279  0  0.076808  0.257912  0  4.094088  0
C  C152  1  0.67508738  0.43758961  0.85024485  1  -0.034215  0  -0.109067  -0.203022  0  4.020317  0
C  C153  1  0.17508750  0.06240954  0.64975490  1  -0.034217  0  -0.109048  -0.203003  0  4.020272  0
C  C154  1  0.32491316  0.56241011  0.14975516  1  -0.034239  0  -0.109063  -0.20301  0  4.020319  0
C  C155  1  0.82491210  0.93759018  0.35024455  1  -0.034236  0  -0.109055  -0.203029  0  4.020275  0
C  C156  1  0.73448317  0.39761320  0.90111352  1  0.054222  0  -0.090473  -0.103782  0  4.008705  0
C  C157  1  0.23448334  0.10238648  0.59888514  1  0.05421  0  -0.090441  -0.103707  0  4.008673  0
C  C158  1  0.26551643  0.60238712  0.09888659  1  0.054253  0  -0.090449  -0.103764  0  4.008679  0
C  C159  1  0.76551626  0.89761324  0.40111431  1  0.054233  0  -0.090449  -0.103722  0  4.00866  0
C  C160  1  0.36332053  0.50706949  0.80668909  1  0.398872  0  -0.064385  0.00183  0  3.909335  0
C  C161  1  0.86332163  0.99293024  0.69331053  1  0.398891  0  -0.06437  0.001867  0  3.909344  0
C  C162  1  0.63668001  0.49293023  0.19331037  1  0.39888  0  -0.064398  0.001819  0  3.909303  0
C  C163  1  0.13667797  0.00707008  0.30668902  1  0.398882  0  -0.064387  0.001819  0  3.909372  0
C  C164  1  0.32781053  0.53821940  0.73454603  1  0.299852  0  -0.043835  -0.091362  0  3.892276  0
C  C165  1  0.82781245  0.96178097  0.76545485  1  0.299875  0  -0.043804  -0.091296  0  3.892274  0
C  C166  1  0.67218907  0.46178091  0.26545408  1  0.299883  0  -0.043855  -0.09142  0  3.892261  0
C  C167  1  0.17218809  0.03821875  0.23454517  1  0.299873  0  -0.043842  -0.091375  0  3.892256  0
C  C168  1  0.23394010  0.42584924  0.64090559  1  0.220911  0  -0.000615  -0.112116  0  3.943711  0
C  C169  1  0.73394078  0.07415163  0.85909494  1  0.220922  0  -0.00061  -0.11209  0  3.943677  0
C  C170  1  0.76606044  0.57415108  0.35909508  1  0.220903  0  -0.000594  -0.112139  0  3.943765  0
C  C171  1  0.26605976  0.92584809  0.14090564  1  0.220913  0  -0.000563  -0.112012  0  3.943583  0
C  C172  1  0.43332351  0.45278092  0.62463709  1  0.971152  0  0.144268  0.103905  0  3.900048  0
C  C173  1  0.93332421  0.04721973  0.87536321  1  0.971243  0  0.144342  0.104129  0  3.899986  0
C  C174  1  0.56667609  0.54721940  0.37536302  1  0.971362  0  0.144286  0.103935  0  3.900023  0
C  C175  1  0.06667539  0.95277940  0.12463671  1  0.971164  0  0.144327  0.104037  0  3.899973  0
C  C176  1  0.28040191  0.37410166  0.58016011  1  0.448308  0  -0.003406  -0.024342  0  4.003958  0
C  C177  1  0.78040231  0.12589916  0.91984036  1  0.448228  0  -0.003394  -0.024279  0  4.003883  0
C  C178  1  0.71959770  0.62589866  0.41983999  1  0.448189  0  -0.003387  -0.024257  0  4.003882  0
C  C179  1  0.21959823  0.87410056  0.08015965  1  0.448288  0  -0.003414  -0.024359  0  4.003877  0
C  C180  1  0.76688542  0.41236618  0.48910484  1  1.554519  0  0.187907  0.550639  0  4.227869  0
C  C181  1  0.26688492  0.08763398  0.01089608  1  1.554111  0  0.187866  0.550563  0  4.227985  0
C  C182  1  0.23311512  0.58763354  0.51089461  1  1.554535  0  0.187866  0.550624  0  4.227759  0
C  C183  1  0.73311468  0.91236574  0.98910393  1  1.554118  0  0.187826  0.550608  0  4.227899  0
C  C184  1  0.88879000  0.45592838  0.49469356  1  -0.064492  0  -0.013421  -0.014922  0  3.961686  0
C  C185  1  0.38879055  0.04407224  0.00530675  1  -0.064486  0  -0.013411  -0.014919  0  3.961662  0
C  C186  1  0.11120960  0.54407134  0.50530589  1  -0.064163  0  -0.013426  -0.014961  0  3.961725  0
C  C187  1  0.61120905  0.95592748  0.99469326  1  -0.064492  0  -0.013397  -0.014901  0  3.961674  0
C  C188  1  0.92787913  0.49853739  0.56480517  1  -0.055923  0  -0.087655  -0.106269  0  3.991165  0
C  C189  1  0.42787957  0.00146386  0.93519523  1  -0.055931  0  -0.087619  -0.106215  0  3.99112  0
C  C190  1  0.07212047  0.50146233  0.43519428  1  -0.056244  0  -0.087617  -0.106204  0  3.991139  0
C  C191  1  0.57212097  0.99853645  0.06480488  1  -0.055936  0  -0.087672  -0.106345  0  3.991116  0
C  C192  1  0.96243552  0.45723520  0.42994620  1  0.014554  0  -0.085516  -0.098489  0  4.003775  0
C  C193  1  0.46243683  0.04276474  0.07005393  1  0.014557  0  -0.085485  -0.098405  0  4.003731  0
C  C194  1  0.03756409  0.54276511  0.57005334  1  0.014513  0  -0.085504  -0.098451  0  4.003796  0
C  C195  1  0.53756370  0.95723557  0.92994618  1  0.014511  0  -0.085495  -0.098432  0  4.00382  0
C  C196  1  0.55777930  0.15357874  0.45780594  1  1.536244  0  0.192166  0.555531  0  4.263169  0
C  C197  1  0.05777532  0.34642106  0.04219513  1  1.535768  0  0.19217  0.555568  0  4.263176  0
C  C198  1  0.44222217  0.84642217  0.54219370  1  1.536237  0  0.192148  0.55549  0  4.263126  0
C  C199  1  0.94222334  0.65357687  0.95780517  1  1.536218  0  0.192189  0.555583  0  4.263176  0
C  C200  1  0.53193068  0.07339849  0.47928680  1  -0.067513  0  -0.017488  -0.025211  0  3.967258  0
C  C201  1  0.03192658  0.42660134  0.02071542  1  -0.067408  0  -0.017437  -0.025359  0  3.967274  0
C  C202  1  0.46807079  0.92660242  0.52071397  1  -0.067551  0  -0.017472  -0.025224  0  3.967222  0
C  C203  1  0.96806928  0.57339719  0.97928553  1  -0.067419  0  -0.017487  -0.025313  0  3.967309  0
C  C204  1  0.46583062  0.01652547  0.42871965  1  0.056129  0  -0.087697  -0.101785  0  3.995985  0
C  C205  1  0.96582927  0.48347566  0.07128123  1  0.056141  0  -0.087712  -0.101831  0  3.995891  0
C  C206  1  0.53416899  0.98347604  0.57128064  1  0.056249  0  -0.087732  -0.101857  0  3.996012  0
C  C207  1  0.03416753  0.51652287  0.92871972  1  0.056005  0  -0.087693  -0.101829  0  3.996041  0
C  C208  1  0.56598692  0.05634087  0.55088653  1  -0.059863  0  -0.086649  -0.102698  0  3.984265  0
C  C209  1  0.06598444  0.44365899  0.94911457  1  -0.059724  0  -0.08676  -0.10267  0  3.984196  0
C  C210  1  0.43401362  0.94366004  0.44911368  1  -0.059259  0  -0.086732  -0.102755  0  3.984168  0
C  C211  1  0.93401142  0.55634013  0.05088704  1  -0.059386  0  -0.086664  -0.102579  0  3.984154  0
N  N212  1  0.41650042  0.33328124  0.38460863  1  -1.218844  0  -0.364824  -0.303881  0  3.56679  0
N  N213  1  0.91649780  0.16671697  0.11539240  1  -1.218846  0  -0.364747  -0.303715  0  3.566854  0
N  N214  1  0.58350012  0.66671908  0.61539148  1  -1.218875  0  -0.364815  -0.303859  0  3.566789  0
N  N215  1  0.08350180  0.83328334  0.88460771  1  -1.218753  0  -0.364764  -0.303757  0  3.566878  0
N  N216  1  0.31717559  0.30234458  0.27544040  1  -1.243467  0  -0.242548  0.049675  0  3.79178  0
N  N217  1  0.81717355  0.19765434  0.22456083  1  -1.243496  0  -0.242525  0.049803  0  3.791619  0
N  N218  1  0.68282495  0.69765514  0.72455961  1  -1.243471  0  -0.242577  0.04966  0  3.791716  0
N  N219  1  0.18282605  0.80234538  0.77543974  1  -1.243508  0  -0.242581  0.049688  0  3.791599  0
N  N220  1  0.33151885  0.47574239  0.66802454  1  -1.224562  0  -0.242622  0.045109  0  3.785035  0
N  N221  1  0.83152065  0.02425837  0.83197531  1  -1.224542  0  -0.242703  0.044916  0  3.785284  0
N  N222  1  0.66848169  0.52425793  0.33197556  1  -1.224541  0  -0.242617  0.045144  0  3.785011  0
N  N223  1  0.16847989  0.97574075  0.16802461  1  -1.224524  0  -0.242677  0.045002  0  3.78512  0
N  N224  1  0.40501969  0.39150607  0.57069510  1  -1.198247  0  -0.359524  -0.299656  0  3.522058  0
N  N225  1  0.90502010  0.10849461  0.92930467  1  -1.198314  0  -0.359541  -0.299753  0  3.521981  0
N  N226  1  0.59497992  0.60849425  0.42930445  1  -1.198417  0  -0.359573  -0.299759  0  3.522  0
N  N227  1  0.09498043  0.89150511  0.07069478  1  -1.198283  0  -0.35955  -0.299718  0  3.521981  0
O  O228  1  0.46678647  0.28933220  0.13459025  1  -1.09898  0  -0.192979  -0.216111  0  2.518926  0
O  O229  1  0.96678588  0.21066655  0.36540970  1  -1.098939  0  -0.192956  -0.216105  0  2.518899  0
O  O230  1  0.53321407  0.71066692  0.86540967  1  -1.098904  0  -0.192962  -0.216111  0  2.518923  0
O  O231  1  0.03321465  0.78933436  0.63459107  1  -1.098931  0  -0.192966  -0.216117  0  2.518928  0
O  O232  1  0.49481556  0.49214005  0.80302943  1  -1.076832  0  -0.185198  -0.210798  0  2.544632  0
O  O233  1  0.99481776  0.00785934  0.69697061  1  -1.076866  0  -0.185233  -0.21083  0  2.544612  0
O  O234  1  0.50518404  0.50785967  0.19697002  1  -1.076827  0  -0.185223  -0.210836  0  2.54465  0
O  O235  1  0.00518278  0.99214098  0.30302949  1  -1.076871  0  -0.185239  -0.210854  0  2.544601  0
O  O236  1  0.73207527  0.37406496  0.42485335  1  -1.178956  0  -0.330839  -0.563007  0  2.205224  0
O  O237  1  0.23207451  0.12593464  0.07514864  1  -1.178668  0  -0.330866  -0.563026  0  2.205245  0
O  O238  1  0.26792527  0.62593535  0.57514620  1  -1.178998  0  -0.330828  -0.563013  0  2.205228  0
O  O239  1  0.76792603  0.87406508  0.92485081  1  -1.178677  0  -0.330811  -0.563014  0  2.205175  0
O  O240  1  0.70021896  0.41595455  0.54912543  1  -1.167018  0  -0.336547  -0.555769  0  2.174485  0
O  O241  1  0.20021917  0.08404635  0.95087626  1  -1.166969  0  -0.336509  -0.555716  0  2.174542  0
O  O242  1  0.29978158  0.58404576  0.45087412  1  -1.167049  0  -0.336523  -0.555762  0  2.174355  0
O  O243  1  0.79978137  0.91595277  0.04912310  1  -1.166982  0  -0.336506  -0.555739  0  2.174498  0
O  O244  1  0.57670110  0.21032091  0.51456566  1  -1.149156  0  -0.350249  -0.563203  0  2.225948  0
O  O245  1  0.07669700  0.28967894  0.98543486  1  -1.149115  0  -0.350272  -0.563204  0  2.225982  0
O  O246  1  0.42330131  0.78968000  0.48543398  1  -1.149145  0  -0.350223  -0.563161  0  2.225943  0
O  O247  1  0.92330353  0.71032078  0.01456403  1  -1.149071  0  -0.35028  -0.563225  0  2.22603  0
O  O248  1  0.55520451  0.16193109  0.38901659  1  -1.190447  0  -0.34057  -0.587741  0  2.163715  0
O  O249  1  0.05520317  0.33806871  0.11098448  1  -1.190032  0  -0.340559  -0.587707  0  2.163624  0
O  O250  1  0.44479603  0.83806982  0.61098361  1  -1.19045  0  -0.340554  -0.587696  0  2.163597  0
O  O251  1  0.94479830  0.66192863  0.88901516  1  -1.190481  0  -0.340566  -0.587742  0  2.163676  0
