# generated using pymatgen
data_Zn4H53C89N25O18
_symmetry_space_group_name_H-M   'P 1'
_cell_length_a   18.73625893
_cell_length_b   18.91593915
_cell_length_c   20.46581399
_cell_angle_alpha   105.76635560
_cell_angle_beta   107.35545927
_cell_angle_gamma   111.77875671
_symmetry_Int_Tables_number   1
_chemical_formula_structural   Zn4H53C89N25O18
_chemical_formula_sum   'Zn4 H53 C89 N25 O18'
_cell_volume   5799.90928362
_cell_formula_units_Z   1
loop_
 _symmetry_equiv_pos_site_id
 _symmetry_equiv_pos_as_xyz
  1  'x, y, z'
loop_
 _atom_site_type_symbol
 _atom_site_label
 _atom_site_symmetry_multiplicity
 _atom_site_fract_x
 _atom_site_fract_y
 _atom_site_fract_z
 _atom_site_occupancy
 _atom_site_pbe_bader_charge
 _atom_site_pbe_bader_spin_density
 _atom_site_pbe_cm5_charge
 _atom_site_pbe_ddec_charge
 _atom_site_pbe_ddec_spin_density
 _atom_site_pbe_ddec_sum_bond_order
 _atom_site_pbe_magmom
Zn  Zn0  1  0.89422074  0.89096000  0.50250504  1  1.196594  0  0.746523  0.602759  0  2.475625  0
Zn  Zn1  1  0.10774845  0.10100194  0.49831652  1  1.19527  0  0.739636  0.607956  0  2.449978  0
Zn  Zn2  1  0.10708905  0.99979587  0.61043510  1  1.219033  0  0.744767  0.622678  0  2.491282  0
Zn  Zn3  1  0.89849946  0.00732764  0.39227417  1  1.239842  0  0.722921  0.625471  0  2.521485  0
H  H4  1  0.83790324  0.80624998  0.61498088  1  0.07168  0  0.119616  0.109934  0  0.992646  0
H  H5  1  0.85564337  0.13713465  0.48594437  1  0.105655  0  0.120741  0.11035  0  0.995908  0
H  H6  1  0.07589938  0.25006715  0.59692649  1  0.100317  0  0.127437  0.122584  0  0.984383  0
H  H7  1  0.86713995  0.00395738  0.62776174  1  0.109867  0  0.123599  0.114693  0  0.992021  0
H  H8  1  0.89747882  0.16510792  0.34618461  1  0.096965  0  0.11983  0.111741  0  0.995621  0
H  H9  1  0.11339994  0.91203924  0.72896368  1  0.099793  0  0.123073  0.117118  0  0.984862  0
H  H10  1  0.67891564  0.71696341  0.38201102  1  0.098323  0  0.126997  0.120385  0  0.982522  0
H  H11  1  0.30952470  0.17977934  0.53226780  1  0.087021  0  0.115855  0.101703  0  1.010706  0
H  H12  1  0.16526462  0.90379259  0.50944864  1  0.082855  0  0.115714  0.102766  0  1.023531  0
H  H13  1  0.87510139  0.85638680  0.25278577  1  0.108637  0  0.120616  0.113728  0  0.993995  0
H  H14  1  0.15242151  0.98448864  0.38062672  1  0.105587  0  0.119656  0.107481  0  0.993922  0
H  H15  1  0.89249166  0.72639139  0.39628626  1  0.086227  0  0.119143  0.106655  0  0.996208  0
H  H16  1  0.31480516  0.04923689  0.67642358  1  0.082874  0  0.128207  0.121993  0  0.977689  0
H  H17  1  0.45750957  0.22144292  0.56519640  1  0.045048  0  0.105776  0.1097  0  0.996532  0
H  H18  1  0.44491064  0.07477828  0.69402981  1  0.11289  0  0.108276  0.114058  0  1.039756  0
H  H19  1  0.79542740  0.06302573  0.68226415  1  0.091457  0  0.112689  0.120428  0  1.00092  0
H  H20  1  0.80191655  0.20282750  0.54806840  1  0.092915  0  0.107151  0.116372  0  1.032563  0
H  H21  1  0.58338388  0.27795737  0.54109477  1  0.121134  0  0.119885  0.132619  0  0.986248  0
H  H22  1  0.92893396  0.63440354  0.32305938  1  0.080682  0  0.10219  0.111405  0  1.013091  0
H  H23  1  0.26832152  0.56607513  0.51861797  1  0.106854  0  0.115091  0.12844  0  0.987315  0
H  H24  1  0.18133547  0.41427956  0.48459913  1  0.054583  0  0.097337  0.099324  0  1.04529  0
H  H25  1  0.92072093  0.27156873  0.30673644  1  0.060866  0  0.103113  0.106561  0  1.002472  0
H  H26  1  0.85421612  0.34452361  0.24847497  1  0.060946  0  0.104212  0.107537  0  0.992054  0
H  H27  1  0.85735220  0.47805778  0.25475245  1  0.072922  0  0.106147  0.1098  0  0.984056  0
H  H28  1  0.53546773  0.79880785  0.21238448  1  0.086309  0  0.103073  0.107515  0  1.00781  0
H  H29  1  0.33999183  0.58991839  0.98424057  1  0.05759  0  0.10406  0.103382  0  0.998602  0
H  H30  1  0.43696776  0.49570777  0.14920616  1  0.067704  0  0.105839  0.106156  0  0.989141  0
H  H31  1  0.15282957  0.38436017  0.94376960  1  0.134846  0  0.118302  0.132869  0  0.994643  0
H  H32  1  0.58089819  0.60363783  0.25257493  1  0.057563  0  0.103401  0.101907  0  0.99923  0
H  H33  1  0.30066642  0.45624482  0.04615364  1  0.039998  0  0.107297  0.109768  0  0.984511  0
H  H34  1  0.39314155  0.69110615  0.10777073  1  0.042923  0  0.104669  0.104266  0  0.99294  0
H  H35  1  0.30925406  0.51614059  0.85319142  1  0.072305  0  0.107701  0.111619  0  0.991228  0
H  H36  1  0.05282181  0.75797831  0.73794362  1  0.045567  0  0.097547  0.100354  0  1.011547  0
H  H37  1  0.13781633  0.96376159  0.24948943  1  0.067563  0  0.106427  0.112598  0  0.999179  0
H  H38  1  0.99983742  0.85823418  0.98559620  1  0.076316  0  0.106607  0.105874  0  0.997795  0
H  H39  1  0.87090152  0.78671478  0.86482367  1  0.070744  0  0.103916  0.108497  0  0.99324  0
H  H40  1  0.87045389  0.83595319  0.76405320  1  0.051491  0  0.101585  0.105546  0  0.995617  0
H  H41  1  0.97330727  0.67844053  0.93299418  1  0.063098  0  0.106223  0.110422  0  0.983779  0
H  H42  1  0.22679461  0.31890558  0.45683474  1  0.052415  0  0.102315  0.145462  0  0.977921  0
H  H43  1  0.22142486  0.34758047  0.54463989  1  0.036164  0  0.095855  0.133392  0  0.999226  0
H  H44  1  0.22707503  0.25494877  0.50642157  1  0.012569  0  0.089762  0.118792  0  1.025076  0
H  H45  1  0.22697116  0.77235744  0.58384806  1  0.019367  0  0.094388  0.130903  0  1.001964  0
H  H46  1  0.24142374  0.83958560  0.53794089  1  0.047448  0  0.094641  0.137629  0  0.993177  0
H  H47  1  0.16065208  0.81860272  0.57000291  1  0.039672  0  0.088477  0.121964  0  1.023533  0
H  H48  1  0.24992792  0.33916843  0.69163745  1  0.037506  0  0.092839  0.129675  0  1.007779  0
H  H49  1  0.19270998  0.39221359  0.66873576  1  0.038001  0  0.095476  0.131188  0  0.99364  0
H  H50  1  0.30130706  0.45119738  0.73875935  1  0.02243  0  0.098139  0.13588  0  0.990091  0
H  H51  1  0.10442672  0.69559956  0.81020193  1  0.029789  0  0.092784  0.127861  0  0.99636  0
H  H52  1  0.11616590  0.73396330  0.90448218  1  0.036982  0  0.090502  0.123017  0  1.001124  0
H  H53  1  0.03068528  0.63258114  0.83585999  1  0.039356  0  0.094762  0.130253  0  0.987367  0
H  H54  1  0.16801701  0.89950914  0.08209278  1  0.056405  0  0.09964  0.139159  0  0.985511  0
H  H55  1  0.12854201  0.97108167  0.08712541  1  0.044651  0  0.10313  0.142059  0  0.978321  0
H  H56  1  0.20635060  0.98409379  0.17143889  1  0.033764  0  0.097186  0.133048  0  0.990115  0
C  C57  1  0.90702596  0.83876687  0.63467807  1  0.398765  0  0.004605  -0.062526  0  4.001435  0
C  C58  1  0.10388784  0.24167809  0.44966239  1  0.436178  0  0.084983  0.198856  0  3.992864  0
C  C59  1  0.11960257  0.15917200  0.70604954  1  0.791754  0  0.185542  0.094661  0  3.951611  0
C  C60  1  0.86286810  0.09743673  0.51412900  1  0.40607  0  0.013936  -0.045346  0  3.96577  0
C  C61  1  0.08844322  0.21311565  0.62645553  1  0.4136  0  0.021325  -0.041067  0  3.90407  0
C  C62  1  0.86819420  0.02910240  0.58605321  1  0.416483  0  0.017296  -0.028301  0  3.925755  0
C  C63  1  0.96290120  0.18165496  0.38088633  1  0.391306  0  0.008502  -0.046103  0  4.007708  0
C  C64  1  0.04740375  0.89086136  0.69134955  1  0.430798  0  0.011272  -0.044252  0  3.968096  0
C  C65  1  0.97137276  0.84002717  0.69249687  1  0.018383  0  -0.034474  -0.034764  0  4.088816  0
C  C66  1  0.04025290  0.25650865  0.40776219  1  0.015049  0  -0.041359  -0.115154  0  4.058955  0
C  C67  1  0.11568219  0.23202120  0.70384121  1  0.095569  0  -0.007297  -0.027401  0  4.005172  0
C  C68  1  0.84627564  0.09013356  0.57542945  1  0.029836  0  -0.03354  -0.037193  0  4.046439  0
C  C69  1  0.70199362  0.76491469  0.36247071  1  0.409714  0  0.015301  -0.062651  0  3.941959  0
C  C70  1  0.29724566  0.14426187  0.56513572  1  0.376278  0  0.005088  -0.061941  0  3.998706  0
C  C71  1  0.09598745  0.87042333  0.48706656  1  0.398527  0  0.004736  -0.050681  0  3.981788  0
C  C72  1  0.94203992  0.89522330  0.29458567  1  0.416484  0  0.013299  -0.03485  0  3.941087  0
C  C73  1  0.08391192  0.96223973  0.35897254  1  0.421473  0  0.01345  -0.040969  0  3.954378  0
C  C74  1  0.95674059  0.78065107  0.42861261  1  0.419396  0  0.015512  -0.034126  0  3.935486  0
C  C75  1  0.72080655  0.84801474  0.30527058  1  0.789999  0  0.182324  0.079386  0  3.977589  0
C  C76  1  0.29989030  0.07749663  0.63832329  1  0.466996  0  0.018319  -0.040355  0  3.964758  0
C  C77  1  0.65753832  0.77088076  0.29742068  1  0.035446  0  -0.006096  -0.03719  0  4.008355  0
C  C78  1  0.35227427  0.12605860  0.61266513  1  -0.016425  0  -0.038268  -0.048523  0  4.094675  0
C  C79  1  0.03663479  0.78397089  0.44236610  1  0.028733  0  -0.031117  -0.02281  0  4.032638  0
C  C80  1  0.01565292  0.89686781  0.28909303  1  0.026824  0  -0.034468  -0.03923  0  4.067196  0
C  C81  1  0.48491259  0.19211530  0.59651428  1  0.026573  0  -0.079669  -0.16842  0  3.910383  0
C  C82  1  0.43993600  0.14503016  0.62723934  1  0.024272  0  -0.003384  0.100805  0  4.072417  0
C  C83  1  0.47890690  0.11089311  0.66948901  1  -0.001058  0  -0.080189  -0.160293  0  3.898544  0
C  C84  1  0.55790613  0.11704787  0.67680398  1  0.027658  0  0.001803  0.047569  0  4.021129  0
C  C85  1  0.60080678  0.15966208  0.64046265  1  0.000942  0  0.00814  0.005951  0  3.923406  0
C  C86  1  0.56407997  0.19968151  0.60221310  1  0.019131  0  -0.003919  0.088622  0  4.057707  0
C  C87  1  0.59897760  0.08107405  0.71768324  1  0.238357  0  0.089349  -0.015487  0  3.889488  0
C  C88  1  0.67183063  0.08168350  0.71645858  1  0.263991  0  0.096646  0.003799  0  3.90496  0
C  C89  1  0.70943607  0.11444785  0.67239907  1  -0.013924  0  -0.000621  0.037618  0  4.029707  0
C  C90  1  0.67509816  0.15836484  0.63780518  1  0.012697  0  0.008866  0.015332  0  3.920614  0
C  C91  1  0.71420871  0.19580196  0.59655447  1  -0.006236  0  -0.000535  0.037269  0  4.011899  0
C  C92  1  0.67994227  0.24291936  0.56593742  1  0.186521  0  0.078116  0.023909  0  3.910323  0
C  C93  1  0.60783299  0.24371540  0.56762587  1  0.014571  0  -0.067099  -0.153082  0  3.944553  0
C  C94  1  0.77183274  0.09891989  0.65764447  1  0.032522  0  -0.075961  -0.152928  0  3.887855  0
C  C95  1  0.80024326  0.12458494  0.60770390  1  0.022835  0  0.00564  0.117715  0  4.03492  0
C  C96  1  0.77536385  0.17757088  0.58226499  1  0.019075  0  -0.08143  -0.163055  0  3.905256  0
C  C97  1  0.98501776  0.63536531  0.36053282  1  0.02476  0  -0.084584  -0.170584  0  3.93261  0
C  C98  1  0.05139327  0.71175058  0.42270843  1  -0.040177  0  -0.004926  0.036101  0  3.997217  0
C  C99  1  0.12682376  0.71478074  0.46963086  1  0.009882  0  -0.002285  0.090797  0  3.882382  0
C  C100  1  0.13438292  0.64104964  0.45057802  1  0.053576  0  -0.006565  -0.033039  0  3.980267  0
C  C101  1  0.06097715  0.56142370  0.39540693  1  -0.060445  0  0.003166  0.009749  0  3.942774  0
C  C102  1  0.98595801  0.55932190  0.34827884  1  0.000185  0  -0.011007  0.073582  0  4.062468  0
C  C103  1  0.21039645  0.63752734  0.48928973  1  0.150015  0  0.074888  0.029532  0  3.930641  0
C  C104  1  0.20879000  0.56400430  0.48702368  1  0.009256  0  -0.074472  -0.164859  0  3.955668  0
C  C105  1  0.13144885  0.48528822  0.44104375  1  0.003667  0  -0.011769  0.08285  0  4.084992  0
C  C106  1  0.05903921  0.48441254  0.39118407  1  -0.042867  0  0.002051  0.001421  0  3.916547  0
C  C107  1  0.98295181  0.40518932  0.34059904  1  0.03109  0  -0.006844  0.085707  0  4.047124  0
C  C108  1  0.91120910  0.40505036  0.28935479  1  -0.050426  0  -0.092975  -0.141937  0  4.01649  0
C  C109  1  0.91298619  0.47890135  0.29291704  1  -0.013526  0  -0.085702  -0.122231  0  4.001488  0
C  C110  1  0.12555560  0.41016684  0.44364630  1  -0.061555  0  -0.095535  -0.192407  0  3.940439  0
C  C111  1  0.04926678  0.33265906  0.39792139  1  0.033389  0  -0.01136  0.100716  0  4.082165  0
C  C112  1  0.97988536  0.33140157  0.34492203  1  -0.084608  0  -0.084694  -0.178426  0  3.90491  0
C  C113  1  0.57015820  0.70932460  0.23874790  1  0.050017  0  -0.009943  0.078899  0  4.048216  0
C  C114  1  0.51480576  0.73247336  0.19802093  1  -0.069165  0  -0.088092  -0.118195  0  3.994899  0
C  C115  1  0.43455922  0.67165618  0.13897005  1  -0.00036  0  -0.087004  -0.12317  0  3.969942  0
C  C116  1  0.40599292  0.58512081  0.11837898  1  -0.030594  0  -0.00805  0.11273  0  4.043507  0
C  C117  1  0.45827662  0.56234847  0.16339331  1  0.014758  0  -0.086212  -0.126287  0  3.977719  0
C  C118  1  0.53924773  0.62315713  0.22173607  1  -0.106865  0  -0.088463  -0.123778  0  3.98867  0
C  C119  1  0.17176301  0.38689842  0.89871248  1  0.057314  0  -0.077888  -0.17357  0  3.929318  0
C  C120  1  0.12568183  0.31647413  0.82931385  1  0.109506  0  0.07888  0.038178  0  3.938545  0
C  C121  1  0.21284627  0.38772676  0.77707297  1  0.041739  0  0.001197  0.146338  0  3.931126  0
C  C122  1  0.25671875  0.45935044  0.84626006  1  -0.094861  0  -0.080618  -0.181859  0  3.906221  0
C  C123  1  0.24172741  0.45901603  0.90946956  1  0.026027  0  -0.004179  0.135772  0  4.061861  0
C  C124  1  0.33021431  0.51932937  0.04834589  1  -0.04551  0  -0.081171  -0.120498  0  3.978434  0
C  C125  1  0.30406149  0.52895750  0.98375880  1  0.015004  0  -0.088664  -0.13579  0  3.984935  0
C  C126  1  0.14764401  0.31189349  0.76847288  1  0.069168  0  0.000647  -0.016812  0  3.937677  0
C  C127  1  0.96361885  0.80239272  0.74547176  1  -0.050036  0  -0.009592  0.093752  0  4.066325  0
C  C128  1  0.01288399  0.76432721  0.76613399  1  0.00553  0  -0.098864  -0.207047  0  3.960327  0
C  C129  1  0.01339091  0.73557385  0.82225877  1  -0.045963  0  -0.009174  0.127869  0  3.962389  0
C  C130  1  0.96426356  0.74741174  0.86055853  1  -0.011846  0  -0.017961  0.039372  0  3.997498  0
C  C131  1  0.91088199  0.78067625  0.83670001  1  -0.065867  0  -0.092708  -0.127246  0  4.019262  0
C  C132  1  0.90989820  0.80738869  0.77971918  1  0.023749  0  -0.09821  -0.145749  0  4.017419  0
C  C133  1  0.94343852  0.75801884  0.08515600  1  0.178194  0  0.087272  -0.00332  0  3.915766  0
C  C134  1  0.95133411  0.77891213  0.15897480  1  0.245963  0  0.078036  -0.034975  0  3.899278  0
C  C135  1  0.08425948  0.90377875  0.20356463  1  -0.028211  0  -0.084869  -0.188739  0  3.938996  0
C  C136  1  0.07920009  0.88196228  0.13112198  1  -0.002895  0  0.005483  0.152541  0  3.94123  0
C  C137  1  0.00457280  0.80978392  0.06880971  1  0.101283  0  -0.002896  0.016428  0  3.968836  0
C  C138  1  0.97530695  0.73620236  0.93066191  1  -0.023582  0  -0.082107  -0.107666  0  3.976528  0
C  C139  1  0.99185642  0.80049019  0.99206508  1  -0.076756  0  -0.09499  -0.138032  0  4.036072  0
C  C140  1  0.01891979  0.85652852  0.21910519  1  0.086361  0  0.009933  0.076517  0  4.029455  0
C  C141  1  0.19951127  0.29376068  0.49143558  1  -0.004744  0  -0.23073  -0.418241  0  3.989877  0
C  C142  1  0.19266442  0.79041378  0.54380663  1  -0.020726  0  -0.243932  -0.410284  0  3.983537  0
C  C143  1  0.24072743  0.39267284  0.71582165  1  -0.036267  0  -0.235537  -0.413045  0  3.978811  0
C  C144  1  0.06912201  0.69751478  0.84425331  1  -0.053406  0  -0.235132  -0.404012  0  3.991638  0
C  C145  1  0.14952681  0.93716198  0.11761224  1  -0.048242  0  -0.229823  -0.408557  0  3.965343  0
N  N146  1  0.94215643  0.88465376  0.60129675  1  -0.820141  0  -0.280724  -0.185227  0  3.584748  0
N  N147  1  0.06523877  0.16408370  0.44690761  1  -0.791984  0  -0.28085  -0.2432  0  3.553536  0
N  N148  1  0.09522300  0.10323051  0.63615873  1  -0.749106  0  -0.261683  -0.20324  0  3.644008  0
N  N149  1  0.89040799  0.04406568  0.49000625  1  -0.802317  0  -0.279247  -0.18272  0  3.658473  0
N  N150  1  0.07707223  0.13590228  0.58733863  1  -0.711102  0  -0.243615  -0.138107  0  3.541383  0
N  N151  1  0.89363644  0.00158972  0.53403418  1  -0.782112  0  -0.27435  -0.179488  0  3.59733  0
N  N152  1  0.97827725  0.12687201  0.40451219  1  -0.799012  0  -0.270589  -0.179238  0  3.545596  0
N  N153  1  0.02953630  0.91743232  0.63696006  1  -0.787207  0  -0.275254  -0.171157  0  3.567237  0
N  N154  1  0.78305598  0.83194665  0.40349919  1  -0.727179  0  -0.23284  -0.107098  0  3.532024  0
N  N155  1  0.21885393  0.10915490  0.56284543  1  -0.795091  0  -0.271164  -0.174105  0  3.553257  0
N  N156  1  0.05490388  0.91396003  0.50065795  1  -0.795344  0  -0.292819  -0.224111  0  3.6161  0
N  N157  1  0.96545374  0.95555161  0.36169506  1  -0.790798  0  -0.277591  -0.17162  0  3.626346  0
N  N158  1  0.05243139  0.99640378  0.40149506  1  -0.781299  0  -0.271958  -0.162755  0  3.616409  0
N  N159  1  0.96889986  0.85832167  0.46415614  1  -0.802408  0  -0.28377  -0.175664  0  3.619969  0
N  N160  1  0.79453644  0.88206754  0.36822162  1  -0.688955  0  -0.238491  -0.216958  0  3.490144  0
N  N161  1  0.22089381  0.06765091  0.60838226  1  -0.782317  0  -0.262712  -0.161504  0  3.5429  0
N  N162  1  0.72239253  0.89369904  0.26048517  1  0.274259  0  0.055457  0.50185  0  4.186096  0
N  N163  1  0.56263043  0.04272123  0.76206802  1  0.396266  0  0.060239  0.522177  0  4.219758  0
N  N164  1  0.71184495  0.04246695  0.75746344  1  0.409336  0  0.056869  0.509951  0  4.263789  0
N  N165  1  0.72060007  0.29236105  0.53007510  1  0.365355  0  0.055782  0.52181  0  4.197143  0
N  N166  1  0.29691024  0.71146897  0.52506647  1  0.380834  0  0.046003  0.511207  0  4.227859  0
N  N167  1  0.15649135  0.14313542  0.76850938  1  0.316719  0  0.054089  0.510228  0  4.210638  0
N  N168  1  0.05005901  0.24471740  0.82156854  1  0.419387  0  0.056291  0.516234  0  4.213421  0
N  N169  1  0.88548921  0.72169733  0.17298301  1  0.390104  0  0.054835  0.520075  0  4.231605  0
N  N170  1  0.86730420  0.68007293  0.02122075  1  0.412772  0  0.057892  0.520936  0  4.25398  0
O  O171  1  0.66137481  0.86495039  0.19827721  1  -0.428431  0  -0.107408  -0.291555  0  1.903562  0
O  O172  1  0.78949382  0.96558304  0.28694643  1  -0.540946  0  -0.165428  -0.360384  0  2.025133  0
O  O173  1  0.48478051  0.99121080  0.73022336  1  -0.443387  0  -0.12243  -0.31434  0  1.886661  0
O  O174  1  0.61279836  0.06533867  0.82832235  1  -0.41265  0  -0.124479  -0.312624  0  1.865827  0
O  O175  1  0.67014807  0.96505528  0.73392472  1  -0.414453  0  -0.125734  -0.310816  0  1.852999  0
O  O176  1  0.78488157  0.09027139  0.80991476  1  -0.414997  0  -0.108829  -0.292807  0  1.873297  0
O  O177  1  0.79828021  0.31746786  0.54882159  1  -0.448939  0  -0.143562  -0.341507  0  1.886109  0
O  O178  1  0.67525130  0.30739250  0.48390224  1  -0.461383  0  -0.152917  -0.353196  0  1.861766  0
O  O179  1  0.30953300  0.75900828  0.49316848  1  -0.454885  0  -0.146669  -0.344382  0  1.889887  0
O  O180  1  0.35281149  0.71977071  0.58243470  1  -0.46408  0  -0.158093  -0.358821  0  1.864471  0
O  O181  1  0.17128573  0.18856865  0.83277401  1  -0.445501  0  -0.125677  -0.316664  0  1.911135  0
O  O182  1  0.17469295  0.08474758  0.75501866  1  -0.497287  0  -0.147536  -0.359532  0  1.953948  0
O  O183  1  0.04580336  0.24304352  0.88031809  1  -0.441971  0  -0.132155  -0.319734  0  1.877675  0
O  O184  1  0.99419439  0.19153137  0.75632320  1  -0.47956  0  -0.136307  -0.351189  0  1.972906  0
O  O185  1  0.80903101  0.69314780  0.12939614  1  -0.438031  0  -0.138164  -0.332228  0  1.872385  0
O  O186  1  0.91119730  0.70603674  0.22759884  1  -0.452199  0  -0.122707  -0.327473  0  1.921063  0
O  O187  1  0.86377707  0.61248311  0.01797817  1  -0.435399  0  -0.134141  -0.324284  0  1.849994  0
O  O188  1  0.81528769  0.68899181  0.97548850  1  -0.408025  0  -0.116956  -0.305323  0  1.88164  0
