# generated using pymatgen
data_ZnH24C30(NO)4
_symmetry_space_group_name_H-M   'P 1'
_cell_length_a   9.25057522
_cell_length_b   10.93789917
_cell_length_c   16.19200000
_cell_angle_alpha   107.66298761
_cell_angle_beta   90.00000000
_cell_angle_gamma   115.01561594
_symmetry_Int_Tables_number   1
_chemical_formula_structural   ZnH24C30(NO)4
_chemical_formula_sum   'Zn2 H48 C60 N8 O8'
_cell_volume   1398.95411641
_cell_formula_units_Z   2
loop_
 _symmetry_equiv_pos_site_id
 _symmetry_equiv_pos_as_xyz
  1  'x, y, z'
loop_
 _atom_site_type_symbol
 _atom_site_label
 _atom_site_symmetry_multiplicity
 _atom_site_fract_x
 _atom_site_fract_y
 _atom_site_fract_z
 _atom_site_occupancy
 _atom_site_hle17_bader_spin_density
 _atom_site_hle17_ddec_charge
 _atom_site_hle17_ddec_spin_density
 _atom_site_hle17_ddec_sum_bond_order
 _atom_site_hle17_magmom
 _atom_site_hse06_10hf_bader_spin_density
 _atom_site_hse06_10hf_ddec_charge
 _atom_site_hse06_10hf_ddec_spin_density
 _atom_site_hse06_10hf_ddec_sum_bond_order
 _atom_site_hse06_10hf_magmom
 _atom_site_hse06_bader_spin_density
 _atom_site_hse06_ddec_charge
 _atom_site_hse06_ddec_spin_density
 _atom_site_hse06_ddec_sum_bond_order
 _atom_site_hse06_magmom
 _atom_site_pbe_bader_charge
 _atom_site_pbe_bader_spin_density
 _atom_site_pbe_cm5_charge
 _atom_site_pbe_ddec_charge
 _atom_site_pbe_ddec_spin_density
 _atom_site_pbe_ddec_sum_bond_order
 _atom_site_pbe_magmom
Zn  Zn0  1  0.22196067  0.99999056  0.75004136  1  0  1.014346  0  1.898445  0  0  0.82299  0  2.389907  0  0  0.869544  0  2.332813  0  1.257315  0  0.694804  0.790611  0  2.429234  0
Zn  Zn1  1  0.77803968  0.00000964  0.24995874  1  0  1.014354  0  1.898448  0  0  0.823  0  2.389911  0  0  0.869555  0  2.332817  0  1.257324  0  0.694807  0.790621  0  2.429239  0
H  H2  1  0.46612191  0.10635641  0.54404153  1  0  0.095574  0  0.956592  0  0  0.105694  0  1.018099  0  0  0.108969  0  1.015857  0  0.074453  0  0.099818  0.103359  0  1.019653  0
H  H3  1  0.35969227  0.89347033  0.95602678  1  0  0.095654  0  0.956699  0  0  0.10593  0  1.018076  0  0  0.109217  0  1.015833  0  0.08476  0  0.099689  0.103672  0  1.019398  0
H  H4  1  0.53387790  0.89364271  0.45595897  1  0  0.09561  0  0.956591  0  0  0.105726  0  1.018096  0  0  0.109001  0  1.015855  0  0.074488  0  0.099837  0.103389  0  1.01965  0
H  H5  1  0.64030916  0.10652987  0.04397333  1  0  0.09564  0  0.956737  0  0  0.10591  0  1.018116  0  0  0.109195  0  1.015875  0  0.084757  0  0.099672  0.103652  0  1.019437  0
H  H6  1  0.65187681  0.20657346  0.44427655  1  0  0.112577  0  0.95119  0  0  0.122386  0  1.011333  0  0  0.126139  0  1.009081  0  0.103846  0  0.103205  0.119682  0  1.013062  0
H  H7  1  0.44554753  0.79336142  0.05572252  1  0  0.11236  0  0.951529  0  0  0.122032  0  1.011862  0  0  0.125752  0  1.00967  0  0.117287  0  0.102969  0.119178  0  1.013753  0
H  H8  1  0.34812354  0.79342673  0.55572355  1  0  0.112541  0  0.951168  0  0  0.122356  0  1.011315  0  0  0.126111  0  1.00906  0  0.103855  0  0.103185  0.119652  0  1.013044  0
H  H9  1  0.55445283  0.20663878  0.94427758  1  0  0.11234  0  0.951535  0  0  0.122009  0  1.011881  0  0  0.125729  0  1.009688  0  0.11729  0  0.102951  0.119155  0  1.013771  0
H  H10  1  0.99982951  0.52575192  0.66946515  1  0  0.095676  0  0.956286  0  0  0.108631  0  1.012405  0  0  0.111368  0  1.011739  0  0.086941  0  0.099375  0.10667  0  1.012982  0
H  H11  1  0.47432719  0.47427183  0.83046382  1  0  0.095918  0  0.956356  0  0  0.108587  0  1.012679  0  0  0.111388  0  1.01195  0  0.084347  0  0.099304  0.106655  0  1.01329  0
H  H12  1  0.00016977  0.47424828  0.33053433  1  0  0.095666  0  0.956298  0  0  0.108617  0  1.012424  0  0  0.111354  0  1.011757  0  0.086927  0  0.099373  0.106657  0  1.012999  0
H  H13  1  0.52567316  0.52572836  0.16953629  1  0  0.095907  0  0.956312  0  0  0.108576  0  1.012639  0  0  0.111376  0  1.011912  0  0.084351  0  0.099296  0.106644  0  1.013251  0
H  H14  1  0.81464260  0.42319647  0.76726307  1  0  0.085608  0  0.979222  0  0  0.095745  0  1.044364  0  0  0.098643  0  1.042738  0  0.06996  0  0.096302  0.093637  0  1.045582  0
H  H15  1  0.39147891  0.57681871  0.73271725  1  0  0.085512  0  0.979194  0  0  0.095479  0  1.044572  0  0  0.098427  0  1.042909  0  0.087985  0  0.096304  0.09337  0  1.045729  0
H  H16  1  0.18535883  0.57680372  0.23273703  1  0  0.085618  0  0.979197  0  0  0.095751  0  1.044342  0  0  0.098653  0  1.042714  0  0.069963  0  0.096317  0.093645  0  1.045558  0
H  H17  1  0.60852144  0.42318148  0.26728224  1  0  0.085493  0  0.979228  0  0  0.095483  0  1.044581  0  0  0.098431  0  1.042918  0  0.087989  0  0.096308  0.093373  0  1.045738  0
H  H18  1  0.89483146  0.36730619  0.41996775  1  0  0.098497  0  0.973622  0  0  0.108001  0  1.040243  0  0  0.110909  0  1.038799  0  0.100191  0  0.098905  0.105866  0  1.041389  0
H  H19  1  0.52744881  0.63264475  0.08003523  1  0  0.098646  0  0.974168  0  0  0.108023  0  1.040791  0  0  0.110938  0  1.039358  0  0.114397  0  0.099154  0.105964  0  1.0418  0
H  H20  1  0.10516835  0.63269293  0.58003213  1  0  0.098484  0  0.973639  0  0  0.107979  0  1.040269  0  0  0.110886  0  1.038829  0  0.100185  0  0.098902  0.105856  0  1.0414  0
H  H21  1  0.47255154  0.36735545  0.91996487  1  0  0.098674  0  0.974141  0  0  0.108053  0  1.040761  0  0  0.110968  0  1.039329  0  0.114416  0  0.099167  0.105992  0  1.041773  0
H  H22  1  0.16811339  0.24087211  0.73219828  1  0  0.135906  0  0.937322  0  0  0.157073  0  0.995054  0  0  0.159299  0  0.993744  0  0.064723  0  0.10453  0.155464  0  0.995999  0
H  H23  1  0.92723657  0.75893322  0.76780820  1  0  0.135662  0  0.937254  0  0  0.156446  0  0.99552  0  0  0.158695  0  0.994175  0  0.06952  0  0.104072  0.154809  0  0.9965  0
H  H24  1  0.83188697  0.75912809  0.26780182  1  0  0.135918  0  0.937315  0  0  0.157087  0  0.995041  0  0  0.159313  0  0.993732  0  0.064734  0  0.104536  0.155478  0  0.995987  0
H  H25  1  0.07276378  0.24106697  0.23219190  1  0  0.135674  0  0.937257  0  0  0.15645  0  0.995533  0  0  0.158698  0  0.994188  0  0.069524  0  0.104069  0.154812  0  0.996512  0
H  H26  1  0.10502646  0.36832871  0.79662001  1  0  0.133504  0  0.954592  0  0  0.151431  0  1.016504  0  0  0.152772  0  1.017699  0  0.093895  0  0.101173  0.150448  0  1.015703  0
H  H27  1  0.73668105  0.63144450  0.70334839  1  0  0.132879  0  0.955533  0  0  0.151571  0  1.016453  0  0  0.152891  0  1.017663  0  0.09288  0  0.101313  0.150626  0  1.015649  0
H  H28  1  0.89497444  0.63167042  0.20337987  1  0  0.133522  0  0.954599  0  0  0.151447  0  1.016509  0  0  0.152789  0  1.017703  0  0.093897  0  0.101202  0.150465  0  1.015708  0
H  H29  1  0.26331984  0.36855676  0.29665255  1  0  0.132895  0  0.955518  0  0  0.151585  0  1.016436  0  0  0.152905  0  1.017645  0  0.09287  0  0.101331  0.150636  0  1.015635  0
H  H30  1  0.95961678  0.19061797  0.73811102  1  0  0.135924  0  0.917934  0  0  0.157719  0  0.971459  0  0  0.159822  0  0.971021  0  0.073046  0  0.103902  0.156214  0  0.971791  0
H  H31  1  0.76900043  0.80915631  0.76186069  1  0  0.135526  0  0.917141  0  0  0.157122  0  0.971092  0  0  0.159211  0  0.970667  0  0.076185  0  0.103642  0.155709  0  0.971324  0
H  H32  1  0.04038249  0.80938223  0.26188909  1  0  0.135925  0  0.917934  0  0  0.15772  0  0.97146  0  0  0.159823  0  0.971022  0  0.073042  0  0.103905  0.156215  0  0.971792  0
H  H33  1  0.23100099  0.19084603  0.23813985  1  0  0.135539  0  0.917154  0  0  0.157134  0  0.9711  0  0  0.159223  0  0.970675  0  0.076195  0  0.103647  0.155721  0  0.971332  0
H  H34  1  0.18535135  0.02596971  0.94693781  1  0  0.113477  0  0.955513  0  0  0.120793  0  1.018048  0  0  0.123706  0  1.016391  0  0.13782  0  0.121602  0.118606  0  1.019482  0
H  H35  1  0.15939704  0.97408938  0.55315527  1  0  0.112493  0  0.955438  0  0  0.120082  0  1.017874  0  0  0.122989  0  1.016229  0  0.149043  0  0.121348  0.117971  0  1.019114  0
H  H36  1  0.81464954  0.97403156  0.05306251  1  0  0.113473  0  0.955498  0  0  0.120788  0  1.018038  0  0  0.123702  0  1.016379  0  0.137813  0  0.121598  0.118601  0  1.019472  0
H  H37  1  0.84060278  0.02590975  0.44684461  1  0  0.112493  0  0.955435  0  0  0.120081  0  1.017871  0  0  0.122987  0  1.016228  0  0.149039  0  0.121344  0.117971  0  1.019111  0
H  H38  1  0.08750977  0.22102892  0.05496912  1  0  0.118675  0  0.94289  0  0  0.131938  0  0.997446  0  0  0.134597  0  0.99623  0  0.123593  0  0.128082  0.129981  0  0.998498  0
H  H39  1  0.86652825  0.77903873  0.44508187  1  0  0.119343  0  0.943192  0  0  0.132937  0  0.997324  0  0  0.135617  0  0.996065  0  0.126181  0  0.128374  0.130999  0  0.998346  0
H  H40  1  0.91249004  0.77897235  0.94503120  1  0  0.118678  0  0.94289  0  0  0.131923  0  0.997464  0  0  0.134582  0  0.996248  0  0.123601  0  0.128069  0.129966  0  0.998517  0
H  H41  1  0.13347048  0.22096039  0.55491802  1  0  0.119345  0  0.943206  0  0  0.132929  0  0.997348  0  0  0.135609  0  0.996091  0  0.126183  0  0.128377  0.130991  0  0.99837  0
H  H42  1  0.83577144  0.30384396  0.86271816  1  0  0.120015  0  0.953046  0  0  0.12939  0  1.012601  0  0  0.132633  0  1.010713  0  0.106911  0  0.112622  0.12702  0  1.014084  0
H  H43  1  0.53187422  0.69614339  0.63727684  1  0  0.121061  0  0.952084  0  0  0.129661  0  1.012775  0  0  0.132941  0  1.010848  0  0.142559  0  0.112608  0.127274  0  1.014229  0
H  H44  1  0.16422729  0.69615516  0.13728110  1  0  0.119975  0  0.953094  0  0  0.12938  0  1.012614  0  0  0.132622  0  1.010726  0  0.10696  0  0.112622  0.127008  0  1.014096  0
H  H45  1  0.46812560  0.30385574  0.36272304  1  0  0.121048  0  0.952089  0  0  0.129647  0  1.012783  0  0  0.132926  0  1.010858  0  0.142551  0  0.112601  0.127261  0  1.014238  0
H  H46  1  0.22006575  0.48849923  0.08044573  1  0  0.112342  0  0.951314  0  0  0.120884  0  1.015976  0  0  0.123697  0  1.01467  0  0.112808  0  0.111306  0.11878  0  1.017136  0
H  H47  1  0.73156192  0.51150418  0.41958652  1  0  0.112058  0  0.952055  0  0  0.120891  0  1.01617  0  0  0.123792  0  1.014754  0  0.109925  0  0.111309  0.118762  0  1.017344  0
H  H48  1  0.77993244  0.51150097  0.91955375  1  0  0.112326  0  0.951358  0  0  0.12087  0  1.016017  0  0  0.123685  0  1.014708  0  0.112773  0  0.111286  0.118775  0  1.017166  0
H  H49  1  0.26843898  0.48849494  0.58041336  1  0  0.112077  0  0.95205  0  0  0.120919  0  1.016152  0  0  0.123821  0  1.014736  0  0.109933  0  0.111319  0.118789  0  1.017327  0
C  C50  1  0.51677988  0.20073068  0.72228725  1  0  0.629208  0  3.958799  0  0  0.583663  0  4.24784  0  0  0.618066  0  4.239797  0  1.54272  0  0.19526  0.560362  0  4.252647  0
C  C51  1  0.31605023  0.79929093  0.77778518  1  0  0.628534  0  3.958682  0  0  0.583223  0  4.247446  0  0  0.617586  0  4.239411  0  1.564516  0  0.194885  0.559843  0  4.252294  0
C  C52  1  0.48322048  0.79926951  0.27771285  1  0  0.629194  0  3.958801  0  0  0.583664  0  4.247841  0  0  0.618065  0  4.2398  0  1.54272  0  0.195254  0.560362  0  4.252649  0
C  C53  1  0.68395174  0.20071034  0.22221453  1  0  0.628537  0  3.958681  0  0  0.583242  0  4.247423  0  0  0.617607  0  4.239389  0  1.563989  0  0.194887  0.559862  0  4.252272  0
C  C54  1  0.62765602  0.25973240  0.66200452  1  0  -0.080659  0  3.788233  0  0  -0.056697  0  4.016859  0  0  -0.066008  0  4.041763  0  -0.047117  0  -0.029694  -0.050695  0  4.000204  0
C  C55  1  0.36787686  0.74019285  0.83802160  1  0  -0.07991  0  3.790283  0  0  -0.055871  0  4.018639  0  0  -0.065127  0  4.043511  0  -0.092545  0  -0.030129  -0.050177  0  4.002212  0
C  C56  1  0.37234433  0.74026780  0.33799558  1  0  -0.080652  0  3.788238  0  0  -0.056741  0  4.016927  0  0  -0.06605  0  4.041827  0  -0.047129  0  -0.029713  -0.050739  0  4.000272  0
C  C57  1  0.63212295  0.25980842  0.16197872  1  0  -0.079924  0  3.790298  0  0  -0.055918  0  4.018692  0  0  -0.065179  0  4.04357  0  -0.092857  0  -0.030139  -0.050223  0  4.002265  0
C  C58  1  0.58304941  0.19845867  0.57073400  1  0  -0.070579  0  3.762642  0  0  -0.093363  0  4.008271  0  0  -0.092459  0  4.028779  0  -0.006325  0  -0.090801  -0.093736  0  3.994271  0
C  C59  1  0.38460975  0.80142161  0.92928661  1  0  -0.071808  0  3.764865  0  0  -0.094928  0  4.010682  0  0  -0.094068  0  4.03121  0  -0.095643  0  -0.090994  -0.095173  0  3.996182  0
C  C60  1  0.41695094  0.80154153  0.42926549  1  0  -0.070582  0  3.762608  0  0  -0.093343  0  4.008237  0  0  -0.09244  0  4.028745  0  -0.006356  0  -0.090788  -0.093713  0  3.994235  0
C  C61  1  0.61539061  0.19857858  0.07071349  1  0  -0.071825  0  3.764902  0  0  -0.094925  0  4.010716  0  0  -0.094063  0  4.031244  0  -0.095629  0  -0.090989  -0.09517  0  3.996216  0
C  C62  1  0.68649615  0.25401489  0.51529843  1  0  -0.120984  0  3.714098  0  0  -0.137182  0  3.959741  0  0  -0.141914  0  3.981005  0  -0.049746  0  -0.091333  -0.134019  0  3.945198  0
C  C63  1  0.43279676  0.74599066  0.98469906  1  0  -0.120659  0  3.715008  0  0  -0.136864  0  3.960709  0  0  -0.141536  0  3.981934  0  -0.030786  0  -0.091125  -0.133172  0  3.945625  0
C  C64  1  0.31350259  0.74598424  0.48470084  1  0  -0.120956  0  3.714058  0  0  -0.137174  0  3.959684  0  0  -0.141906  0  3.980949  0  -0.049734  0  -0.091325  -0.134013  0  3.945141  0
C  C65  1  0.56720360  0.25400953  0.01530104  1  0  -0.120599  0  3.714976  0  0  -0.136803  0  3.960669  0  0  -0.141475  0  3.981894  0  -0.030782  0  -0.09109  -0.133111  0  3.945585  0
C  C66  1  0.83664543  0.37524861  0.54961133  1  0  0.09575  0  3.82646  0  0  0.112184  0  4.059626  0  0  0.114374  0  4.084361  0  -0.099123  0  -0.013493  0.110897  0  4.042584  0
C  C67  1  0.46176525  0.62481583  0.95035932  1  0  0.096217  0  3.828161  0  0  0.113144  0  4.060368  0  0  0.11532  0  4.085082  0  -0.002435  0  -0.013146  0.111879  0  4.043204  0
C  C68  1  0.16335492  0.62475159  0.45038877  1  0  0.095678  0  3.826499  0  0  0.112158  0  4.059601  0  0  0.114349  0  4.084338  0  -0.099116  0  -0.013504  0.110871  0  4.042563  0
C  C69  1  0.53823511  0.37518437  0.04964140  1  0  0.096199  0  3.828174  0  0  0.113133  0  4.06037  0  0  0.11531  0  4.085085  0  -0.002444  0  -0.013154  0.111868  0  4.043208  0
C  C70  1  0.88245780  0.43430279  0.64136690  1  0  -0.132021  0  3.7416  0  0  -0.145336  0  3.981841  0  0  -0.149842  0  4.003317  0  -0.066413  0  -0.097659  -0.142307  0  3.967129  0
C  C71  1  0.44846550  0.56575094  0.85858303  1  0  -0.133266  0  3.742231  0  0  -0.146463  0  3.982215  0  0  -0.151008  0  4.003679  0  -0.10744  0  -0.098437  -0.143867  0  3.967927  0
C  C72  1  0.11754202  0.56569634  0.35863237  1  0  -0.131973  0  3.741589  0  0  -0.145296  0  3.981807  0  0  -0.149803  0  4.003284  0  -0.066402  0  -0.097648  -0.142268  0  3.967094  0
C  C73  1  0.55153594  0.43424925  0.14141707  1  0  -0.133261  0  3.742208  0  0  -0.146459  0  3.982198  0  0  -0.151005  0  4.003661  0  -0.107934  0  -0.09844  -0.143865  0  3.967913  0
C  C74  1  0.77951919  0.37705380  0.69639314  1  0  -0.084421  0  3.795903  0  0  -0.105313  0  4.039946  0  0  -0.105059  0  4.061271  0  -0.036803  0  -0.094721  -0.105223  0  4.025486  0
C  C75  1  0.40256012  0.62294318  0.80359210  1  0  -0.083429  0  3.796032  0  0  -0.104108  0  4.039852  0  0  -0.10392  0  4.061189  0  -0.017246  0  -0.0935  -0.103824  0  4.025413  0
C  C76  1  0.22048116  0.62294640  0.30360696  1  0  -0.084439  0  3.795866  0  0  -0.105309  0  4.039925  0  0  -0.105059  0  4.061246  0  -0.036807  0  -0.094732  -0.10522  0  4.025465  0
C  C77  1  0.59744023  0.37705701  0.19640800  1  0  -0.083416  0  3.796062  0  0  -0.104108  0  4.039894  0  0  -0.103921  0  4.061233  0  -0.016479  0  -0.093509  -0.103825  0  4.025455  0
C  C78  1  0.93546878  0.43493022  0.48884975  1  0  -0.118923  0  3.745353  0  0  -0.141766  0  4.006825  0  0  -0.144206  0  4.02716  0  -0.0905  0  -0.095038  -0.140011  0  3.992969  0
C  C79  1  0.50061626  0.56508818  0.01114729  1  0  -0.119181  0  3.748047  0  0  -0.14213  0  4.009264  0  0  -0.144534  0  4.029553  0  -0.040931  0  -0.095213  -0.14013  0  3.99484  0
C  C80  1  0.06453158  0.56506998  0.51115097  1  0  -0.118853  0  3.745334  0  0  -0.141703  0  4.006802  0  0  -0.144142  0  4.027137  0  -0.01756  0  -0.095005  -0.139955  0  3.992935  0
C  C81  1  0.49938624  0.43491416  0.98885387  1  0  -0.11921  0  3.748051  0  0  -0.142168  0  4.009273  0  0  -0.144572  0  4.029563  0  -0.144061  0  -0.095212  -0.140167  0  3.99485  0
C  C82  1  0.09976159  0.21169246  0.85196051  1  0  0.385279  0  3.653753  0  0  0.36125  0  3.920616  0  0  0.377681  0  3.934515  0  0.969799  0  0.22572  0.350244  0  3.910917  0
C  C83  1  0.88811090  0.78818889  0.64806341  1  0  0.386493  0  3.652954  0  0  0.362573  0  3.918985  0  0  0.378965  0  3.932895  0  0.965894  0  0.227107  0.351851  0  3.909017  0
C  C84  1  0.90023876  0.78830774  0.14803959  1  0  0.385321  0  3.653668  0  0  0.361285  0  3.920509  0  0  0.377716  0  3.934408  0  0.969797  0  0.225745  0.350279  0  3.910811  0
C  C85  1  0.11188946  0.21181130  0.35193670  1  0  0.386503  0  3.652948  0  0  0.362584  0  3.918974  0  0  0.378977  0  3.932882  0  0.965889  0  0.227116  0.351862  0  3.909005  0
C  C86  1  0.08170335  0.25572479  0.77584282  1  0  -0.396275  0  3.717401  0  0  -0.478112  0  3.959174  0  0  -0.482281  0  3.964923  0  -0.057347  0  -0.228871  -0.474977  0  3.955036  0
C  C87  1  0.82598825  0.74402915  0.72413646  1  0  -0.395373  0  3.718135  0  0  -0.477542  0  3.959731  0  0  -0.481667  0  3.965498  0  -0.060512  0  -0.228692  -0.474445  0  3.955476  0
C  C88  1  0.91829754  0.74427648  0.22415750  1  0  -0.396288  0  3.717391  0  0  -0.478128  0  3.959161  0  0  -0.482298  0  3.964909  0  -0.057353  0  -0.228892  -0.474993  0  3.955023  0
C  C89  1  0.17401210  0.25597105  0.27586365  1  0  -0.39542  0  3.718159  0  0  -0.47758  0  3.959753  0  0  -0.481704  0  3.965521  0  -0.060516  0  -0.228711  -0.474479  0  3.955502  0
C  C90  1  0.14893850  0.10039371  0.93292995  1  0  0.013366  0  3.763523  0  0  -0.023482  0  4.035483  0  0  -0.021602  0  4.055698  0  0.376601  0  -0.000189  -0.024826  0  4.022123  0
C  C91  1  0.04853622  0.89969000  0.56716509  1  0  0.015785  0  3.761777  0  0  -0.021075  0  4.033766  0  0  -0.019176  0  4.053962  0  0.407086  0  0.000409  -0.022236  0  4.020108  0
C  C92  1  0.85106185  0.89960648  0.06707015  1  0  0.013393  0  3.763533  0  0  -0.023456  0  4.035497  0  0  -0.021576  0  4.055713  0  0.376519  0  -0.000182  -0.024801  0  4.022136  0
C  C93  1  0.95146305  0.10031020  0.43283440  1  0  0.015782  0  3.76178  0  0  -0.021076  0  4.033766  0  0  -0.019175  0  4.053963  0  0.407099  0  0.000418  -0.022236  0  4.020108  0
C  C94  1  0.10252037  0.19621877  0.98651379  1  0  -0.055247  0  3.689926  0  0  -0.098834  0  3.954245  0  0  -0.097664  0  3.97317  0  0.319668  0  0.002429  -0.09946  0  3.941539  0
C  C95  1  0.90632392  0.80385958  0.51354865  1  0  -0.05715  0  3.691468  0  0  -0.101623  0  3.955668  0  0  -0.100464  0  3.9746  0  0.271883  0  0.001908  -0.102445  0  3.942981  0
C  C96  1  0.89747944  0.80378249  0.01348653  1  0  -0.05528  0  3.689952  0  0  -0.098874  0  3.954268  0  0  -0.097705  0  3.973193  0  0.319731  0  0.00241  -0.099499  0  3.941563  0
C  C97  1  0.09367589  0.19613954  0.48645123  1  0  -0.057149  0  3.691506  0  0  -0.101615  0  3.95571  0  0  -0.100458  0  3.974642  0  0.271881  0  0.001912  -0.102438  0  3.943022  0
C  C98  1  0.03319965  0.38355613  0.96774687  1  0  0.177334  0  3.778762  0  0  0.172058  0  4.02246  0  0  0.176477  0  4.045745  0  0.328219  0  0.096619  0.16909  0  4.006727  0
C  C99  1  0.64967864  0.61647619  0.53227217  1  0  0.177442  0  3.778132  0  0  0.170795  0  4.023233  0  0  0.175222  0  4.046547  0  0.25904  0  0.09621  0.167731  0  4.007479  0
C  C100  1  0.96679962  0.61644406  0.03225200  1  0  0.177317  0  3.77877  0  0  0.172001  0  4.022489  0  0  0.176418  0  4.045774  0  0.328215  0  0.096589  0.169033  0  4.006757  0
C  C101  1  0.35032226  0.38352294  0.46772833  1  0  0.177462  0  3.778159  0  0  0.170819  0  4.02325  0  0  0.175245  0  4.046564  0  0.259045  0  0.09622  0.167755  0  4.007497  0
C  C102  1  0.91146514  0.39082080  0.92145547  1  0  -0.124495  0  3.733469  0  0  -0.144829  0  3.984097  0  0  -0.14791  0  4.004277  0  0.033044  0  -0.080783  -0.142731  0  3.97049  0
C  C103  1  0.52063098  0.60919332  0.57853020  1  0  -0.12482  0  3.731094  0  0  -0.144421  0  3.982117  0  0  -0.147552  0  4.002372  0  -0.022919  0  -0.080469  -0.142281  0  3.968524  0
C  C104  1  0.08853358  0.60918047  0.07854362  1  0  -0.124475  0  3.733509  0  0  -0.14482  0  3.984133  0  0  -0.147902  0  4.004313  0  0.032965  0  -0.080797  -0.142718  0  3.97052  0
C  C105  1  0.47936884  0.39080581  0.42146969  1  0  -0.124813  0  3.731111  0  0  -0.144414  0  3.982131  0  0  -0.147547  0  4.002387  0  -0.02282  0  -0.080454  -0.142274  0  3.968538  0
C  C106  1  0.12103455  0.49176271  0.04630052  1  0  -0.122622  0  3.733927  0  0  -0.145635  0  3.987965  0  0  -0.148523  0  4.008717  0  -0.069201  0  -0.081002  -0.143612  0  3.974019  0
C  C107  1  0.62928943  0.50823963  0.45374017  1  0  -0.122498  0  3.733836  0  0  -0.145237  0  3.987656  0  0  -0.148201  0  4.008399  0  0.022163  0  -0.081205  -0.143231  0  3.973761  0
C  C108  1  0.87896364  0.50823749  0.95369835  1  0  -0.122583  0  3.733906  0  0  -0.145586  0  3.987941  0  0  -0.148475  0  4.008694  0  -0.069155  0  -0.08096  -0.143571  0  3.973992  0
C  C109  1  0.37071039  0.49175949  0.54625972  1  0  -0.122534  0  3.733863  0  0  -0.14528  0  3.987676  0  0  -0.148244  0  4.008419  0  0.022203  0  -0.081212  -0.143274  0  3.973781  0
N  N110  1  0.14737989  0.11155892  0.85018196  1  0  -0.436124  0  3.259765  0  0  -0.359593  0  3.553711  0  0  -0.380482  0  3.564874  0  -1.241651  0  -0.356886  -0.345548  0  3.546178  0
N  N111  1  0.03584175  0.88839523  0.64987973  1  0  -0.436708  0  3.259432  0  0  -0.361091  0  3.554424  0  0  -0.381968  0  3.565556  0  -1.23585  0  -0.357541  -0.346999  0  3.546645  0
N  N112  1  0.85262046  0.88844127  0.14981814  1  0  -0.436128  0  3.259754  0  0  -0.359603  0  3.553704  0  0  -0.380492  0  3.564866  0  -1.241653  0  -0.356884  -0.345558  0  3.546171  0
N  N113  1  0.96415752  0.11160496  0.35012037  1  0  -0.436719  0  3.25945  0  0  -0.361099  0  3.554441  0  0  -0.381977  0  3.565573  0  -1.235863  0  -0.357551  -0.347007  0  3.546662  0
N  N114  1  0.07124446  0.26605485  0.93515253  1  0  -0.137419  0  3.550803  0  0  -0.052515  0  3.761414  0  0  -0.067959  0  3.786152  0  -1.244239  0  -0.219951  -0.042252  0  3.744584  0
N  N115  1  0.80522797  0.73393142  0.56487560  1  0  -0.138827  0  3.552093  0  0  -0.052295  0  3.761085  0  0  -0.067733  0  3.785817  0  -1.244347  0  -0.220293  -0.042003  0  3.744165  0
N  N116  1  0.92875589  0.73394534  0.06484757  1  0  -0.137483  0  3.550736  0  0  -0.052516  0  3.761285  0  0  -0.067959  0  3.786021  0  -1.244231  0  -0.219974  -0.042254  0  3.744456  0
N  N117  1  0.19477185  0.26606770  0.43512429  1  0  -0.138824  0  3.552119  0  0  -0.05229  0  3.761104  0  0  -0.067728  0  3.785836  0  -1.244354  0  -0.22031  -0.041998  0  3.744184  0
O  O118  1  0.37107748  0.10682003  0.68410197  1  0  -0.668124  0  2.080909  0  0  -0.592008  0  2.360124  0  0  -0.620652  0  2.342471  0  -1.185111  0  -0.343379  -0.571967  0  2.371432  0
O  O119  1  0.26420731  0.89315233  0.81598013  1  0  -0.667597  0  2.082225  0  0  -0.591612  0  2.36126  0  0  -0.620241  0  2.343658  0  -1.183565  0  -0.342962  -0.571445  0  2.372644  0
O  O120  1  0.62892287  0.89318017  0.31589813  1  0  -0.668139  0  2.080927  0  0  -0.592027  0  2.360147  0  0  -0.620668  0  2.342489  0  -1.185117  0  -0.343384  -0.571984  0  2.371454  0
O  O121  1  0.73579412  0.10684786  0.18401998  1  0  -0.667573  0  2.082236  0  0  -0.591593  0  2.361274  0  0  -0.620221  0  2.343673  0  -1.183046  0  -0.342946  -0.571425  0  2.372658  0
O  O122  1  0.56512420  0.24180575  0.80257368  1  0  -0.617676  0  1.928739  0  0  -0.575073  0  2.156142  0  0  -0.596794  0  2.145727  0  -1.190994  0  -0.324296  -0.560051  0  2.162967  0
O  O123  1  0.32341473  0.75835826  0.69749952  1  0  -0.617839  0  1.926952  0  0  -0.575331  0  2.154446  0  0  -0.597094  0  2.144069  0  -1.187376  0  -0.324463  -0.560387  0  2.161264  0
O  O124  1  0.43487616  0.75819444  0.19742642  1  0  -0.617664  0  1.928752  0  0  -0.575063  0  2.156147  0  0  -0.596783  0  2.145734  0  -1.190988  0  -0.324289  -0.560041  0  2.162971  0
O  O125  1  0.67658724  0.24164301  0.30250080  1  0  -0.617847  0  1.926907  0  0  -0.575338  0  2.154397  0  0  -0.597101  0  2.144019  0  -1.187366  0  -0.324473  -0.560394  0  2.161212  0
