# generated using pymatgen
data_ZnH22C25N4O5
_symmetry_space_group_name_H-M   'P 1'
_cell_length_a   8.38672094
_cell_length_b   10.88706454
_cell_length_c   14.12555188
_cell_angle_alpha   83.62291827
_cell_angle_beta   72.70524088
_cell_angle_gamma   68.00651807
_symmetry_Int_Tables_number   1
_chemical_formula_structural   ZnH22C25N4O5
_chemical_formula_sum   'Zn2 H44 C50 N8 O10'
_cell_volume   1141.82924982
_cell_formula_units_Z   2
loop_
 _symmetry_equiv_pos_site_id
 _symmetry_equiv_pos_as_xyz
  1  'x, y, z'
loop_
 _atom_site_type_symbol
 _atom_site_label
 _atom_site_symmetry_multiplicity
 _atom_site_fract_x
 _atom_site_fract_y
 _atom_site_fract_z
 _atom_site_occupancy
 _atom_site_hle17_bader_spin_density
 _atom_site_hle17_ddec_charge
 _atom_site_hle17_ddec_spin_density
 _atom_site_hle17_ddec_sum_bond_order
 _atom_site_hle17_magmom
 _atom_site_hse06_10hf_bader_spin_density
 _atom_site_hse06_10hf_ddec_charge
 _atom_site_hse06_10hf_ddec_spin_density
 _atom_site_hse06_10hf_ddec_sum_bond_order
 _atom_site_hse06_10hf_magmom
 _atom_site_hse06_bader_spin_density
 _atom_site_hse06_ddec_charge
 _atom_site_hse06_ddec_spin_density
 _atom_site_hse06_ddec_sum_bond_order
 _atom_site_hse06_magmom
 _atom_site_pbe_bader_spin_density
 _atom_site_pbe_cm5_charge
 _atom_site_pbe_ddec_charge
 _atom_site_pbe_ddec_spin_density
 _atom_site_pbe_ddec_sum_bond_order
 _atom_site_pbe_magmom
Zn  Zn0  1  0.93679049  0.74994366  0.12686613  1  0  1.000335  0  1.886771  0  0  0.806827  0  2.374208  0  0  0.853448  0  2.318189  0  0  0.691981  0.77433  0  2.412752  0
Zn  Zn1  1  0.06321002  0.25005491  0.87313287  1  0  1.000389  0  1.8867  0  0  0.806857  0  2.374121  0  0  0.853485  0  2.318105  0  0  0.692003  0.774363  0  2.412675  0
H  H2  1  0.80473869  0.48463510  0.96415288  1  0  0.095652  0  0.956634  0  0  0.111765  0  1.020592  0  0  0.113761  0  1.020183  0  0  0.096016  0.11033  0  1.021014  0
H  H3  1  0.23133355  0.01520013  0.96380414  1  0  0.096407  0  0.955617  0  0  0.112098  0  1.019834  0  0  0.114064  0  1.019394  0  0  0.096435  0.110673  0  1.020269  0
H  H4  1  0.19526366  0.51536247  0.03584726  1  0  0.095676  0  0.956648  0  0  0.111785  0  1.020618  0  0  0.113782  0  1.020208  0  0  0.096026  0.110348  0  1.021038  0
H  H5  1  0.76866704  0.98480042  0.03619508  1  0  0.096394  0  0.955622  0  0  0.112087  0  1.019831  0  0  0.114053  0  1.019388  0  0  0.09644  0.110663  0  1.020266  0
H  H6  1  0.66345977  0.64262302  0.93948626  1  0  0.091537  0  0.926697  0  0  0.108865  0  0.983655  0  0  0.111109  0  0.983022  0  0  0.093654  0.107225  0  0.984291  0
H  H7  1  0.39757262  0.85727134  0.93908666  1  0  0.09126  0  0.926386  0  0  0.108328  0  0.983542  0  0  0.110583  0  0.982834  0  0  0.093522  0.106703  0  0.984185  0
H  H8  1  0.33654107  0.35737555  0.06051367  1  0  0.091545  0  0.926732  0  0  0.108873  0  0.983695  0  0  0.111118  0  0.983058  0  0  0.09365  0.107231  0  0.984326  0
H  H9  1  0.60242764  0.14272921  0.06091163  1  0  0.091268  0  0.926374  0  0  0.108354  0  0.983518  0  0  0.1106  0  0.982819  0  0  0.093535  0.106725  0  0.984166  0
H  H10  1  0.40848925  0.60823767  0.07979980  1  0  0.055956  0  0.962201  0  0  0.073071  0  1.028731  0  0  0.072859  0  1.030552  0  0  0.083532  0.073135  0  1.027515  0
H  H11  1  0.51116147  0.89183991  0.07981853  1  0  0.055752  0  0.961388  0  0  0.072865  0  1.027784  0  0  0.072712  0  1.029572  0  0  0.083543  0.072879  0  1.026615  0
H  H12  1  0.59151367  0.39176089  0.92020056  1  0  0.055951  0  0.962292  0  0  0.073051  0  1.02881  0  0  0.072837  0  1.030637  0  0  0.083534  0.073124  0  1.027584  0
H  H13  1  0.48884005  0.10816163  0.92017927  1  0  0.055733  0  0.961322  0  0  0.072837  0  1.027742  0  0  0.072677  0  1.029535  0  0  0.083527  0.072849  0  1.02657  0
H  H14  1  0.55432722  0.44598610  0.09529769  1  0  0.057109  0  0.933262  0  0  0.077117  0  0.99235  0  0  0.078193  0  0.991952  0  0  0.08403  0.076311  0  0.992743  0
H  H15  1  0.34971559  0.05405015  0.09513211  1  0  0.056593  0  0.934302  0  0  0.076648  0  0.993198  0  0  0.077726  0  0.992815  0  0  0.084408  0.075841  0  0.993581  0
H  H16  1  0.44567603  0.55401246  0.90470360  1  0  0.057119  0  0.933255  0  0  0.077109  0  0.992328  0  0  0.078186  0  0.991932  0  0  0.084025  0.076304  0  0.992729  0
H  H17  1  0.65028607  0.94595040  0.90486477  1  0  0.056554  0  0.934264  0  0  0.07659  0  0.993193  0  0  0.077665  0  0.992812  0  0  0.084395  0.075784  0  0.993574  0
H  H18  1  0.24820486  0.67026478  0.24936887  1  0  0.130134  0  0.943018  0  0  0.132671  0  1.013928  0  0  0.136484  0  1.008848  0  0  0.145679  0.129839  0  1.017639  0
H  H19  1  0.50312599  0.82948095  0.24948632  1  0  0.130414  0  0.943956  0  0  0.132377  0  1.015351  0  0  0.136177  0  1.010295  0  0  0.145652  0.129577  0  1.018993  0
H  H20  1  0.75179066  0.32973480  0.75063091  1  0  0.130091  0  0.943007  0  0  0.132613  0  1.013947  0  0  0.136426  0  1.008866  0  0  0.145652  0.129781  0  1.017663  0
H  H21  1  0.49687586  0.17052058  0.75051241  1  0  0.1304  0  0.943899  0  0  0.132353  0  1.015313  0  0  0.136153  0  1.010255  0  0  0.145639  0.129554  0  1.01896  0
H  H22  1  0.88621894  0.49523979  0.23206692  1  0  0.122463  0  0.96987  0  0  0.131749  0  1.025958  0  0  0.134751  0  1.024218  0  0  0.124027  0.129468  0  1.027438  0
H  H23  1  0.88187515  0.00506490  0.23204823  1  0  0.123946  0  0.969699  0  0  0.133292  0  1.025267  0  0  0.136373  0  1.02346  0  0  0.12494  0.131017  0  1.026728  0
H  H24  1  0.11378498  0.50475383  0.76793230  1  0  0.1225  0  0.969854  0  0  0.131775  0  1.025949  0  0  0.134781  0  1.024203  0  0  0.124032  0.129486  0  1.027453  0
H  H25  1  0.11812857  0.99493267  0.76795306  1  0  0.123943  0  0.96975  0  0  0.133268  0  1.02534  0  0  0.136353  0  1.023527  0  0  0.124937  0.130989  0  1.026803  0
H  H26  1  0.09126893  0.34042605  0.35776817  1  0  0.102212  0  1.012844  0  0  0.108294  0  1.082979  0  0  0.10978  0  1.084745  0  0  0.112784  0.10722  0  1.081853  0
H  H27  1  0.55075957  0.15984035  0.35769719  1  0  0.102058  0  1.01256  0  0  0.107707  0  1.083194  0  0  0.109179  0  1.08498  0  0  0.112621  0.10665  0  1.082049  0
H  H28  1  0.90873399  0.65957251  0.64223219  1  0  0.102238  0  1.012841  0  0  0.108308  0  1.082997  0  0  0.109794  0  1.084764  0  0  0.112786  0.107237  0  1.081868  0
H  H29  1  0.44924435  0.84016117  0.64230197  1  0  0.102055  0  1.012573  0  0  0.107674  0  1.083224  0  0  0.109146  0  1.085007  0  0  0.112631  0.106615  0  1.082076  0
H  H30  1  0.54867574  0.48349700  0.25595626  1  0  0.13662  0  0.967515  0  0  0.14164  0  1.033129  0  0  0.146116  0  1.02974  0  0  0.11487  0.138283  0  1.035793  0
H  H31  1  0.19579545  0.01645274  0.25588690  1  0  0.136742  0  0.966674  0  0  0.141686  0  1.032669  0  0  0.146158  0  1.029247  0  0  0.115143  0.138377  0  1.035292  0
H  H32  1  0.45132510  0.51650157  0.74404368  1  0  0.136592  0  0.967546  0  0  0.141615  0  1.033157  0  0  0.146091  0  1.029767  0  0  0.114858  0.138257  0  1.035827  0
H  H33  1  0.80420396  0.98354879  0.74411304  1  0  0.136709  0  0.966737  0  0  0.141659  0  1.032721  0  0  0.146134  0  1.029294  0  0  0.115135  0.138349  0  1.035346  0
H  H34  1  0.77992354  0.36791254  0.34246583  1  0  0.091712  0  0.973995  0  0  0.104772  0  1.032395  0  0  0.106564  0  1.032641  0  0  0.105762  0.103422  0  1.032345  0
H  H35  1  0.87786201  0.13185486  0.34244191  1  0  0.090308  0  0.973842  0  0  0.103092  0  1.032588  0  0  0.104972  0  1.032697  0  0  0.104965  0.101735  0  1.032541  0
H  H36  1  0.22007604  0.63208504  0.65753459  1  0  0.091719  0  0.973986  0  0  0.10479  0  1.032365  0  0  0.106583  0  1.032609  0  0  0.10577  0.103437  0  1.032316  0
H  H37  1  0.12213930  0.86814271  0.65755802  1  0  0.090302  0  0.973836  0  0  0.103082  0  1.032587  0  0  0.104962  0  1.032697  0  0  0.10497  0.101729  0  1.03254  0
H  H38  1  0.38554651  0.29781894  0.59496726  1  0  0.108074  0  0.944931  0  0  0.117221  0  1.006376  0  0  0.120239  0  1.004699  0  0  0.1096  0.115011  0  1.007617  0
H  H39  1  0.01905453  0.20199762  0.59506289  1  0  0.107718  0  0.944413  0  0  0.116698  0  1.00611  0  0  0.119697  0  1.004433  0  0  0.109671  0.114497  0  1.007341  0
H  H40  1  0.61444760  0.70218064  0.40503394  1  0  0.10809  0  0.944943  0  0  0.117238  0  1.006383  0  0  0.120254  0  1.004706  0  0  0.109614  0.115028  0  1.007617  0
H  H41  1  0.98094162  0.79800789  0.40493591  1  0  0.107671  0  0.944428  0  0  0.11664  0  1.006139  0  0  0.119642  0  1.004466  0  0  0.109648  0.114434  0  1.007365  0
H  H42  1  0.15283159  0.40239541  0.50475579  1  0  0.103171  0  0.96085  0  0  0.112308  0  1.025083  0  0  0.115304  0  1.024253  0  0  0.10243  0.110196  0  1.025738  0
H  H43  1  0.34215195  0.09761534  0.50480870  1  0  0.101739  0  0.958664  0  0  0.110997  0  1.022935  0  0  0.114017  0  1.022069  0  0  0.102194  0.108829  0  1.023648  0
H  H44  1  0.84716486  0.59760515  0.49524257  1  0  0.103113  0  0.960864  0  0  0.112266  0  1.025073  0  0  0.115265  0  1.024237  0  0  0.102406  0.110152  0  1.025726  0
H  H45  1  0.65784391  0.90239214  0.49519194  1  0  0.101724  0  0.958714  0  0  0.110995  0  1.022971  0  0  0.114005  0  1.022118  0  0  0.10218  0.108826  0  1.023681  0
C  C46  1  0.73588825  0.62539130  0.07417800  1  0  0.69708  0  3.850173  0  0  0.653282  0  4.147574  0  0  0.686338  0  4.14122  0  0  0.204759  0.630817  0  4.151069  0
C  C47  1  0.19010466  0.87443454  0.07376698  1  0  0.696773  0  3.844816  0  0  0.652788  0  4.142374  0  0  0.685804  0  4.135999  0  0  0.203891  0.630322  0  4.14591  0
C  C48  1  0.26411385  0.37460825  0.92582144  1  0  0.696997  0  3.850121  0  0  0.653203  0  4.147517  0  0  0.686256  0  4.141166  0  0  0.204687  0.630748  0  4.151002  0
C  C49  1  0.80989395  0.12556799  0.92623202  1  0  0.696765  0  3.844764  0  0  0.652775  0  4.142323  0  0  0.685793  0  4.135945  0  0  0.203933  0.630325  0  4.145838  0
C  C50  1  0.68453454  0.56880445  0.99893133  1  0  -0.256445  0  3.68295  0  0  -0.292904  0  3.929659  0  0  -0.299801  0  3.940278  0  0  -0.16807  -0.288144  0  3.922306  0
C  C51  1  0.31676622  0.93107691  0.99857340  1  0  -0.256153  0  3.68203  0  0  -0.291883  0  3.928072  0  0  -0.298573  0  3.938349  0  0  -0.167619  -0.287224  0  3.920863  0
C  C52  1  0.31546710  0.43119312  0.00106952  1  0  -0.256481  0  3.683004  0  0  -0.292971  0  3.929695  0  0  -0.299866  0  3.940315  0  0  -0.168101  -0.288209  0  3.922336  0
C  C53  1  0.68323264  0.06892364  0.00142632  1  0  -0.256208  0  3.682011  0  0  -0.291963  0  3.928109  0  0  -0.298644  0  3.938382  0  0  -0.167693  -0.287304  0  3.920899  0
C  C54  1  0.52440495  0.52501656  0.04021925  1  0  -0.084275  0  3.704177  0  0  -0.124844  0  3.96538  0  0  -0.125048  0  3.980237  0  0  -0.170964  -0.124439  0  3.95492  0
C  C55  1  0.43520139  0.97499463  0.04009721  1  0  -0.083761  0  3.707438  0  0  -0.124202  0  3.967642  0  0  -0.124561  0  3.982596  0  0  -0.171483  -0.123712  0  3.957116  0
C  C56  1  0.47559844  0.47498100  0.95978111  1  0  -0.084352  0  3.704285  0  0  -0.124806  0  3.965384  0  0  -0.125019  0  3.980252  0  0  -0.170922  -0.124406  0  3.954925  0
C  C57  1  0.56480094  0.02500591  0.95990152  1  0  -0.083497  0  3.707319  0  0  -0.123935  0  3.967525  0  0  -0.12428  0  3.982475  0  0  -0.171363  -0.123447  0  3.956995  0
C  C58  1  0.17829554  0.60143585  0.26019702  1  0  0.187887  0  3.585072  0  0  0.122773  0  3.858024  0  0  0.137905  0  3.867634  0  0  0.160354  0.113008  0  3.851294  0
C  C59  1  0.56196379  0.89849625  0.26025818  1  0  0.187753  0  3.584654  0  0  0.12286  0  3.857904  0  0  0.137985  0  3.867501  0  0  0.159745  0.113094  0  3.851182  0
C  C60  1  0.82170275  0.39856372  0.73980248  1  0  0.187921  0  3.585011  0  0  0.122812  0  3.857961  0  0  0.137944  0  3.86757  0  0  0.160361  0.11305  0  3.851234  0
C  C61  1  0.43803666  0.10150529  0.73974196  1  0  0.187763  0  3.584604  0  0  0.122886  0  3.857845  0  0  0.138013  0  3.86744  0  0  0.159744  0.113114  0  3.851131  0
C  C62  1  0.99169182  0.50637119  0.25588951  1  0  0.010693  0  3.727837  0  0  -0.0236  0  3.989932  0  0  -0.021692  0  4.008677  0  0  0.003456  -0.024817  0  3.977343  0
C  C63  1  0.75264752  0.99380990  0.25589921  1  0  0.00874  0  3.729795  0  0  -0.025792  0  3.991703  0  0  -0.023957  0  4.010382  0  0  0.003397  -0.027014  0  3.979173  0
C  C64  1  0.00830753  0.49362540  0.74411162  1  0  0.010626  0  3.727944  0  0  -0.023668  0  3.990032  0  0  -0.021763  0  4.008772  0  0  0.003412  -0.024881  0  3.977471  0
C  C65  1  0.24735469  0.00618866  0.74410186  1  0  0.008704  0  3.729762  0  0  -0.025808  0  3.991683  0  0  -0.023976  0  4.010359  0  0  0.003383  -0.027027  0  3.979148  0
C  C66  1  0.08915491  0.43171642  0.31807789  1  0  -0.078435  0  3.685424  0  0  -0.116223  0  3.942969  0  0  -0.115097  0  3.962123  0  0  -0.007708  -0.116924  0  3.930022  0
C  C67  1  0.59283120  0.06844707  0.31806097  1  0  -0.07857  0  3.685104  0  0  -0.115829  0  3.942857  0  0  -0.114699  0  3.962015  0  0  -0.009049  -0.116544  0  3.929929  0
C  C68  1  0.91084745  0.56828115  0.68192226  1  0  -0.078488  0  3.685463  0  0  -0.116269  0  3.943005  0  0  -0.115144  0  3.962158  0  0  -0.007693  -0.116966  0  3.930057  0
C  C69  1  0.40717076  0.93155347  0.68193939  1  0  -0.078472  0  3.685023  0  0  -0.115698  0  3.9428  0  0  -0.114565  0  3.961956  0  0  -0.009009  -0.116411  0  3.929868  0
C  C70  1  0.33862383  0.44245591  0.37328311  1  0  0.196933  0  3.754897  0  0  0.188352  0  4.00154  0  0  0.195081  0  4.022981  0  0  0.104592  0.183929  0  3.987125  0
C  C71  1  0.28818160  0.05748095  0.37330252  1  0  0.192693  0  3.75582  0  0  0.184095  0  4.00276  0  0  0.190795  0  4.02423  0  0  0.10104  0.179679  0  3.988334  0
C  C72  1  0.66137418  0.55754563  0.62671824  1  0  0.19678  0  3.754959  0  0  0.188245  0  4.001547  0  0  0.194975  0  4.022988  0  0  0.104588  0.18382  0  3.987132  0
C  C73  1  0.71181757  0.94252257  0.62669670  1  0  0.192652  0  3.755826  0  0  0.184063  0  4.002752  0  0  0.190765  0  4.024218  0  0  0.101054  0.179647  0  3.988324  0
C  C74  1  0.51335317  0.43799630  0.32837837  1  0  -0.126416  0  3.671234  0  0  -0.149408  0  3.924279  0  0  -0.153331  0  3.941942  0  0  -0.078595  -0.146859  0  3.912552  0
C  C75  1  0.15851522  0.06188278  0.32835019  1  0  -0.122794  0  3.670471  0  0  -0.145852  0  3.92341  0  0  -0.149741  0  3.941121  0  0  -0.07606  -0.143374  0  3.911662  0
C  C76  1  0.48664484  0.56200524  0.67162299  1  0  -0.126343  0  3.671278  0  0  -0.149351  0  3.924324  0  0  -0.153274  0  3.941989  0  0  -0.078572  -0.146803  0  3.912603  0
C  C77  1  0.84148453  0.93811876  0.67165067  1  0  -0.122779  0  3.670577  0  0  -0.145831  0  3.923497  0  0  -0.14972  0  3.941208  0  0  -0.076068  -0.143348  0  3.911748  0
C  C78  1  0.64301261  0.37424414  0.37801289  1  0  -0.061083  0  3.726894  0  0  -0.080153  0  3.968977  0  0  -0.080021  0  3.990221  0  0  -0.073685  -0.080021  0  3.954514  0
C  C79  1  0.97911480  0.12556141  0.37800683  1  0  -0.062904  0  3.726604  0  0  -0.081356  0  3.969094  0  0  -0.081267  0  3.990296  0  0  -0.074607  -0.081225  0  3.95465  0
C  C80  1  0.35698658  0.62575641  0.62198775  1  0  -0.061107  0  3.726891  0  0  -0.080201  0  3.968989  0  0  -0.08007  0  3.990236  0  0  -0.073694  -0.080059  0  3.954522  0
C  C81  1  0.02088462  0.87444013  0.62199310  1  0  -0.062871  0  3.7266  0  0  -0.081328  0  3.96908  0  0  -0.081241  0  3.990286  0  0  -0.074611  -0.081205  0  3.954645  0
C  C82  1  0.60031168  0.31876075  0.47256878  1  0  -0.051427  0  3.779222  0  0  -0.034876  0  4.012929  0  0  -0.04196  0  4.037011  0  0  -0.021583  -0.030259  0  3.996722  0
C  C83  1  0.92698971  0.18102871  0.47260012  1  0  -0.051368  0  3.777674  0  0  -0.03593  0  4.012988  0  0  -0.043011  0  4.037086  0  0  -0.023038  -0.031319  0  3.996777  0
C  C84  1  0.39968496  0.68124080  0.52743143  1  0  -0.051446  0  3.779227  0  0  -0.034856  0  4.0129  0  0  -0.04195  0  4.036972  0  0  -0.021606  -0.030246  0  3.996702  0
C  C85  1  0.07300993  0.81897382  0.52739910  1  0  -0.051423  0  3.77764  0  0  -0.035958  0  4.01293  0  0  -0.043051  0  4.03702  0  0  -0.023037  -0.031344  0  3.996718  0
C  C86  1  0.42097629  0.33391042  0.51935305  1  0  -0.056266  0  3.731378  0  0  -0.078113  0  3.980373  0  0  -0.077243  0  4.000047  0  0  -0.077346  -0.07844  0  3.96695  0
C  C87  1  0.05942462  0.16592608  0.51941951  1  0  -0.056662  0  3.727582  0  0  -0.078226  0  3.977229  0  0  -0.077322  0  3.996867  0  0  -0.077801  -0.078563  0  3.963798  0
C  C88  1  0.57901861  0.66609114  0.48064765  1  0  -0.056303  0  3.731374  0  0  -0.078167  0  3.980379  0  0  -0.077299  0  4.000056  0  0  -0.077335  -0.078494  0  3.966948  0
C  C89  1  0.94057360  0.83407942  0.48057971  1  0  -0.056594  0  3.727548  0  0  -0.078152  0  3.977183  0  0  -0.077255  0  3.996832  0  0  -0.077751  -0.078479  0  3.963738  0
C  C90  1  0.29113140  0.39357305  0.46944147  1  0  -0.162282  0  3.755796  0  0  -0.183536  0  4.013607  0  0  -0.188612  0  4.034429  0  0  -0.094177  -0.180222  0  3.999706  0
C  C91  1  0.23929137  0.10635608  0.46948815  1  0  -0.1586  0  3.749478  0  0  -0.179679  0  4.006823  0  0  -0.184776  0  4.027644  0  0  -0.091845  -0.176309  0  3.992929  0
C  C92  1  0.70886524  0.60642850  0.53055874  1  0  -0.162103  0  3.755693  0  0  -0.183371  0  4.013462  0  0  -0.188447  0  4.034284  0  0  -0.094132  -0.180048  0  3.999546  0
C  C93  1  0.76070836  0.89364843  0.53051129  1  0  -0.158582  0  3.749506  0  0  -0.179677  0  4.006861  0  0  -0.184769  0  4.027691  0  0  -0.091858  -0.176311  0  3.992963  0
C  C94  1  0.73599262  0.24988371  0.52772652  1  0  0.373417  0  3.738334  0  0  0.35407  0  4.000675  0  0  0.376695  0  4.003604  0  0  0.15657  0.338498  0  3.998917  0
C  C95  1  0.26400506  0.75011783  0.47227390  1  0  0.373489  0  3.738164  0  0  0.354107  0  4.000539  0  0  0.376775  0  4.003399  0  0  0.156596  0.338531  0  3.998787  0
N  N96  1  0.04749867  0.61169912  0.22133422  1  0  -0.374424  0  3.299927  0  0  -0.295513  0  3.603633  0  0  -0.315534  0  3.615312  0  0  -0.349167  -0.282032  0  3.595509  0
N  N97  1  0.73165034  0.88832535  0.22139177  1  0  -0.376213  0  3.301395  0  0  -0.296519  0  3.604521  0  0  -0.316546  0  3.616169  0  0  -0.349982  -0.283038  0  3.596444  0
N  N98  1  0.95249954  0.38829847  0.77866507  1  0  -0.374425  0  3.299944  0  0  -0.29548  0  3.603603  0  0  -0.315504  0  3.615285  0  0  -0.349137  -0.281998  0  3.595481  0
N  N99  1  0.26835139  0.11167420  0.77860930  1  0  -0.37623  0  3.301374  0  0  -0.296535  0  3.604495  0  0  -0.316567  0  3.616147  0  0  -0.349981  -0.283052  0  3.596419  0
N  N100  1  0.20725208  0.49263750  0.32033084  1  0  -0.097005  0  3.581257  0  0  -0.006639  0  3.792608  0  0  -0.021981  0  3.817201  0  0  -0.227606  0.003554  0  3.775731  0
N  N101  1  0.47261968  0.00736405  0.32035069  1  0  -0.09309  0  3.578977  0  0  -0.002788  0  3.789876  0  0  -0.018109  0  3.814447  0  0  -0.224419  0.0074  0  3.773017  0
N  N102  1  0.79274725  0.50736207  0.67966887  1  0  -0.096918  0  3.581204  0  0  -0.006571  0  3.792541  0  0  -0.021914  0  3.817135  0  0  -0.227612  0.003624  0  3.775661  0
N  N103  1  0.52738148  0.99263748  0.67964875  1  0  -0.093142  0  3.579002  0  0  -0.00285  0  3.789902  0  0  -0.018173  0  3.814472  0  0  -0.224451  0.00734  0  3.773041  0
O  O104  1  0.85753834  0.67723753  0.03570583  1  0  -0.656659  0  1.997498  0  0  -0.5821  0  2.262757  0  0  -0.610458  0  2.246648  0  0  -0.347641  -0.562238  0  2.273153  0
O  O105  1  0.10739575  0.82219448  0.03528999  1  0  -0.656945  0  1.991745  0  0  -0.582587  0  2.257466  0  0  -0.6109  0  2.241255  0  0  -0.347394  -0.562754  0  2.267943  0
O  O106  1  0.14246203  0.32276203  0.96429410  1  0  -0.656634  0  1.997451  0  0  -0.582068  0  2.262696  0  0  -0.610428  0  2.24659  0  0  -0.347625  -0.562207  0  2.273088  0
O  O107  1  0.89260786  0.17780408  0.96470966  1  0  -0.656987  0  1.991771  0  0  -0.582574  0  2.257444  0  0  -0.610891  0  2.241235  0  0  -0.347389  -0.562751  0  2.267921  0
O  O108  1  0.66573497  0.61956507  0.16570523  1  0  -0.644592  0  1.908815  0  0  -0.591452  0  2.129287  0  0  -0.61471  0  2.120074  0  0  -0.329727  -0.575074  0  2.13505  0
O  O109  1  0.16823490  0.88059451  0.16529814  1  0  -0.644121  0  1.907762  0  0  -0.591346  0  2.128951  0  0  -0.614734  0  2.119901  0  0  -0.329711  -0.574873  0  2.134595  0
O  O110  1  0.33426714  0.38043448  0.83429420  1  0  -0.644523  0  1.908786  0  0  -0.591383  0  2.129248  0  0  -0.614633  0  2.120028  0  0  -0.329654  -0.575011  0  2.135013  0
O  O111  1  0.83175705  0.11941398  0.83470094  1  0  -0.644102  0  1.907766  0  0  -0.591364  0  2.129001  0  0  -0.614753  0  2.119952  0  0  -0.32975  -0.574898  0  2.134643  0
O  O112  1  0.68999761  0.24985474  0.61951807  1  0  -0.449409  0  1.967861  0  0  -0.408997  0  2.188926  0  0  -0.427225  0  2.186452  0  0  -0.246026  -0.396477  0  2.190614  0
O  O113  1  0.31000093  0.75014285  0.38048214  1  0  -0.449443  0  1.967769  0  0  -0.409035  0  2.188851  0  0  -0.427277  0  2.186355  0  0  -0.24607  -0.396509  0  2.190536  0
