# generated using pymatgen
data_ZnH32C48N3O4
_symmetry_space_group_name_H-M   'P 1'
_cell_length_a   8.95364338
_cell_length_b   19.58644696
_cell_length_c   25.12033492
_cell_angle_alpha   90.00009557
_cell_angle_beta   95.84333695
_cell_angle_gamma   90.00012330
_symmetry_Int_Tables_number   1
_chemical_formula_structural   ZnH32C48N3O4
_chemical_formula_sum   'Zn4 H128 C192 N12 O16'
_cell_volume   4382.46439651
_cell_formula_units_Z   4
loop_
 _symmetry_equiv_pos_site_id
 _symmetry_equiv_pos_as_xyz
  1  'x, y, z'
loop_
 _atom_site_type_symbol
 _atom_site_label
 _atom_site_symmetry_multiplicity
 _atom_site_fract_x
 _atom_site_fract_y
 _atom_site_fract_z
 _atom_site_occupancy
 _atom_site_pbe_bader_charge
 _atom_site_pbe_bader_spin_density
 _atom_site_pbe_cm5_charge
 _atom_site_pbe_ddec_charge
 _atom_site_pbe_ddec_spin_density
 _atom_site_pbe_ddec_sum_bond_order
 _atom_site_pbe_magmom
Zn  Zn0  1  0.22786066  0.36819504  0.01868808  1  1.256763  0  0.680095  0.7501  0  2.321135  0
Zn  Zn1  1  0.77213727  0.86819664  0.48131120  1  1.256813  0  0.680095  0.750132  0  2.321096  0
Zn  Zn2  1  0.77213864  0.63180515  0.98131187  1  1.256827  0  0.680126  0.750133  0  2.321155  0
Zn  Zn3  1  0.22786202  0.13180558  0.51868835  1  1.25684  0  0.680123  0.75011  0  2.321163  0
H  H4  1  0.29264293  0.22374980  0.99575542  1  0.118113  0  0.117188  0.093444  0  1.031149  0
H  H5  1  0.70735821  0.72375033  0.50424533  1  0.118087  0  0.11722  0.093514  0  1.031121  0
H  H6  1  0.70735525  0.77625038  0.00424409  1  0.118133  0  0.1172  0.093478  0  1.03113  0
H  H7  1  0.29263997  0.27625139  0.49575458  1  0.118057  0  0.117241  0.093515  0  1.031128  0
H  H8  1  0.48854400  0.15291925  0.95880656  1  0.092751  0  0.104728  0.111862  0  1.034218  0
H  H9  1  0.51145789  0.65292119  0.54119493  1  0.092808  0  0.10473  0.111907  0  1.034217  0
H  H10  1  0.51145530  0.84708093  0.04119339  1  0.092747  0  0.104732  0.111884  0  1.034222  0
H  H11  1  0.48854028  0.34708257  0.45880578  1  0.092724  0  0.104699  0.111879  0  1.03424  0
H  H12  1  0.73254000  0.34046638  0.93718425  1  0.089737  0  0.112853  0.122746  0  1.002496  0
H  H13  1  0.26746397  0.84046813  0.56281716  1  0.089745  0  0.112835  0.122735  0  1.00249  0
H  H14  1  0.26746041  0.65953329  0.06281694  1  0.089733  0  0.112841  0.122753  0  1.002475  0
H  H15  1  0.73253869  0.15953614  0.43718291  1  0.089779  0  0.112849  0.122757  0  1.002512  0
H  H16  1  0.52845513  0.40262818  0.97490063  1  0.143628  0  0.123709  0.101346  0  0.980234  0
H  H17  1  0.47154917  0.90262903  0.52509888  1  0.143597  0  0.123703  0.101347  0  0.980219  0
H  H18  1  0.47154528  0.59737251  0.02509976  1  0.143634  0  0.123717  0.101341  0  0.980238  0
H  H19  1  0.52845462  0.09737269  0.47490004  1  0.143658  0  0.123732  0.101387  0  0.980188  0
H  H20  1  0.58590387  0.12400075  0.88641093  1  0.090102  0  0.100001  0.099567  0  1.030663  0
H  H21  1  0.41409563  0.62400071  0.61358924  1  0.090168  0  0.099988  0.099565  0  1.03062  0
H  H22  1  0.41409207  0.87600045  0.11358731  1  0.090157  0  0.099979  0.099559  0  1.030569  0
H  H23  1  0.58590591  0.37600100  0.38640999  1  0.090159  0  0.1  0.099542  0  1.030715  0
H  H24  1  0.78078996  0.04952074  0.85429441  1  0.09484  0  0.102324  0.10844  0  1.027118  0
H  H25  1  0.21920579  0.54952313  0.64570513  1  0.094914  0  0.102352  0.108436  0  1.027153  0
H  H26  1  0.21920597  0.95047893  0.14570462  1  0.094857  0  0.102356  0.10844  0  1.027126  0
H  H27  1  0.78079239  0.45047961  0.35429319  1  0.095714  0  0.102341  0.108481  0  1.027025  0
H  H28  1  0.12284311  0.19104028  0.91682797  1  0.077079  0  0.103489  0.108047  0  1.021025  0
H  H29  1  0.87715675  0.69104216  0.58316951  1  0.077254  0  0.103464  0.10802  0  1.021102  0
H  H30  1  0.87715282  0.80895786  0.08317186  1  0.077166  0  0.103459  0.108011  0  1.02103  0
H  H31  1  0.12284143  0.30895904  0.41682801  1  0.077087  0  0.103468  0.108024  0  1.021085  0
H  H32  1  0.92903980  0.26572144  0.94901086  1  0.088826  0  0.102996  0.104336  0  1.036654  0
H  H33  1  0.07096492  0.76572143  0.55098850  1  0.088645  0  0.103008  0.104348  0  1.03664  0
H  H34  1  0.07095949  0.73427722  0.05098870  1  0.088773  0  0.103012  0.10434  0  1.036609  0
H  H35  1  0.92903550  0.23427977  0.44901110  1  0.088715  0  0.102951  0.104212  0  1.036708  0
H  H36  1  0.12661433  0.94180117  0.83647165  1  0.10021  0  0.102049  0.104562  0  1.043982  0
H  H37  1  0.87338120  0.44180306  0.66352680  1  0.100137  0  0.102008  0.104489  0  1.044051  0
H  H38  1  0.87338272  0.05819799  0.16352862  1  0.100163  0  0.10197  0.104454  0  1.044097  0
H  H39  1  0.12661585  0.55820069  0.33647228  1  0.100323  0  0.102038  0.104527  0  1.043973  0
H  H40  1  0.06779478  0.89497734  0.74593624  1  0.049491  0  0.103481  0.099442  0  1.004689  0
H  H41  1  0.93220499  0.39498153  0.75406270  1  0.049584  0  0.103494  0.099441  0  1.004844  0
H  H42  1  0.93220339  0.10502029  0.25406447  1  0.049542  0  0.103486  0.099426  0  1.00478  0
H  H43  1  0.06779318  0.60502274  0.24593602  1  0.049682  0  0.103512  0.099513  0  1.004674  0
H  H44  1  0.90550163  0.09205565  0.68975828  1  0.060833  0  0.108604  0.110438  0  0.996019  0
H  H45  1  0.09449658  0.59205776  0.81024180  1  0.060792  0  0.108604  0.110386  0  0.996086  0
H  H46  1  0.09449766  0.90794300  0.31024207  1  0.060799  0  0.108593  0.1104  0  0.996093  0
H  H47  1  0.90550496  0.40794294  0.18975823  1  0.060852  0  0.108591  0.110401  0  0.996035  0
H  H48  1  0.96628234  0.13911638  0.78040541  1  0.05283  0  0.107422  0.117492  0  0.991908  0
H  H49  1  0.03371948  0.63911926  0.71959447  1  0.052754  0  0.107405  0.117472  0  0.991964  0
H  H50  1  0.03372032  0.86088227  0.21959547  1  0.052836  0  0.107419  0.117489  0  0.991928  0
H  H51  1  0.96628655  0.36088297  0.28040493  1  0.052827  0  0.107408  0.117457  0  0.99196  0
H  H52  1  0.88809857  0.85869341  0.68423146  1  0.049365  0  0.108873  0.116692  0  0.996801  0
H  H53  1  0.11190215  0.35869641  0.81576667  1  0.049398  0  0.108894  0.116691  0  0.996809  0
H  H54  1  0.11190072  0.14130473  0.31576929  1  0.049414  0  0.108901  0.116711  0  0.996748  0
H  H55  1  0.88809491  0.64130582  0.18423240  1  0.049344  0  0.108888  0.11669  0  0.996796  0
H  H56  1  0.81221686  0.81625934  0.59270314  1  0.073442  0  0.112854  0.077829  0  1.017326  0
H  H57  1  0.18778701  0.31626159  0.90729425  1  0.073484  0  0.112845  0.077809  0  1.017289  0
H  H58  1  0.18778692  0.18373880  0.40729697  1  0.07351  0  0.112873  0.077877  0  1.017337  0
H  H59  1  0.81221454  0.68374064  0.09270419  1  0.073427  0  0.112874  0.07787  0  1.017309  0
H  H60  1  0.88713497  0.00475071  0.52516066  1  0.164819  0  0.124349  0.109826  0  1.006864  0
H  H61  1  0.11286616  0.50475012  0.97483981  1  0.164885  0  0.124369  0.109848  0  1.006817  0
H  H62  1  0.11286544  0.99524947  0.47484053  1  0.164759  0  0.124379  0.109892  0  1.006816  0
H  H63  1  0.88713426  0.49525108  0.02515978  1  0.165077  0  0.124355  0.109839  0  1.006842  0
H  H64  1  0.97445343  0.05454650  0.61253147  1  0.120721  0  0.110672  0.128628  0  1.033563  0
H  H65  1  0.02554683  0.55454820  0.88747022  1  0.120731  0  0.110654  0.128602  0  1.033594  0
H  H66  1  0.02554810  0.94545164  0.38747015  1  0.120721  0  0.110659  0.128611  0  1.033599  0
H  H67  1  0.97445135  0.44545250  0.11252968  1  0.120755  0  0.110657  0.128604  0  1.033583  0
H  H68  1  0.07419984  0.06711994  0.97331722  1  0.072927  0  0.103528  0.11518  0  1.006758  0
H  H69  1  0.92580049  0.56712072  0.52668291  1  0.07291  0  0.103533  0.115157  0  1.006759  0
H  H70  1  0.92580058  0.93287923  0.02668238  1  0.072917  0  0.103531  0.11521  0  1.006754  0
H  H71  1  0.07420329  0.43287997  0.47331760  1  0.07296  0  0.103542  0.11518  0  1.006747  0
H  H72  1  0.28092773  0.03424018  0.03830300  1  0.036506  0  0.098055  0.096023  0  1.032811  0
H  H73  1  0.71907184  0.53423965  0.46169750  1  0.036507  0  0.098041  0.09602  0  1.032769  0
H  H74  1  0.71907044  0.96576102  0.96169810  1  0.036531  0  0.098074  0.096088  0  1.032792  0
H  H75  1  0.28093082  0.46576002  0.53830298  1  0.036494  0  0.098043  0.096018  0  1.032803  0
H  H76  1  0.55209836  0.99064442  0.90945663  1  0.046974  0  0.099108  0.098163  0  1.032802  0
H  H77  1  0.44790527  0.49064216  0.59054457  1  0.047028  0  0.099108  0.098193  0  1.032746  0
H  H78  1  0.44790205  0.00935832  0.09054496  1  0.047239  0  0.0991  0.098166  0  1.032782  0
H  H79  1  0.55209851  0.50935955  0.40945674  1  0.047285  0  0.099124  0.098162  0  1.032845  0
H  H80  1  0.34809419  0.02742514  0.84484932  1  0.057191  0  0.104745  0.117034  0  1.008587  0
H  H81  1  0.65190930  0.52742542  0.65515246  1  0.057144  0  0.104741  0.11702  0  1.008637  0
H  H82  1  0.65190735  0.97257555  0.15515270  1  0.057132  0  0.104751  0.117058  0  1.008592  0
H  H83  1  0.34809336  0.47257885  0.34484881  1  0.057194  0  0.104727  0.117039  0  1.008607  0
H  H84  1  0.74031344  0.36139729  0.07924787  1  0.068337  0  0.105042  0.107804  0  1.005997  0
H  H85  1  0.25968334  0.86139673  0.42074977  1  0.068116  0  0.105049  0.107798  0  1.006037  0
H  H86  1  0.25968248  0.63860443  0.92075196  1  0.068127  0  0.10506  0.107814  0  1.00602  0
H  H87  1  0.74031036  0.13860448  0.57924759  1  0.068358  0  0.105076  0.10787  0  1.005948  0
H  H88  1  0.52685266  0.29940690  0.11345253  1  0.104842  0  0.102674  0.116528  0  1.018699  0
H  H89  1  0.47314492  0.79940750  0.38654545  1  0.104838  0  0.10264  0.116491  0  1.018697  0
H  H90  1  0.47314552  0.70059124  0.88654579  1  0.104824  0  0.102664  0.116549  0  1.018704  0
H  H91  1  0.52685102  0.20059370  0.61345159  1  0.104845  0  0.102655  0.11653  0  1.018739  0
H  H92  1  0.75529694  0.10855768  0.09399144  1  0.043195  0  0.092637  0.093507  0  1.048507  0
H  H93  1  0.24470188  0.60855758  0.40601152  1  0.043202  0  0.092659  0.093542  0  1.048501  0
H  H94  1  0.24470459  0.89144301  0.90600899  1  0.043198  0  0.092639  0.093487  0  1.048526  0
H  H95  1  0.75529853  0.39144311  0.59399007  1  0.043198  0  0.092616  0.093455  0  1.048488  0
H  H96  1  0.96737947  0.17187704  0.05867627  1  0.075776  0  0.100469  0.102685  0  1.012729  0
H  H97  1  0.03262193  0.67187732  0.44132607  1  0.075726  0  0.100453  0.102677  0  1.012767  0
H  H98  1  0.03262431  0.82812365  0.94132465  1  0.075782  0  0.100468  0.102667  0  1.01282  0
H  H99  1  0.96737848  0.32812133  0.55867631  1  0.075789  0  0.100479  0.102635  0  1.01286  0
H  H100  1  0.32123448  0.19711308  0.08123652  1  0.094461  0  0.100191  0.107614  0  1.038081  0
H  H101  1  0.67876817  0.69711292  0.41876470  1  0.094415  0  0.100175  0.107616  0  1.038114  0
H  H102  1  0.67876482  0.80288507  0.91876223  1  0.094464  0  0.100177  0.107635  0  1.038089  0
H  H103  1  0.32123112  0.30288828  0.58123565  1  0.094445  0  0.100206  0.10767  0  1.038075  0
H  H104  1  0.13724983  0.12959134  0.12629453  1  0.049514  0  0.095608  0.092786  0  1.024309  0
H  H105  1  0.86275023  0.62959230  0.37370611  1  0.049495  0  0.095604  0.092755  0  1.02435  0
H  H106  1  0.86275059  0.87040731  0.87370546  1  0.049524  0  0.0956  0.092752  0  1.024303  0
H  H107  1  0.13724794  0.37040993  0.62629459  1  0.049509  0  0.095601  0.09278  0  1.024308  0
H  H108  1  0.21821836  0.06147958  0.20728433  1  0.054506  0  0.090795  0.088548  0  1.069001  0
H  H109  1  0.78178135  0.56148079  0.29271581  1  0.054496  0  0.090786  0.088535  0  1.068959  0
H  H110  1  0.78177981  0.93852010  0.79271597  1  0.054483  0  0.090788  0.088546  0  1.068972  0
H  H111  1  0.21822130  0.43851991  0.70728546  1  0.054459  0  0.090801  0.088581  0  1.069008  0
H  H112  1  0.67512057  0.12320257  0.19553857  1  0.049276  0  0.096091  0.094224  0  1.04365  0
H  H113  1  0.32487946  0.62320285  0.30446206  1  0.049308  0  0.096083  0.094206  0  1.043621  0
H  H114  1  0.32487872  0.87679761  0.80446098  1  0.049259  0  0.096075  0.094208  0  1.043669  0
H  H115  1  0.67512208  0.37679632  0.69553797  1  0.049292  0  0.0961  0.09427  0  1.043626  0
H  H116  1  0.35980456  0.96528526  0.24563281  1  0.04751  0  0.093492  0.092235  0  1.028809  0
H  H117  1  0.64020172  0.46528661  0.25436770  1  0.047528  0  0.093488  0.092259  0  1.028766  0
H  H118  1  0.64019810  0.03471441  0.75436646  1  0.047492  0  0.093505  0.092256  0  1.028838  0
H  H119  1  0.35980992  0.53471358  0.74563351  1  0.047578  0  0.093496  0.092245  0  1.028726  0
H  H120  1  0.45217535  0.90947742  0.33163054  1  0.064875  0  0.102042  0.104582  0  1.009592  0
H  H121  1  0.54783064  0.40947645  0.16837029  1  0.065105  0  0.102037  0.104576  0  1.009556  0
H  H122  1  0.54782506  0.09052327  0.66836946  1  0.064848  0  0.102019  0.104549  0  1.009625  0
H  H123  1  0.45217875  0.59052118  0.83163123  1  0.064801  0  0.10204  0.104603  0  1.00953  0
H  H124  1  0.74188068  0.07987283  0.37237122  1  0.085215  0  0.098559  0.096766  0  1.030878  0
H  H125  1  0.25812250  0.57987113  0.12762907  1  0.085282  0  0.098529  0.096734  0  1.030896  0
H  H126  1  0.25811974  0.92012684  0.62762837  1  0.085214  0  0.098568  0.096785  0  1.030844  0
H  H127  1  0.74188129  0.42012497  0.87237065  1  0.085146  0  0.098544  0.096728  0  1.030891  0
H  H128  1  0.65467005  0.13567812  0.28553629  1  0.056929  0  0.097272  0.095993  0  1.008436  0
H  H129  1  0.34532555  0.63567618  0.21446459  1  0.056944  0  0.097287  0.09607  0  1.00839  0
H  H130  1  0.34532812  0.86432360  0.71446362  1  0.056952  0  0.097283  0.096045  0  1.008405  0
H  H131  1  0.65467150  0.36431992  0.78553568  1  0.056912  0  0.097315  0.09607  0  1.008499  0
C  C132  1  0.39211051  0.24692147  0.98168046  1  0.467228  0  0.037945  0.072403  0  3.982968  0
C  C133  1  0.60789186  0.74692244  0.51832117  1  0.467291  0  0.037947  0.072388  0  3.98306  0
C  C134  1  0.60788766  0.75307769  0.01831945  1  0.46725  0  0.038009  0.072443  0  3.982983  0
C  C135  1  0.39210743  0.25307979  0.48167878  1  0.467264  0  0.037897  0.072334  0  3.983004  0
C  C136  1  0.50079180  0.20823863  0.96043490  1  -0.031321  0  -0.083705  -0.170592  0  3.942934  0
C  C137  1  0.49921149  0.70823903  0.53956711  1  -0.031389  0  -0.083689  -0.170648  0  3.94304  0
C  C138  1  0.49920862  0.79176155  0.03956549  1  -0.031155  0  -0.083733  -0.170655  0  3.942951  0
C  C139  1  0.50078892  0.29176371  0.46043367  1  -0.031258  0  -0.083711  -0.170669  0  3.94305  0
C  C140  1  0.62706361  0.24075300  0.94301025  1  -0.072694  0  0.015226  0.115686  0  3.985924  0
C  C141  1  0.37293874  0.74075330  0.55699017  1  -0.072489  0  0.015227  0.115701  0  3.985994  0
C  C142  1  0.37293569  0.75924770  0.05698890  1  -0.072894  0  0.015207  0.115697  0  3.985937  0
C  C143  1  0.62706056  0.25924944  0.44300938  1  -0.07263  0  0.015216  0.115654  0  3.985983  0
C  C144  1  0.63717060  0.31189710  0.94914839  1  0.012172  0  -0.075726  -0.163578  0  3.923711  0
C  C145  1  0.36283099  0.81189738  0.55085170  1  0.012023  0  -0.075723  -0.163574  0  3.923785  0
C  C146  1  0.36282982  0.68810308  0.05085240  1  0.012193  0  -0.075734  -0.163636  0  3.923722  0
C  C147  1  0.63716718  0.18810433  0.44914741  1  0.011998  0  -0.075699  -0.163558  0  3.923721  0
C  C148  1  0.52288869  0.34717401  0.97055927  1  0.459248  0  0.054821  0.102831  0  3.931612  0
C  C149  1  0.47711419  0.84717538  0.52944211  1  0.459212  0  0.054804  0.102793  0  3.931727  0
C  C150  1  0.47711060  0.65282566  0.02944147  1  0.459207  0  0.05484  0.102881  0  3.931617  0
C  C151  1  0.52288734  0.15282684  0.47055872  1  0.459242  0  0.054802  0.102764  0  3.931693  0
C  C152  1  0.74299615  0.20016425  0.92038396  1  0.05718  0  -0.012875  0.047466  0  4.00536  0
C  C153  1  0.25700374  0.70016500  0.57961672  1  0.05713  0  -0.012872  0.047437  0  4.005405  0
C  C154  1  0.25700315  0.79983594  0.07961519  1  0.057356  0  -0.01287  0.047437  0  4.005415  0
C  C155  1  0.74299443  0.29983825  0.42038319  1  0.0573  0  -0.012836  0.047548  0  4.005217  0
C  C156  1  0.70345231  0.13917253  0.89295178  1  -0.082901  0  -0.08769  -0.10516  0  3.978885  0
C  C157  1  0.29654727  0.63917287  0.60704801  1  -0.08318  0  -0.087692  -0.105208  0  3.978891  0
C  C158  1  0.29654362  0.86082816  0.10704685  1  -0.083351  0  -0.087684  -0.105208  0  3.978758  0
C  C159  1  0.70345315  0.36082935  0.39295039  1  -0.082974  0  -0.087711  -0.105195  0  3.979042  0
C  C160  1  0.81229592  0.09730178  0.87472689  1  -0.031805  0  -0.095131  -0.170535  0  3.9975  0
C  C161  1  0.18770120  0.59730307  0.62527236  1  -0.031593  0  -0.095197  -0.170539  0  3.997725  0
C  C162  1  0.18770001  0.90269892  0.12527174  1  -0.031547  0  -0.095229  -0.170558  0  3.997561  0
C  C163  1  0.81229810  0.40269916  0.37472640  1  -0.03272  0  -0.095182  -0.17066  0  3.997545  0
C  C164  1  0.96421777  0.11572072  0.88354619  1  0.272338  0  0.092257  0.176258  0  4.045627  0
C  C165  1  0.03578281  0.61572184  0.61645361  1  0.272355  0  0.092301  0.176356  0  4.045806  0
C  C166  1  0.03577928  0.88427844  0.11645408  1  0.272331  0  0.092268  0.176262  0  4.045765  0
C  C167  1  0.96421873  0.38427936  0.38354562  1  0.272271  0  0.092318  0.1764  0  4.045612  0
C  C168  1  0.00460180  0.17725211  0.90956891  1  -0.038805  0  -0.093844  -0.170871  0  3.99944  0
C  C169  1  0.99539461  0.67725259  0.59042963  1  -0.03901  0  -0.09383  -0.170901  0  3.99942  0
C  C170  1  0.99539638  0.82274705  0.09043021  1  -0.038894  0  -0.093766  -0.17079  0  3.99933  0
C  C171  1  0.00460244  0.32274861  0.40956865  1  -0.038769  0  -0.09383  -0.170876  0  3.999532  0
C  C172  1  0.89499436  0.21912744  0.92750108  1  -0.036262  0  -0.084613  -0.104886  0  3.980225  0
C  C173  1  0.10500676  0.71912752  0.57249768  1  -0.036073  0  -0.084602  -0.104824  0  3.980091  0
C  C174  1  0.10500719  0.78087121  0.07249856  1  -0.036232  0  -0.084627  -0.104846  0  3.980037  0
C  C175  1  0.89499254  0.28087369  0.42750068  1  -0.036218  0  -0.08461  -0.104793  0  3.980022  0
C  C176  1  0.05071652  0.04376789  0.81475464  1  0.25878  0  0.096482  0.184926  0  4.033609  0
C  C177  1  0.94928705  0.54376904  0.68524637  1  0.258996  0  0.096496  0.185035  0  4.033349  0
C  C178  1  0.94928389  0.95623178  0.18524654  1  0.258795  0  0.096507  0.184994  0  4.033549  0
C  C179  1  0.05071898  0.45623165  0.31475463  1  0.25875  0  0.096508  0.184888  0  4.033617  0
C  C180  1  0.07973132  0.97493321  0.80422959  1  -0.044066  0  -0.096046  -0.174933  0  3.99646  0
C  C181  1  0.92026999  0.47493368  0.69576951  1  -0.044209  0  -0.095996  -0.174837  0  3.996349  0
C  C182  1  0.92027022  0.02506697  0.19577085  1  -0.044039  0  -0.096008  -0.174805  0  3.996468  0
C  C183  1  0.07973268  0.52506701  0.30423016  1  -0.044166  0  -0.096059  -0.174889  0  3.996465  0
C  C184  1  0.04506144  0.94868591  0.75311833  1  0.020774  0  -0.083805  -0.105219  0  3.997823  0
C  C185  1  0.95493973  0.44868806  0.74688232  1  0.020893  0  -0.083825  -0.105208  0  3.997943  0
C  C186  1  0.95493673  0.05131223  0.24688317  1  0.020841  0  -0.083756  -0.10519  0  3.997882  0
C  C187  1  0.04506181  0.55131366  0.25311811  1  0.020616  0  -0.083809  -0.105267  0  3.997826  0
C  C188  1  0.98116974  0.98968916  0.71088243  1  -0.033731  0  -0.012829  0.039315  0  4.011944  0
C  C189  1  0.01882828  0.48969151  0.78911736  1  -0.033769  0  -0.012733  0.039338  0  4.012056  0
C  C190  1  0.01882731  0.01030796  0.28911824  1  -0.033787  0  -0.012744  0.039418  0  4.011918  0
C  C191  1  0.98116990  0.51030919  0.21088215  1  -0.033693  0  -0.012783  0.039323  0  4.011975  0
C  C192  1  0.95552489  0.05895170  0.72161493  1  0.008129  0  -0.079148  -0.094711  0  3.974775  0
C  C193  1  0.04447652  0.55895369  0.77838562  1  0.008022  0  -0.079149  -0.094576  0  3.9748  0
C  C194  1  0.04447553  0.94104593  0.27838546  1  0.008024  0  -0.07916  -0.094693  0  3.974835  0
C  C195  1  0.95552839  0.44104701  0.22161454  1  0.007996  0  -0.079146  -0.094671  0  3.97485  0
C  C196  1  0.98931075  0.08562378  0.77255068  1  -0.015015  0  -0.094327  -0.174153  0  3.998862  0
C  C197  1  0.01069304  0.58562563  0.72744999  1  -0.014972  0  -0.094334  -0.174233  0  3.998764  0
C  C198  1  0.01069079  0.91437538  0.22744935  1  -0.015019  0  -0.094344  -0.174198  0  3.998854  0
C  C199  1  0.98931186  0.41437609  0.27255096  1  -0.01495  0  -0.094361  -0.174125  0  3.998911  0
C  C200  1  0.93850004  0.96124952  0.65742012  1  0.019634  0  0.015311  0.116057  0  3.998291  0
C  C201  1  0.06149783  0.46125151  0.84257963  1  0.019458  0  0.015214  0.115931  0  3.998504  0
C  C202  1  0.06149588  0.03874862  0.34258050  1  0.019537  0  0.015292  0.11602  0  3.998381  0
C  C203  1  0.93850035  0.53875021  0.15741949  1  0.01951  0  0.015247  0.11594  0  3.99843  0
C  C204  1  0.89376386  0.89272252  0.65017166  1  -0.005074  0  -0.087889  -0.184287  0  3.962675  0
C  C205  1  0.10623816  0.39272507  0.84982697  1  -0.005053  0  -0.08794  -0.184324  0  3.962774  0
C  C206  1  0.10623880  0.10727511  0.34982882  1  -0.005008  0  -0.087932  -0.184296  0  3.962654  0
C  C207  1  0.89376114  0.60727766  0.15017219  1  -0.00503  0  -0.087903  -0.184274  0  3.962645  0
C  C208  1  0.84991758  0.86879416  0.59909588  1  0.449573  0  0.038247  0.085039  0  3.985045  0
C  C209  1  0.15008319  0.36879483  0.90090266  1  0.449544  0  0.038295  0.085116  0  3.985021  0
C  C210  1  0.15008171  0.13120551  0.40090487  1  0.449547  0  0.038185  0.08492  0  3.985072  0
C  C211  1  0.84991499  0.63120638  0.09909566  1  0.449576  0  0.038245  0.085  0  3.985031  0
C  C212  1  0.89163795  0.97396482  0.56136708  1  0.462466  0  0.058592  0.120147  0  3.890324  0
C  C213  1  0.10837122  0.47396604  0.93863191  1  0.462533  0  0.058566  0.120133  0  3.890392  0
C  C214  1  0.10836921  0.02603332  0.43863316  1  0.462728  0  0.058567  0.120116  0  3.890341  0
C  C215  1  0.89163033  0.52603568  0.06136693  1  0.462162  0  0.058539  0.12006  0  3.890272  0
C  C216  1  0.93778580  0.00154657  0.61123369  1  0.016511  0  -0.077902  -0.167144  0  3.905419  0
C  C217  1  0.06221195  0.50154779  0.88876586  1  0.01659  0  -0.077888  -0.167116  0  3.905505  0
C  C218  1  0.06221237  0.99845208  0.38876702  1  0.016356  0  -0.077929  -0.167185  0  3.905543  0
C  C219  1  0.93778623  0.49845290  0.11123326  1  0.016613  0  -0.077898  -0.167106  0  3.905438  0
C  C220  1  0.19513196  0.05054264  0.90395624  1  0.273075  0  0.090865  0.180466  0  4.041588  0
C  C221  1  0.80486716  0.55054499  0.59604461  1  0.273086  0  0.090743  0.180319  0  4.041694  0
C  C222  1  0.80486509  0.94945652  0.09604442  1  0.273124  0  0.090925  0.180618  0  4.041707  0
C  C223  1  0.19513326  0.44945928  0.40395538  1  0.273038  0  0.090892  0.180563  0  4.041724  0
C  C224  1  0.17999489  0.05125186  0.95921915  1  0.003826  0  -0.102975  -0.182694  0  4.003168  0
C  C225  1  0.82000648  0.55125257  0.54078100  1  0.003828  0  -0.102944  -0.182553  0  4.003113  0
C  C226  1  0.82000889  0.94874577  0.04078177  1  0.003813  0  -0.102976  -0.182678  0  4.003156  0
C  C227  1  0.17999170  0.44874761  0.45921812  1  0.003793  0  -0.102965  -0.182645  0  4.003171  0
C  C228  1  0.29864613  0.03218367  0.99608093  1  -0.03034  0  -0.091961  -0.110116  0  3.99294  0
C  C229  1  0.70135626  0.53218367  0.50391963  1  -0.030319  0  -0.091995  -0.11023  0  3.992926  0
C  C230  1  0.70135765  0.96781805  0.00391998  1  -0.030272  0  -0.092028  -0.110333  0  3.992982  0
C  C231  1  0.29864415  0.46781702  0.49608037  1  -0.030243  0  -0.09204  -0.110278  0  3.993006  0
C  C232  1  0.43732849  0.01012204  0.98023959  1  -0.022767  0  -0.019077  0.043456  0  4.012312  0
C  C233  1  0.56267380  0.51012143  0.51976053  1  -0.022816  0  -0.019088  0.043475  0  4.012298  0
C  C234  1  0.56267305  0.98987968  0.01976044  1  -0.063177  0  -0.019044  0.043583  0  4.012201  0
C  C235  1  0.43732662  0.48987876  0.48023986  1  -0.063021  0  -0.019052  0.043569  0  4.012241  0
C  C236  1  0.44937665  0.00844021  0.92469840  1  -0.043633  0  -0.09036  -0.116471  0  4.001819  0
C  C237  1  0.55062562  0.50843920  0.57530172  1  -0.04368  0  -0.090289  -0.116413  0  4.00178  0
C  C238  1  0.55062377  0.99156253  0.07530120  1  -0.043835  0  -0.090318  -0.116401  0  4.001731  0
C  C239  1  0.44937592  0.49156303  0.42469831  1  -0.044078  0  -0.090335  -0.116444  0  4.001862  0
C  C240  1  0.33274665  0.02889762  0.88734267  1  0.02974  0  -0.103154  -0.193148  0  4.015574  0
C  C241  1  0.66725572  0.52889630  0.61265788  1  0.029831  0  -0.103168  -0.193126  0  4.015664  0
C  C242  1  0.66725376  0.97110409  0.11265812  1  0.029742  0  -0.103227  -0.19331  0  4.015698  0
C  C243  1  0.33274581  0.47110338  0.38734295  1  0.029732  0  -0.103169  -0.193228  0  4.015733  0
C  C244  1  0.99693865  0.30874056  0.04897051  1  1.484855  0  0.190864  0.5479  0  4.22483  0
C  C245  1  0.00306233  0.80874084  0.45103040  1  1.484821  0  0.190836  0.547904  0  4.225004  0
C  C246  1  0.00306064  0.69126064  0.95103023  1  1.484815  0  0.190805  0.547836  0  4.224898  0
C  C247  1  0.99693584  0.19125833  0.54896912  1  1.484852  0  0.190861  0.547917  0  4.224848  0
C  C248  1  0.86912935  0.27054574  0.06863502  1  -0.020192  0  -0.024849  -0.046089  0  3.998907  0
C  C249  1  0.13086807  0.77054610  0.43136531  1  -0.020044  0  -0.02482  -0.046158  0  3.998969  0
C  C250  1  0.13086770  0.72945444  0.93136525  1  -0.020082  0  -0.024815  -0.046111  0  3.998975  0
C  C251  1  0.86913010  0.22945460  0.56863420  1  -0.020036  0  -0.024838  -0.046139  0  3.99892  0
C  C252  1  0.74334089  0.30595640  0.08331482  1  -0.018973  0  -0.08412  -0.088022  0  3.982162  0
C  C253  1  0.25665447  0.80595737  0.41668468  1  -0.018797  0  -0.084141  -0.087974  0  3.982178  0
C  C254  1  0.25665391  0.69404378  0.91668536  1  -0.018778  0  -0.08413  -0.087963  0  3.982188  0
C  C255  1  0.74334259  0.19404435  0.58331439  1  -0.018978  0  -0.084167  -0.088108  0  3.982192  0
C  C256  1  0.62424735  0.27105468  0.10251485  1  -0.018854  0  -0.091693  -0.137327  0  3.955414  0
C  C257  1  0.37574895  0.77105725  0.39748505  1  -0.018853  0  -0.091659  -0.137303  0  3.955363  0
C  C258  1  0.37574858  0.72894193  0.89748458  1  -0.018859  0  -0.091659  -0.137322  0  3.955393  0
C  C259  1  0.62424810  0.22894395  0.60251363  1  -0.018896  0  -0.091713  -0.137369  0  3.955494  0
C  C260  1  0.63022706  0.19975284  0.10847524  1  -0.070745  0  -0.004322  0.078946  0  3.987785  0
C  C261  1  0.36977111  0.69975488  0.39152622  1  -0.070486  0  -0.004307  0.078955  0  3.987553  0
C  C262  1  0.36976999  0.80024428  0.89152463  1  -0.070406  0  -0.004347  0.078795  0  3.987611  0
C  C263  1  0.63022482  0.30024531  0.60847321  1  -0.070528  0  -0.004314  0.078961  0  3.987644  0
C  C264  1  0.75414948  0.16420789  0.09205190  1  -0.041426  0  -0.099056  -0.145752  0  3.986777  0
C  C265  1  0.24585076  0.66420831  0.40794999  1  -0.042089  0  -0.099116  -0.145868  0  3.986931  0
C  C266  1  0.24584870  0.83579178  0.90794721  1  -0.041663  0  -0.099064  -0.14566  0  3.986671  0
C  C267  1  0.75414965  0.33579136  0.59205160  1  -0.041415  0  -0.09907  -0.145745  0  3.986772  0
C  C268  1  0.87182734  0.19913259  0.07206322  1  -0.053488  0  -0.089264  -0.091944  0  3.999196  0
C  C269  1  0.12817308  0.69913294  0.42793872  1  -0.053193  0  -0.089204  -0.091825  0  3.999291  0
C  C270  1  0.12817308  0.80086657  0.92793756  1  -0.053678  0  -0.089246  -0.091918  0  3.99925  0
C  C271  1  0.87182509  0.30086725  0.57206199  1  -0.053902  0  -0.089236  -0.091806  0  3.999324  0
C  C272  1  0.51270545  0.16248928  0.13425822  1  -0.047095  0  -0.006871  0.074723  0  4.009359  0
C  C273  1  0.48729366  0.66248883  0.36574322  1  -0.047044  0  -0.006865  0.07478  0  4.009114  0
C  C274  1  0.48729161  0.83750835  0.86574045  1  -0.046598  0  -0.006893  0.074823  0  4.009161  0
C  C275  1  0.51270451  0.33750982  0.63425669  1  -0.046805  0  -0.006871  0.074744  0  4.009215  0
C  C276  1  0.35970440  0.16537077  0.11551472  1  0.010776  0  -0.090181  -0.129848  0  3.947792  0
C  C277  1  0.64029697  0.66537102  0.38448682  1  0.010719  0  -0.090222  -0.129951  0  3.947945  0
C  C278  1  0.64029265  0.83462839  0.88448515  1  0.010405  0  -0.090192  -0.129966  0  3.94775  0
C  C279  1  0.35970232  0.33463018  0.61551313  1  0.010822  0  -0.090199  -0.129912  0  3.947834  0
C  C280  1  0.25595679  0.12740674  0.14114988  1  -0.078224  0  -0.097878  -0.079513  0  4.044428  0
C  C281  1  0.74404438  0.62740806  0.35885120  1  -0.078282  0  -0.097853  -0.079429  0  4.044584  0
C  C282  1  0.74404250  0.87259242  0.85884927  1  -0.07828  0  -0.097828  -0.079381  0  4.044343  0
C  C283  1  0.25595715  0.37259366  0.64115043  1  -0.078229  0  -0.097874  -0.079489  0  4.044508  0
C  C284  1  0.30143267  0.08862541  0.18654094  1  -0.059935  0  -0.100538  -0.149009  0  3.993835  0
C  C285  1  0.69856943  0.58862760  0.31345933  1  -0.05983  0  -0.10054  -0.149  0  3.993849  0
C  C286  1  0.69856551  0.91137427  0.81345857  1  -0.059394  0  -0.100566  -0.149072  0  3.993865  0
C  C287  1  0.30143435  0.41137463  0.68654159  1  -0.059925  0  -0.100541  -0.149062  0  3.993934  0
C  C288  1  0.45289426  0.08812158  0.20771134  1  -0.014789  0  -0.012295  0.069548  0  4.021962  0
C  C289  1  0.54710784  0.58812205  0.29228893  1  -0.014978  0  -0.01232  0.069474  0  4.022101  0
C  C290  1  0.54710279  0.91188013  0.79228813  1  -0.015054  0  -0.012242  0.069608  0  4.021946  0
C  C291  1  0.45289706  0.41187762  0.70771243  1  -0.014872  0  -0.012305  0.069569  0  4.021962  0
C  C292  1  0.55673351  0.12405359  0.18022488  1  -0.046027  0  -0.091875  -0.183345  0  3.945968  0
C  C293  1  0.44326877  0.62405402  0.31977664  1  -0.045808  0  -0.091846  -0.183302  0  3.945928  0
C  C294  1  0.44326579  0.87594710  0.81977508  1  -0.046255  0  -0.091862  -0.183372  0  3.946019  0
C  C295  1  0.55673277  0.37594616  0.68022260  1  -0.04615  0  -0.091878  -0.183425  0  3.945958  0
C  C296  1  0.50246619  0.05410069  0.25898504  1  -0.080682  0  -0.010756  0.067685  0  4.005616  0
C  C297  1  0.49753348  0.55409998  0.24101549  1  -0.080488  0  -0.010768  0.06774  0  4.005649  0
C  C298  1  0.49753310  0.94590001  0.74101452  1  -0.080717  0  -0.010784  0.067727  0  4.005657  0
C  C299  1  0.50247142  0.44589918  0.75898586  1  -0.080731  0  -0.010751  0.067678  0  4.005743  0
C  C300  1  0.44414990  0.99074580  0.27316820  1  -0.036352  0  -0.095564  -0.135722  0  3.986323  0
C  C301  1  0.55585090  0.49074496  0.22683174  1  -0.036507  0  -0.095557  -0.135815  0  3.986313  0
C  C302  1  0.55584827  0.00925541  0.72683211  1  -0.03635  0  -0.095584  -0.1358  0  3.986471  0
C  C303  1  0.44415513  0.50925420  0.77316885  1  -0.036332  0  -0.095525  -0.135671  0  3.986308  0
C  C304  1  0.49488753  0.95946149  0.32149885  1  -0.010882  0  -0.086657  -0.092515  0  3.978898  0
C  C305  1  0.50511536  0.45946100  0.17850034  1  -0.011166  0  -0.086655  -0.092509  0  3.978878  0
C  C306  1  0.50511513  0.04053921  0.67850083  1  -0.010885  0  -0.086664  -0.092503  0  3.97898  0
C  C307  1  0.49489405  0.54053816  0.82149919  1  -0.010848  0  -0.086683  -0.092598  0  3.978855  0
C  C308  1  0.65845973  0.05541095  0.34405225  1  -0.074231  0  -0.088947  -0.097377  0  4.009884  0
C  C309  1  0.34153883  0.55540888  0.15594943  1  -0.074159  0  -0.08898  -0.097384  0  4.009953  0
C  C310  1  0.34153956  0.94458924  0.65594849  1  -0.074202  0  -0.088972  -0.097392  0  4.009842  0
C  C311  1  0.65846496  0.44458824  0.84405148  1  -0.074237  0  -0.088991  -0.097415  0  4.009867  0
C  C312  1  0.61062867  0.08581914  0.29536182  1  0.01802  0  -0.095839  -0.136449  0  4.002937  0
C  C313  1  0.38937117  0.58581876  0.20463876  1  0.017973  0  -0.095813  -0.136534  0  4.002921  0
C  C314  1  0.38937287  0.91418104  0.70463862  1  0.017996  0  -0.095837  -0.136531  0  4.002895  0
C  C315  1  0.61063037  0.41417938  0.79536207  1  0.018007  0  -0.095856  -0.136527  0  4.00306  0
C  C316  1  0.60233630  0.99169662  0.35753682  1  -0.056724  0  -0.017652  -0.02196  0  3.965586  0
C  C317  1  0.39766788  0.49169596  0.14246246  1  -0.056767  0  -0.017647  -0.021917  0  3.965641  0
C  C318  1  0.39766187  0.00830407  0.64246429  1  -0.056729  0  -0.017653  -0.021963  0  3.965593  0
C  C319  1  0.60233927  0.50830218  0.85753699  1  -0.05665  0  -0.017635  -0.02182  0  3.965443  0
C  C320  1  0.66177537  0.95998651  0.40971291  1  1.579633  0  0.193504  0.559285  0  4.236986  0
C  C321  1  0.33822752  0.45998619  0.09028747  1  1.579686  0  0.193615  0.559466  0  4.236885  0
C  C322  1  0.33822954  0.04001265  0.59028645  1  1.579747  0  0.193483  0.559276  0  4.236935  0
C  C323  1  0.66178076  0.54001195  0.90971242  1  1.579627  0  0.19358  0.559305  0  4.237054  0
N  N324  1  0.07553669  0.07130435  0.86678458  1  -1.20257  0  -0.252639  -0.147918  0  3.677911  0
N  N325  1  0.92446366  0.57130587  0.63321595  1  -1.202637  0  -0.252606  -0.148026  0  3.677941  0
N  N326  1  0.92446036  0.92869532  0.13321608  1  -1.202606  0  -0.252696  -0.148086  0  3.678044  0
N  N327  1  0.07553900  0.42869584  0.36678413  1  -1.202542  0  -0.25266  -0.147961  0  3.677952  0
N  N328  1  0.40190581  0.31526772  0.98649979  1  -1.251824  0  -0.332673  -0.244265  0  3.586174  0
N  N329  1  0.59809467  0.81526918  0.51350066  1  -1.251849  0  -0.332679  -0.244273  0  3.586238  0
N  N330  1  0.59809124  0.68473195  0.01350007  1  -1.251825  0  -0.332708  -0.2443  0  3.586268  0
N  N331  1  0.40190575  0.18473305  0.48649893  1  -1.251796  0  -0.33263  -0.244166  0  3.586241  0
N  N332  1  0.84741387  0.90845776  0.55507698  1  -1.276045  0  -0.331192  -0.240303  0  3.580344  0
N  N333  1  0.15258710  0.40845750  0.94492202  1  -1.275929  0  -0.331127  -0.240218  0  3.580466  0
N  N334  1  0.15258879  0.09154140  0.44492390  1  -1.276072  0  -0.331123  -0.240207  0  3.580354  0
N  N335  1  0.84741333  0.59154370  0.05507638  1  -1.276099  0  -0.33111  -0.240121  0  3.580297  0
O  O336  1  0.10922277  0.27543289  0.03377633  1  -1.187305  0  -0.333097  -0.562484  0  2.225422  0
O  O337  1  0.89077804  0.77543356  0.46622493  1  -1.187297  0  -0.333064  -0.562469  0  2.225506  0
O  O338  1  0.89077652  0.72456882  0.96622402  1  -1.187363  0  -0.333105  -0.562507  0  2.225453  0
O  O339  1  0.10922125  0.22456713  0.53377622  1  -1.187273  0  -0.33306  -0.562452  0  2.2254  0
O  O340  1  0.99339322  0.37351188  0.04716669  1  -1.121568  0  -0.313405  -0.538074  0  2.213868  0
O  O341  1  0.00660361  0.87351216  0.45283295  1  -1.121568  0  -0.313415  -0.538083  0  2.21395  0
O  O342  1  0.00660607  0.62648933  0.95283445  1  -1.121494  0  -0.313364  -0.538007  0  2.213871  0
O  O343  1  0.99339344  0.12648701  0.54716691  1  -1.121609  0  -0.313418  -0.538072  0  2.213866  0
O  O344  1  0.65672555  0.89388213  0.41214688  1  -1.176989  0  -0.337303  -0.547635  0  2.274491  0
O  O345  1  0.34327363  0.39388181  0.08785208  1  -1.176989  0  -0.337294  -0.547673  0  2.274493  0
O  O346  1  0.34327263  0.10611754  0.58785184  1  -1.17695  0  -0.337277  -0.54762  0  2.274502  0
O  O347  1  0.65672679  0.60611633  0.91214751  1  -1.1769  0  -0.337286  -0.547596  0  2.274525  0
O  O348  1  0.71604070  0.99700708  0.44772355  1  -1.182151  0  -0.328392  -0.562599  0  2.114915  0
O  O349  1  0.28396462  0.49700764  0.05227776  1  -1.182169  0  -0.328458  -0.562695  0  2.11497  0
O  O350  1  0.28395634  0.00299311  0.55227711  1  -1.182263  0  -0.328379  -0.562583  0  2.114945  0
O  O351  1  0.71604365  0.50299203  0.94772371  1  -1.182214  0  -0.328485  -0.562729  0  2.11503  0
