# generated using pymatgen
data_Sm2H9C18(NO4)3
_symmetry_space_group_name_H-M   'P 1'
_cell_length_a   6.52736033
_cell_length_b   7.65056362
_cell_length_c   18.19325775
_cell_angle_alpha   90.00000645
_cell_angle_beta   90.20758697
_cell_angle_gamma   89.99999176
_symmetry_Int_Tables_number   1
_chemical_formula_structural   Sm2H9C18(NO4)3
_chemical_formula_sum   'Sm4 H18 C36 N6 O24'
_cell_volume   908.52867766
_cell_formula_units_Z   2
loop_
 _symmetry_equiv_pos_site_id
 _symmetry_equiv_pos_as_xyz
  1  'x, y, z'
loop_
 _atom_site_type_symbol
 _atom_site_label
 _atom_site_symmetry_multiplicity
 _atom_site_fract_x
 _atom_site_fract_y
 _atom_site_fract_z
 _atom_site_occupancy
 _atom_site_hle17_bader_spin_density
 _atom_site_hle17_ddec_charge
 _atom_site_hle17_ddec_spin_density
 _atom_site_hle17_ddec_sum_bond_order
 _atom_site_hle17_magmom
 _atom_site_hse06_10hf_bader_spin_density
 _atom_site_hse06_10hf_ddec_charge
 _atom_site_hse06_10hf_ddec_spin_density
 _atom_site_hse06_10hf_ddec_sum_bond_order
 _atom_site_hse06_10hf_magmom
 _atom_site_hse06_bader_spin_density
 _atom_site_hse06_ddec_charge
 _atom_site_hse06_ddec_spin_density
 _atom_site_hse06_ddec_sum_bond_order
 _atom_site_hse06_magmom
 _atom_site_pbe_bader_spin_density
 _atom_site_pbe_cm5_charge
 _atom_site_pbe_ddec_charge
 _atom_site_pbe_ddec_spin_density
 _atom_site_pbe_ddec_sum_bond_order
 _atom_site_pbe_magmom
Sm  Sm0  1  0.55710039  0.40443564  0.89591094  1  0  2.354368  0  1.642299  0  0  2.261501  0  2.00981  0  0  2.305745  0  1.961224  0  0  1.539277  2.229313  0  2.043899  0
Sm  Sm1  1  0.94289809  0.40443689  0.60408897  1  0  2.354352  0  1.642297  0  0  2.261484  0  2.009803  0  0  2.30573  0  1.961219  0  0  1.539289  2.229299  0  2.043892  0
Sm  Sm2  1  0.44289907  0.59556395  0.10408883  1  0  2.354384  0  1.642272  0  0  2.261523  0  2.009776  0  0  2.305763  0  1.961194  0  0  1.539308  2.229337  0  2.043868  0
Sm  Sm3  1  0.05710289  0.59556271  0.39591136  1  0  2.354337  0  1.642337  0  0  2.261462  0  2.009849  0  0  2.30571  0  1.961262  0  0  1.53927  2.229277  0  2.043937  0
H  H4  1  0.22469296  0.00756154  0.13705435  1  0  0.151675  0  0.97876  0  0  0.156831  0  1.042095  0  0  0.162423  0  1.038875  0  0  0.116432  0.152835  0  1.044584  0
H  H5  1  0.27530757  0.00756026  0.36294580  1  0  0.151655  0  0.978751  0  0  0.156842  0  1.042057  0  0  0.162435  0  1.038837  0  0  0.116452  0.152846  0  1.044545  0
H  H6  1  0.77530805  0.99243675  0.86294432  1  0  0.151727  0  0.978718  0  0  0.156895  0  1.042041  0  0  0.162487  0  1.038819  0  0  0.116462  0.152899  0  1.044531  0
H  H7  1  0.72469186  0.99243934  0.63705507  1  0  0.151689  0  0.978709  0  0  0.156858  0  1.04205  0  0  0.162451  0  1.038828  0  0  0.116442  0.152863  0  1.044538  0
H  H8  1  0.63117661  0.00171879  0.03128250  1  0  0.130863  0  0.957618  0  0  0.138656  0  1.023367  0  0  0.143631  0  1.020308  0  0  0.117571  0.135053  0  1.025932  0
H  H9  1  0.86882517  0.00171884  0.46871805  1  0  0.130843  0  0.957616  0  0  0.138646  0  1.023377  0  0  0.143622  0  1.020319  0  0  0.117569  0.135042  0  1.025941  0
H  H10  1  0.36881978  0.99828080  0.96871726  1  0  0.130838  0  0.957654  0  0  0.138638  0  1.023407  0  0  0.143612  0  1.020346  0  0  0.117557  0.135034  0  1.025971  0
H  H11  1  0.13117733  0.99828076  0.53128283  1  0  0.130863  0  0.957626  0  0  0.138668  0  1.023379  0  0  0.143644  0  1.020317  0  0  0.117579  0.135066  0  1.02594  0
H  H12  1  0.53202883  0.81224742  0.81264351  1  0  0.144933  0  0.982978  0  0  0.151228  0  1.045664  0  0  0.15643  0  1.043083  0  0  0.113105  0.14752  0  1.047651  0
H  H13  1  0.96797112  0.81224738  0.68735588  1  0  0.144907  0  0.982991  0  0  0.151203  0  1.045677  0  0  0.156406  0  1.043096  0  0  0.11311  0.147497  0  1.047664  0
H  H14  1  0.46797216  0.18775218  0.18735627  1  0  0.144907  0  0.982988  0  0  0.151204  0  1.045668  0  0  0.156406  0  1.043087  0  0  0.113113  0.147496  0  1.047655  0
H  H15  1  0.03202833  0.18775353  0.31264444  1  0  0.144888  0  0.982998  0  0  0.151181  0  1.045688  0  0  0.156383  0  1.043108  0  0  0.113102  0.147474  0  1.047675  0
H  H16  1  0.92347575  0.47556100  0.07999202  1  0  0.321176  0  0.895351  0  0  0.296124  0  0.966873  0  0  0.306554  0  0.956978  0  0  0.325728  0.28865  0  0.974141  0
H  H17  1  0.57652596  0.47556237  0.42000800  1  0  0.32118  0  0.895329  0  0  0.296125  0  0.966847  0  0  0.306555  0  0.956951  0  0  0.325725  0.288651  0  0.974114  0
H  H18  1  0.07652525  0.52443860  0.92000720  1  0  0.321184  0  0.895322  0  0  0.296125  0  0.966848  0  0  0.306555  0  0.956951  0  0  0.325709  0.288649  0  0.974118  0
H  H19  1  0.42347501  0.52443854  0.57999288  1  0  0.321193  0  0.895308  0  0  0.296127  0  0.966837  0  0  0.306558  0  0.956941  0  0  0.325715  0.288655  0  0.974102  0
H  H20  1  0.25000015  0.28359618  0.75000004  1  0  0.321037  0  0.897476  0  0  0.297372  0  0.966473  0  0  0.307643  0  0.956745  0  0  0.324169  0.290024  0  0.973561  0
H  H21  1  0.75000083  0.71640472  0.25000029  1  0  0.321056  0  0.897478  0  0  0.297389  0  0.966472  0  0  0.30766  0  0.956742  0  0  0.32417  0.290041  0  0.97356  0
C  C22  1  0.75799218  0.25646342  0.05283363  1  0  0.570724  0  3.860838  0  0  0.532986  0  4.145975  0  0  0.557848  0  4.151111  0  0  0.213319  0.516274  0  4.142069  0
C  C23  1  0.74201109  0.25646609  0.44716639  1  0  0.570727  0  3.860945  0  0  0.532985  0  4.146093  0  0  0.557849  0  4.151228  0  0  0.213306  0.516272  0  4.142185  0
C  C24  1  0.24200729  0.74353487  0.94716559  1  0  0.570652  0  3.860854  0  0  0.532892  0  4.146022  0  0  0.557756  0  4.151157  0  0  0.213236  0.51618  0  4.142114  0
C  C25  1  0.25798988  0.74353482  0.55283449  1  0  0.570651  0  3.860942  0  0  0.532873  0  4.146132  0  0  0.557739  0  4.151265  0  0  0.213249  0.516162  0  4.142222  0
C  C26  1  0.09646587  0.26157420  0.11120715  1  0  0.606427  0  3.81737  0  0  0.571583  0  4.093162  0  0  0.598806  0  4.095371  0  0  0.229571  0.553328  0  4.091169  0
C  C27  1  0.40353615  0.26157160  0.38879302  1  0  0.60643  0  3.817334  0  0  0.571575  0  4.093158  0  0  0.598798  0  4.095369  0  0  0.229563  0.553322  0  4.091159  0
C  C28  1  0.90353514  0.73842670  0.88879153  1  0  0.60651  0  3.817238  0  0  0.571647  0  4.093074  0  0  0.59887  0  4.09528  0  0  0.22957  0.553393  0  4.09108  0
C  C29  1  0.59646482  0.73842799  0.61120785  1  0  0.606451  0  3.817398  0  0  0.571589  0  4.093224  0  0  0.598812  0  4.095433  0  0  0.229553  0.553337  0  4.091228  0
C  C30  1  0.09535189  0.07755639  0.11325591  1  0  -0.273076  0  3.638823  0  0  -0.303239  0  3.893226  0  0  -0.317146  0  3.911949  0  0  -0.101686  -0.294376  0  3.880956  0
C  C31  1  0.40464861  0.07755640  0.38674535  1  0  -0.273078  0  3.638769  0  0  -0.303284  0  3.893209  0  0  -0.317193  0  3.911931  0  0  -0.101757  -0.29442  0  3.880934  0
C  C32  1  0.90464607  0.92244190  0.88674221  1  0  -0.273099  0  3.638712  0  0  -0.3033  0  3.893184  0  0  -0.317209  0  3.911909  0  0  -0.101695  -0.294434  0  3.88091  0
C  C33  1  0.59535234  0.92243927  0.61325663  1  0  -0.27306  0  3.638797  0  0  -0.303282  0  3.893283  0  0  -0.31719  0  3.912007  0  0  -0.101707  -0.294419  0  3.881009  0
C  C34  1  0.75933644  0.07428599  0.05398096  1  0  -0.291089  0  3.697881  0  0  -0.323277  0  3.962287  0  0  -0.338059  0  3.983156  0  0  -0.105908  -0.313791  0  3.948523  0
C  C35  1  0.74066533  0.07428474  0.44601959  1  0  -0.291094  0  3.697806  0  0  -0.323328  0  3.962263  0  0  -0.338119  0  3.983141  0  0  -0.105928  -0.313839  0  3.948491  0
C  C36  1  0.24066609  0.92571360  0.94601882  1  0  -0.290995  0  3.697772  0  0  -0.323184  0  3.962167  0  0  -0.337968  0  3.983044  0  0  -0.105872  -0.313699  0  3.948404  0
C  C37  1  0.25933410  0.92571486  0.55398183  1  0  -0.291017  0  3.697877  0  0  -0.323224  0  3.962294  0  0  -0.338005  0  3.983164  0  0  -0.105863  -0.313738  0  3.948527  0
C  C38  1  0.92944862  0.98735205  0.08411148  1  0  0.025915  0  3.783336  0  0  0.039814  0  4.016206  0  0  0.043105  0  4.037689  0  0  0.000254  0.038026  0  4.001424  0
C  C39  1  0.57055299  0.98735342  0.41588911  1  0  0.02593  0  3.783259  0  0  0.03984  0  4.016145  0  0  0.043132  0  4.037619  0  0  0.000272  0.038053  0  4.001358  0
C  C40  1  0.07055237  0.01264755  0.91588830  1  0  0.025859  0  3.783193  0  0  0.039767  0  4.016074  0  0  0.043049  0  4.037573  0  0  0.000227  0.037977  0  4.001292  0
C  C41  1  0.42944644  0.01264879  0.58411230  1  0  0.025829  0  3.783334  0  0  0.03976  0  4.016213  0  0  0.043043  0  4.037711  0  0  0.000226  0.037974  0  4.001426  0
C  C42  1  0.93613748  0.79074170  0.08459814  1  0  0.731262  0  3.807982  0  0  0.69408  0  4.082901  0  0  0.727959  0  4.070601  0  0  0.24736  0.671038  0  4.090621  0
C  C43  1  0.56386415  0.79074176  0.41540299  1  0  0.731252  0  3.807989  0  0  0.694094  0  4.082868  0  0  0.727981  0  4.07055  0  0  0.247408  0.671051  0  4.090581  0
C  C44  1  0.06386354  0.20925921  0.91540053  1  0  0.731276  0  3.808032  0  0  0.694115  0  4.082908  0  0  0.728007  0  4.070578  0  0  0.247397  0.671076  0  4.090625  0
C  C45  1  0.43613527  0.20925783  0.58459843  1  0  0.731305  0  3.807919  0  0  0.694137  0  4.082798  0  0  0.728028  0  4.070471  0  0  0.247382  0.671094  0  4.090512  0
C  C46  1  0.40757574  0.06680561  0.78701349  1  0  0.589181  0  3.842869  0  0  0.555968  0  4.117038  0  0  0.582066  0  4.121478  0  0  0.21842  0.538495  0  4.113434  0
C  C47  1  0.09242461  0.06680693  0.71298602  1  0  0.589152  0  3.84278  0  0  0.555945  0  4.116939  0  0  0.582043  0  4.121379  0  0  0.218435  0.538471  0  4.113333  0
C  C48  1  0.59242525  0.93319268  0.21298628  1  0  0.589128  0  3.842804  0  0  0.555955  0  4.116908  0  0  0.582053  0  4.121347  0  0  0.218443  0.538491  0  4.11329  0
C  C49  1  0.90757484  0.93319397  0.28701375  1  0  0.589112  0  3.842854  0  0  0.555896  0  4.117033  0  0  0.581992  0  4.121474  0  0  0.218414  0.538422  0  4.113427  0
C  C50  1  0.40945426  0.88349969  0.78535298  1  0  -0.295453  0  3.677085  0  0  -0.323128  0  3.930457  0  0  -0.338428  0  3.951433  0  0  -0.11339  -0.313208  0  3.916484  0
C  C51  1  0.09054441  0.88349839  0.71464711  1  0  -0.295275  0  3.677059  0  0  -0.322955  0  3.930432  0  0  -0.338254  0  3.951408  0  0  -0.113323  -0.313035  0  3.916458  0
C  C52  1  0.59054519  0.11650383  0.21464733  1  0  -0.295261  0  3.677037  0  0  -0.322946  0  3.930399  0  0  -0.338243  0  3.951374  0  0  -0.113334  -0.313029  0  3.916421  0
C  C53  1  0.90945503  0.11650251  0.28535376  1  0  -0.295201  0  3.676998  0  0  -0.322884  0  3.930383  0  0  -0.338183  0  3.951361  0  0  -0.113325  -0.312963  0  3.916407  0
C  C54  1  0.24999859  0.79534541  0.74999949  1  0  0.019978  0  3.790722  0  0  0.031739  0  4.029568  0  0  0.035092  0  4.051225  0  0  -0.005689  0.029921  0  4.014636  0
C  C55  1  0.74999934  0.20465550  0.25000027  1  0  0.019875  0  3.790821  0  0  0.031631  0  4.029673  0  0  0.034984  0  4.051333  0  0  -0.00572  0.029815  0  4.014739  0
C  C56  1  0.25000013  0.59905006  0.75000004  1  0  0.750952  0  3.771643  0  0  0.712232  0  4.049909  0  0  0.746827  0  4.035669  0  0  0.251044  0.688663  0  4.05894  0
C  C57  1  0.74999932  0.40095084  0.25000028  1  0  0.750985  0  3.771568  0  0  0.712269  0  4.049821  0  0  0.746865  0  4.035581  0  0  0.251078  0.6887  0  4.058853  0
N  N58  1  0.92666093  0.34088464  0.08078029  1  0  -0.455414  0  3.302048  0  0  -0.389832  0  3.525636  0  0  -0.410341  0  3.530138  0  0  -0.370737  -0.376185  0  3.522668  0
N  N59  1  0.57334080  0.34088471  0.41921972  1  0  -0.45549  0  3.30218  0  0  -0.389871  0  3.525737  0  0  -0.410384  0  3.530244  0  0  -0.370775  -0.376223  0  3.522764  0
N  N60  1  0.07333855  0.65911365  0.91921838  1  0  -0.455477  0  3.302005  0  0  -0.389848  0  3.525562  0  0  -0.410363  0  3.530069  0  0  -0.370711  -0.376201  0  3.522592  0
N  N61  1  0.42666017  0.65911619  0.58078116  1  0  -0.455489  0  3.302106  0  0  -0.389823  0  3.525636  0  0  -0.410338  0  3.530145  0  0  -0.370732  -0.376177  0  3.522663  0
N  N62  1  0.25000016  0.14905315  0.75000003  1  0  -0.466225  0  3.292944  0  0  -0.401112  0  3.514134  0  0  -0.421735  0  3.518607  0  0  -0.37366  -0.387333  0  3.511104  0
N  N63  1  0.75000081  0.85094775  0.25000029  1  0  -0.466264  0  3.293032  0  0  -0.401153  0  3.5142  0  0  -0.421776  0  3.518674  0  0  -0.373668  -0.387376  0  3.511167  0
O  O64  1  0.61024425  0.35579205  0.02637772  1  0  -0.865568  0  2.075949  0  0  -0.825882  0  2.356393  0  0  -0.846922  0  2.340764  0  0  -0.461846  -0.810595  0  2.366547  0
O  O65  1  0.88975441  0.35579079  0.47362228  1  0  -0.865481  0  2.076017  0  0  -0.825778  0  2.356445  0  0  -0.846817  0  2.340815  0  0  -0.461757  -0.81049  0  2.3666  0
O  O66  1  0.38975520  0.64420754  0.97362260  1  0  -0.865506  0  2.075913  0  0  -0.825811  0  2.356361  0  0  -0.84685  0  2.340732  0  0  -0.461789  -0.810527  0  2.366519  0
O  O67  1  0.11024504  0.64420881  0.52637804  1  0  -0.865451  0  2.075984  0  0  -0.825776  0  2.356499  0  0  -0.846819  0  2.340872  0  0  -0.461766  -0.810486  0  2.366648  0
O  O68  1  0.24338257  0.35830302  0.13480052  1  0  -0.7491  0  2.03288  0  0  -0.710391  0  2.29022  0  0  -0.732078  0  2.276057  0  0  -0.43454  -0.694937  0  2.299471  0
O  O69  1  0.25661943  0.35830305  0.36519965  1  0  -0.749099  0  2.03287  0  0  -0.710383  0  2.290218  0  0  -0.732071  0  2.276053  0  0  -0.43453  -0.694929  0  2.299466  0
O  O70  1  0.75661843  0.64169658  0.86519871  1  0  -0.749154  0  2.032852  0  0  -0.710439  0  2.290211  0  0  -0.732125  0  2.276045  0  0  -0.434548  -0.694984  0  2.299462  0
O  O71  1  0.74338155  0.64169786  0.63480067  1  0  -0.749115  0  2.032897  0  0  -0.710398  0  2.290253  0  0  -0.732086  0  2.276088  0  0  -0.43453  -0.694943  0  2.299501  0
O  O72  1  0.10601767  0.71434084  0.09602053  1  0  -0.741451  0  2.050019  0  0  -0.698128  0  2.299384  0  0  -0.721371  0  2.285823  0  0  -0.392914  -0.68195  0  2.308385  0
O  O73  1  0.39398580  0.71433825  0.40397967  1  0  -0.74146  0  2.050032  0  0  -0.698135  0  2.299384  0  0  -0.721383  0  2.285816  0  0  -0.392926  -0.68196  0  2.308386  0
O  O74  1  0.89398333  0.28565876  0.90397870  1  0  -0.741482  0  2.050088  0  0  -0.698163  0  2.299438  0  0  -0.72141  0  2.285867  0  0  -0.392921  -0.681987  0  2.30843  0
O  O75  1  0.60601517  0.28566135  0.59602121  1  0  -0.741472  0  2.050042  0  0  -0.698153  0  2.299408  0  0  -0.721401  0  2.285839  0  0  -0.392908  -0.681976  0  2.308407  0
O  O76  1  0.77093767  0.70686030  0.07241488  1  0  -0.7511  0  2.061597  0  0  -0.712652  0  2.321381  0  0  -0.735642  0  2.306976  0  0  -0.395999  -0.696452  0  2.330729  0
O  O77  1  0.72906399  0.70686035  0.42758570  1  0  -0.751072  0  2.06157  0  0  -0.712631  0  2.321337  0  0  -0.735625  0  2.306927  0  0  -0.396021  -0.696444  0  2.330713  0
O  O78  1  0.22906027  0.29313799  0.92758433  1  0  -0.751107  0  2.061665  0  0  -0.712661  0  2.321438  0  0  -0.735658  0  2.307027  0  0  -0.396027  -0.69645  0  2.330751  0
O  O79  1  0.27093392  0.29314055  0.57241517  1  0  -0.751095  0  2.061481  0  0  -0.712648  0  2.321252  0  0  -0.735642  0  2.306839  0  0  -0.396033  -0.696462  0  2.330626  0
O  O80  1  0.54003690  0.16234498  0.82136977  1  0  -0.766723  0  2.047137  0  0  -0.725727  0  2.305046  0  0  -0.748439  0  2.291923  0  0  -0.443832  -0.709433  0  2.313375  0
O  O81  1  0.95996315  0.16234624  0.67863014  1  0  -0.766744  0  2.047124  0  0  -0.725743  0  2.305025  0  0  -0.74846  0  2.29191  0  0  -0.443858  -0.709446  0  2.313351  0
O  O82  1  0.45996410  0.83765462  0.17862946  1  0  -0.766712  0  2.047133  0  0  -0.725733  0  2.305032  0  0  -0.748449  0  2.291916  0  0  -0.443852  -0.70944  0  2.313356  0
O  O83  1  0.04003783  0.83765466  0.32137019  1  0  -0.76673  0  2.047124  0  0  -0.725728  0  2.305031  0  0  -0.748445  0  2.291916  0  0  -0.443842  -0.70943  0  2.313357  0
O  O84  1  0.35572942  0.51850306  0.79823959  1  0  -0.750484  0  2.024742  0  0  -0.706704  0  2.274195  0  0  -0.730118  0  2.259369  0  0  -0.398156  -0.690323  0  2.284014  0
O  O85  1  0.14426932  0.51850436  0.70175993  1  0  -0.750468  0  2.024699  0  0  -0.70669  0  2.274161  0  0  -0.730105  0  2.259336  0  0  -0.398161  -0.690306  0  2.28398  0
O  O86  1  0.64427003  0.48149654  0.20176018  1  0  -0.750468  0  2.024683  0  0  -0.706693  0  2.274143  0  0  -0.730109  0  2.259317  0  0  -0.398154  -0.690311  0  2.283964  0
O  O87  1  0.85573166  0.48149785  0.29824039  1  0  -0.75052  0  2.024684  0  0  -0.706734  0  2.27413  0  0  -0.730151  0  2.259303  0  0  -0.39819  -0.69035  0  2.283949  0
