# generated using pymatgen
data_FeH16C16(SN5)2
_symmetry_space_group_name_H-M   'P 1'
_cell_length_a   9.13570815
_cell_length_b   9.02751048
_cell_length_c   13.53458395
_cell_angle_alpha   89.99888705
_cell_angle_beta   90.00202449
_cell_angle_gamma   120.39682602
_symmetry_Int_Tables_number   1
_chemical_formula_structural   FeH16C16(SN5)2
_chemical_formula_sum   'Fe2 H32 C32 S4 N20'
_cell_volume   962.79810998
_cell_formula_units_Z   2
loop_
 _symmetry_equiv_pos_site_id
 _symmetry_equiv_pos_as_xyz
  1  'x, y, z'
loop_
 _atom_site_type_symbol
 _atom_site_label
 _atom_site_symmetry_multiplicity
 _atom_site_fract_x
 _atom_site_fract_y
 _atom_site_fract_z
 _atom_site_occupancy
 _atom_site_hle17_bader_spin_density
 _atom_site_hle17_ddec_charge
 _atom_site_hle17_ddec_spin_density
 _atom_site_hle17_ddec_sum_bond_order
 _atom_site_hle17_magmom
 _atom_site_hse06_10hf_bader_spin_density
 _atom_site_hse06_10hf_ddec_charge
 _atom_site_hse06_10hf_ddec_spin_density
 _atom_site_hse06_10hf_ddec_sum_bond_order
 _atom_site_hse06_10hf_magmom
 _atom_site_hse06_bader_spin_density
 _atom_site_hse06_ddec_charge
 _atom_site_hse06_ddec_spin_density
 _atom_site_hse06_ddec_sum_bond_order
 _atom_site_hse06_magmom
 _atom_site_pbe_bader_spin_density
 _atom_site_pbe_cm5_charge
 _atom_site_pbe_ddec_charge
 _atom_site_pbe_ddec_spin_density
 _atom_site_pbe_ddec_sum_bond_order
 _atom_site_pbe_magmom
Fe  Fe0  1  0.99970793  0.00000216  0.00000002  1  0  0.533491  0  2.947683  0  0  0.487878  0  3.433817  0  0  0.548352  0  3.368123  0  0  0.66792  0.453096  0  3.473523  0
Fe  Fe1  1  0.50037550  0.99999715  0.49999788  1  0  0.533428  0  2.947696  0  0  0.487872  0  3.433807  0  0  0.548346  0  3.368111  0  0  0.667982  0.453079  0  3.473614  0
H  H2  1  0.72222103  0.05486133  0.13422067  1  0  0.100014  0  0.957145  0  0  0.101253  0  1.035585  0  0  0.103482  0  1.032437  0  0  0.127968  0.099512  0  1.03818  0
H  H3  1  0.77776785  0.94512706  0.63422212  1  0  0.099872  0  0.957283  0  0  0.101119  0  1.035703  0  0  0.10335  0  1.032552  0  0  0.127894  0.099378  0  1.038299  0
H  H4  1  0.83263885  0.05487243  0.36577916  1  0  0.099858  0  0.957239  0  0  0.101097  0  1.035683  0  0  0.103328  0  1.032532  0  0  0.127883  0.099358  0  1.03828  0
H  H5  1  0.66736016  0.94512369  0.86578316  1  0  0.099845  0  0.957258  0  0  0.101141  0  1.035641  0  0  0.103373  0  1.032491  0  0  0.127903  0.0994  0  1.038236  0
H  H6  1  0.27778227  0.94518127  0.86577485  1  0  0.099798  0  0.957299  0  0  0.101073  0  1.035731  0  0  0.103295  0  1.032599  0  0  0.127851  0.09934  0  1.038311  0
H  H7  1  0.22223111  0.05482581  0.36577414  1  0  0.099818  0  0.957262  0  0  0.101088  0  1.035689  0  0  0.103308  0  1.032561  0  0  0.127847  0.099353  0  1.038272  0
H  H8  1  0.16740756  0.94518432  0.63422671  1  0  0.09982  0  0.957304  0  0  0.101125  0  1.035698  0  0  0.103345  0  1.032572  0  0  0.127855  0.099394  0  1.038278  0
H  H9  1  0.33259840  0.05482795  0.13422123  1  0  0.099781  0  0.957294  0  0  0.101054  0  1.035718  0  0  0.103275  0  1.032587  0  0  0.127845  0.099317  0  1.038302  0
H  H10  1  0.68307128  0.59364738  0.03105954  1  0  0.100052  0  0.971079  0  0  0.109776  0  1.031496  0  0  0.110958  0  1.031719  0  0  0.115449  0.108954  0  1.0315  0
H  H11  1  0.81689356  0.40632244  0.53104814  1  0  0.100102  0  0.971049  0  0  0.1098  0  1.031502  0  0  0.110982  0  1.031725  0  0  0.115439  0.108977  0  1.031505  0
H  H12  1  0.41058131  0.59366099  0.46894343  1  0  0.100094  0  0.971084  0  0  0.109832  0  1.031465  0  0  0.111013  0  1.031688  0  0  0.115458  0.109009  0  1.03147  0
H  H13  1  0.08943666  0.40632852  0.96895103  1  0  0.100052  0  0.971064  0  0  0.109746  0  1.031542  0  0  0.110928  0  1.031766  0  0  0.115411  0.108924  0  1.031546  0
H  H14  1  0.31697841  0.40640377  0.96891604  1  0  0.100112  0  0.971217  0  0  0.109813  0  1.031663  0  0  0.110993  0  1.031889  0  0  0.115455  0.108996  0  1.031658  0
H  H15  1  0.18304057  0.59360713  0.46892226  1  0  0.100007  0  0.971271  0  0  0.109701  0  1.031749  0  0  0.110879  0  1.031979  0  0  0.115385  0.108884  0  1.031742  0
H  H16  1  0.58942048  0.40640558  0.53108608  1  0  0.100078  0  0.971216  0  0  0.109788  0  1.03165  0  0  0.110966  0  1.031877  0  0  0.115444  0.108968  0  1.03164  0
H  H17  1  0.91055881  0.59361447  0.03107405  1  0  0.099989  0  0.971286  0  0  0.109693  0  1.031735  0  0  0.110872  0  1.031962  0  0  0.11542  0.108874  0  1.031729  0
H  H18  1  0.40253365  0.51324686  0.14816266  1  0  0.113357  0  0.989082  0  0  0.118709  0  1.059985  0  0  0.120427  0  1.05953  0  0  0.114376  0.117487  0  1.060379  0
H  H19  1  0.09742846  0.48673701  0.64815463  1  0  0.113325  0  0.989033  0  0  0.11869  0  1.059899  0  0  0.120407  0  1.05945  0  0  0.114369  0.117468  0  1.060296  0
H  H20  1  0.61071092  0.51326090  0.35184113  1  0  0.113425  0  0.988955  0  0  0.118742  0  1.059892  0  0  0.120462  0  1.059435  0  0  0.114429  0.117519  0  1.060288  0
H  H21  1  0.88930751  0.48674155  0.85184297  1  0  0.113363  0  0.98904  0  0  0.118726  0  1.059913  0  0  0.120447  0  1.059456  0  0  0.114388  0.117502  0  1.06031  0
H  H22  1  0.59754224  0.48678865  0.85182252  1  0  0.113351  0  0.989289  0  0  0.118663  0  1.060234  0  0  0.120369  0  1.059796  0  0  0.114369  0.117448  0  1.060617  0
H  H23  1  0.90246124  0.51320893  0.35182463  1  0  0.113363  0  0.989278  0  0  0.11868  0  1.060201  0  0  0.120389  0  1.059763  0  0  0.114361  0.117466  0  1.060586  0
H  H24  1  0.38924040  0.48679683  0.64817804  1  0  0.113376  0  0.989247  0  0  0.118691  0  1.06017  0  0  0.120398  0  1.059733  0  0  0.114378  0.117478  0  1.060551  0
H  H25  1  0.11073453  0.51321652  0.14817324  1  0  0.113154  0  0.989349  0  0  0.118471  0  1.060315  0  0  0.120177  0  1.059876  0  0  0.114224  0.117257  0  1.060701  0
H  H26  1  0.35286900  0.70570603  0.27120266  1  0  0.08799  0  0.942389  0  0  0.093912  0  1.016291  0  0  0.094949  0  1.015623  0  0  0.124585  0.092952  0  1.017119  0
H  H27  1  0.14711673  0.29429109  0.77120272  1  0  0.087894  0  0.942524  0  0  0.093915  0  1.016348  0  0  0.094949  0  1.015683  0  0  0.12453  0.092955  0  1.017176  0
H  H28  1  0.85283256  0.70571490  0.22879797  1  0  0.087882  0  0.942584  0  0  0.093885  0  1.016433  0  0  0.094921  0  1.015768  0  0  0.12454  0.092922  0  1.017259  0
H  H29  1  0.64717663  0.29429770  0.72879582  1  0  0.087935  0  0.942395  0  0  0.093941  0  1.016256  0  0  0.094978  0  1.015591  0  0  0.124519  0.092978  0  1.01708  0
H  H30  1  0.46643705  0.93287026  0.25109997  1  0  0.096995  0  0.948287  0  0  0.105079  0  1.015924  0  0  0.104758  0  1.016925  0  0  0.132613  0.105047  0  1.015543  0
H  H31  1  0.03355976  0.06713021  0.75110100  1  0  0.096977  0  0.948286  0  0  0.105103  0  1.015942  0  0  0.104783  0  1.016945  0  0  0.132616  0.105074  0  1.015558  0
H  H32  1  0.96642723  0.93287303  0.24890043  1  0  0.096939  0  0.948302  0  0  0.105043  0  1.015956  0  0  0.104723  0  1.016957  0  0  0.132609  0.105013  0  1.015573  0
H  H33  1  0.53357430  0.06712822  0.74889924  1  0  0.096966  0  0.948298  0  0  0.105098  0  1.015948  0  0  0.104779  0  1.016952  0  0  0.132624  0.105067  0  1.015567  0
C  C34  1  0.67675696  0.91975852  0.12044319  1  0  0.154814  0  3.606021  0  0  0.094487  0  3.878633  0  0  0.10952  0  3.890665  0  0  0.141829  0.084039  0  3.870936  0
C  C35  1  0.82322868  0.08022354  0.62043835  1  0  0.154871  0  3.605816  0  0  0.094623  0  3.878422  0  0  0.109663  0  3.890443  0  0  0.141927  0.084166  0  3.870747  0
C  C36  1  0.74300692  0.91977338  0.37955870  1  0  0.154982  0  3.605799  0  0  0.094664  0  3.878429  0  0  0.109704  0  3.890454  0  0  0.141954  0.084206  0  3.870754  0
C  C37  1  0.75699500  0.08022492  0.87956338  1  0  0.154908  0  3.605835  0  0  0.094572  0  3.878439  0  0  0.109607  0  3.890466  0  0  0.141911  0.084124  0  3.870746  0
C  C38  1  0.32326820  0.08029083  0.87954420  1  0  0.154723  0  3.606478  0  0  0.094563  0  3.87924  0  0  0.109552  0  3.891312  0  0  0.141781  0.084156  0  3.871493  0
C  C39  1  0.17674069  0.91971479  0.37954239  1  0  0.154689  0  3.606631  0  0  0.094545  0  3.879389  0  0  0.109532  0  3.891469  0  0  0.141809  0.084143  0  3.871646  0
C  C40  1  0.25702522  0.08029574  0.62045455  1  0  0.154666  0  3.606841  0  0  0.094478  0  3.879559  0  0  0.109463  0  3.891641  0  0  0.141748  0.084078  0  3.871817  0
C  C41  1  0.24297517  0.91971931  0.12045210  1  0  0.15479  0  3.606362  0  0  0.094644  0  3.879105  0  0  0.109637  0  3.89117  0  0  0.141849  0.084237  0  3.871361  0
C  C42  1  0.65042962  0.67781827  0.06960135  1  0  -0.005469  0  3.734357  0  0  -0.036139  0  4.00098  0  0  -0.033745  0  4.021632  0  0  -0.001663  -0.038032  0  3.987326  0
C  C43  1  0.84953105  0.32214651  0.56959329  1  0  -0.005301  0  3.734159  0  0  -0.035872  0  4.000725  0  0  -0.033481  0  4.021374  0  0  -0.001479  -0.037765  0  3.987081  0
C  C44  1  0.52739181  0.67784115  0.43040153  1  0  -0.005486  0  3.734292  0  0  -0.036141  0  4.000908  0  0  -0.033746  0  4.021557  0  0  -0.001595  -0.038037  0  3.987264  0
C  C45  1  0.97262040  0.32215583  0.93040451  1  0  -0.005148  0  3.734182  0  0  -0.035753  0  4.000713  0  0  -0.033362  0  4.021366  0  0  -0.001437  -0.037647  0  3.987065  0
C  C46  1  0.34964041  0.32225465  0.93037201  1  0  -0.005593  0  3.735147  0  0  -0.035996  0  4.001812  0  0  -0.033624  0  4.022496  0  0  -0.001529  -0.037867  0  3.988119  0
C  C47  1  0.15036715  0.67774811  0.43036751  1  0  -0.005382  0  3.735608  0  0  -0.03579  0  4.002239  0  0  -0.033422  0  4.02293  0  0  -0.001437  -0.037655  0  3.988543  0
C  C48  1  0.47261071  0.32226055  0.56963463  1  0  -0.005429  0  3.735031  0  0  -0.03586  0  4.001685  0  0  -0.033492  0  4.022376  0  0  -0.00144  -0.037719  0  3.987982  0
C  C49  1  0.02737359  0.67776400  0.06962501  1  0  -0.005496  0  3.735421  0  0  -0.035908  0  4.002028  0  0  -0.033539  0  4.022709  0  0  -0.001573  -0.037775  0  3.988334  0
C  C50  1  0.50873473  0.63553790  0.12483548  1  0  -0.066835  0  3.685223  0  0  -0.108889  0  3.948378  0  0  -0.107694  0  3.968185  0  0  -0.002694  -0.109442  0  3.934906  0
C  C51  1  0.99123022  0.36444091  0.62482580  1  0  -0.06688  0  3.685384  0  0  -0.108931  0  3.948551  0  0  -0.107733  0  3.968351  0  0  -0.00263  -0.109487  0  3.935082  0
C  C52  1  0.62679787  0.63555329  0.37516892  1  0  -0.066891  0  3.685157  0  0  -0.108924  0  3.948359  0  0  -0.107728  0  3.968162  0  0  -0.002752  -0.109479  0  3.934889  0
C  C53  1  0.87320791  0.36444532  0.87517491  1  0  -0.067085  0  3.685308  0  0  -0.109139  0  3.948492  0  0  -0.107944  0  3.968294  0  0  -0.002762  -0.109691  0  3.93502  0
C  C54  1  0.49135032  0.36451066  0.87515339  1  0  -0.067195  0  3.685352  0  0  -0.109173  0  3.94843  0  0  -0.107973  0  3.968248  0  0  -0.00288  -0.109719  0  3.93493  0
C  C55  1  0.00866211  0.63549112  0.37515569  1  0  -0.067331  0  3.685688  0  0  -0.109303  0  3.948771  0  0  -0.108107  0  3.968591  0  0  -0.002899  -0.109852  0  3.935275  0
C  C56  1  0.37315616  0.36451736  0.62484729  1  0  -0.067288  0  3.685136  0  0  -0.109256  0  3.948232  0  0  -0.108059  0  3.96805  0  0  -0.002903  -0.109805  0  3.934732  0
C  C57  1  0.12681915  0.63549893  0.12483983  1  0  -0.066902  0  3.685606  0  0  -0.108857  0  3.948661  0  0  -0.107654  0  3.96848  0  0  -0.002579  -0.10941  0  3.935166  0
C  C58  1  0.40361957  0.80721610  0.21509598  1  0  0.095135  0  3.611933  0  0  0.023355  0  3.846106  0  0  0.032438  0  3.856223  0  0  0.059997  0.017372  0  3.839428  0
C  C59  1  0.09637006  0.19278547  0.71509540  1  0  0.095279  0  3.612048  0  0  0.023223  0  3.846569  0  0  0.032302  0  3.856705  0  0  0.060054  0.017237  0  3.839891  0
C  C60  1  0.90359005  0.80721615  0.28490456  1  0  0.095342  0  3.611957  0  0  0.023418  0  3.846231  0  0  0.0325  0  3.856353  0  0  0.060061  0.017436  0  3.839549  0
C  C61  1  0.59641284  0.19278323  0.78490472  1  0  0.095291  0  3.611878  0  0  0.023213  0  3.846428  0  0  0.032284  0  3.856573  0  0  0.060073  0.017234  0  3.839742  0
C  C62  1  0.11168046  0.22344296  0.18804483  1  0  0.236586  0  4.043548  0  0  0.230437  0  4.346208  0  0  0.254885  0  4.354305  0  0  0.119739  0.213985  0  4.340799  0
C  C63  1  0.38832617  0.77655557  0.68803702  1  0  0.236712  0  4.043793  0  0  0.230562  0  4.346491  0  0  0.255014  0  4.354576  0  0  0.119733  0.214118  0  4.34112  0
C  C64  1  0.61176911  0.22344215  0.31196146  1  0  0.23658  0  4.043752  0  0  0.230431  0  4.346437  0  0  0.254877  0  4.354541  0  0  0.119609  0.21399  0  4.341057  0
C  C65  1  0.88824460  0.77655645  0.81195956  1  0  0.236588  0  4.043614  0  0  0.230444  0  4.346285  0  0  0.254892  0  4.354372  0  0  0.119778  0.213991  0  4.340876  0
S  S66  1  0.15975202  0.31946701  0.29495830  1  0  -0.400252  0  1.985803  0  0  -0.386796  0  2.272961  0  0  -0.395389  0  2.263518  0  0  -0.198984  -0.38093  0  2.279955  0
S  S67  1  0.34024076  0.68053975  0.79495502  1  0  -0.400312  0  1.985725  0  0  -0.386857  0  2.272862  0  0  -0.395451  0  2.263418  0  0  -0.198999  -0.381  0  2.279874  0
S  S68  1  0.65970458  0.31946355  0.20504420  1  0  -0.400255  0  1.985685  0  0  -0.386793  0  2.272838  0  0  -0.395387  0  2.263396  0  0  -0.198975  -0.380935  0  2.279847  0
S  S69  1  0.84029581  0.68053895  0.70504092  1  0  -0.400303  0  1.985658  0  0  -0.386843  0  2.272787  0  0  -0.395439  0  2.263343  0  0  -0.198998  -0.380974  0  2.279779  0
N  N70  1  0.52684625  0.78963964  0.15624683  1  0  -0.084792  0  3.576053  0  0  0.004487  0  3.798462  0  0  -0.010876  0  3.824161  0  0  -0.246254  0.014733  0  3.780925  0
N  N71  1  0.97314094  0.21035604  0.65624830  1  0  -0.084618  0  3.575837  0  0  0.004682  0  3.79832  0  0  -0.010677  0  3.824015  0  0  -0.246253  0.014924  0  3.78079  0
N  N72  1  0.76279345  0.78964883  0.34375225  1  0  -0.084767  0  3.575863  0  0  0.00453  0  3.798322  0  0  -0.010832  0  3.824017  0  0  -0.246251  0.014772  0  3.780793  0
N  N73  1  0.73721278  0.21035451  0.84375330  1  0  -0.084533  0  3.575738  0  0  0.004795  0  3.798215  0  0  -0.010564  0  3.823916  0  0  -0.246214  0.015039  0  3.780676  0
N  N74  1  0.47320715  0.21038976  0.84374796  1  0  -0.084774  0  3.57597  0  0  0.004669  0  3.798249  0  0  -0.010703  0  3.823973  0  0  -0.246118  0.014924  0  3.780688  0
N  N75  1  0.02679959  0.78961182  0.34374649  1  0  -0.084636  0  3.575711  0  0  0.004748  0  3.797999  0  0  -0.010632  0  3.823725  0  0  -0.246077  0.015008  0  3.780436  0
N  N76  1  0.23718219  0.21039520  0.65625288  1  0  -0.084731  0  3.575894  0  0  0.004685  0  3.798202  0  0  -0.010693  0  3.823929  0  0  -0.246108  0.014943  0  3.78064  0
N  N77  1  0.26280429  0.78960897  0.15625331  1  0  -0.08468  0  3.575543  0  0  0.004622  0  3.797879  0  0  -0.010754  0  3.823596  0  0  -0.246189  0.01488  0  3.78032  0
N  N78  1  0.75450141  0.85432399  0.06841634  1  0  -0.271188  0  3.271513  0  0  -0.221259  0  3.55462  0  0  -0.247784  0  3.574227  0  0  -0.32363  -0.203122  0  3.540628  0
N  N79  1  0.74546815  0.14563835  0.56840808  1  0  -0.271163  0  3.272033  0  0  -0.221449  0  3.555408  0  0  -0.247969  0  3.574997  0  0  -0.323951  -0.203318  0  3.541459  0
N  N80  1  0.59983286  0.85435266  0.43159080  1  0  -0.271063  0  3.271859  0  0  -0.221186  0  3.555063  0  0  -0.24771  0  3.574659  0  0  -0.323793  -0.203048  0  3.541105  0
N  N81  1  0.90018084  0.14564959  0.93158842  1  0  -0.271342  0  3.271788  0  0  -0.221512  0  3.555052  0  0  -0.248028  0  3.574647  0  0  -0.323838  -0.203388  0  3.541081  0
N  N82  1  0.24557266  0.14578740  0.93153707  1  0  -0.271084  0  3.269669  0  0  -0.221724  0  3.553115  0  0  -0.248206  0  3.572774  0  0  -0.323175  -0.2036  0  3.539092  0
N  N83  1  0.25443889  0.85421806  0.43153203  1  0  -0.271272  0  3.269756  0  0  -0.221918  0  3.553212  0  0  -0.248391  0  3.572864  0  0  -0.323256  -0.203793  0  3.539201  0
N  N84  1  0.40021302  0.14579657  0.56846901  1  0  -0.271323  0  3.269675  0  0  -0.221898  0  3.553042  0  0  -0.248369  0  3.572694  0  0  -0.323225  -0.203775  0  3.539032  0
N  N85  1  0.09978524  0.85423829  0.06846031  1  0  -0.271213  0  3.269797  0  0  -0.221818  0  3.553204  0  0  -0.248296  0  3.572855  0  0  -0.323252  -0.203698  0  3.539188  0
N  N86  1  0.07553096  0.15126583  0.11058626  1  0  -0.462615  0  3.213283  0  0  -0.43428  0  3.523031  0  0  -0.45385  0  3.521397  0  0  -0.423039  -0.422806  0  3.523694  0
N  N87  1  0.42450221  0.84873311  0.61058207  1  0  -0.46268  0  3.213638  0  0  -0.434338  0  3.523353  0  0  -0.453908  0  3.521721  0  0  -0.423006  -0.422875  0  3.52407  0
N  N88  1  0.57576093  0.15126309  0.38941567  1  0  -0.462596  0  3.213625  0  0  -0.434246  0  3.523332  0  0  -0.453816  0  3.521694  0  0  -0.4229  -0.422782  0  3.524049  0
N  N89  1  0.92426207  0.84873428  0.88941370  1  0  -0.462554  0  3.213396  0  0  -0.434226  0  3.523156  0  0  -0.453803  0  3.521541  0  0  -0.423053  -0.422752  0  3.523819  0
