# generated using pymatgen
data_CuH9(CN)7
_symmetry_space_group_name_H-M   'P 1'
_cell_length_a   5.79257482
_cell_length_b   9.83194232
_cell_length_c   9.33756209
_cell_angle_alpha   80.25724260
_cell_angle_beta   78.30485493
_cell_angle_gamma   86.02428657
_symmetry_Int_Tables_number   1
_chemical_formula_structural   CuH9(CN)7
_chemical_formula_sum   'Cu2 H18 C14 N14'
_cell_volume   512.90638222
_cell_formula_units_Z   2
loop_
 _symmetry_equiv_pos_site_id
 _symmetry_equiv_pos_as_xyz
  1  'x, y, z'
loop_
 _atom_site_type_symbol
 _atom_site_label
 _atom_site_symmetry_multiplicity
 _atom_site_fract_x
 _atom_site_fract_y
 _atom_site_fract_z
 _atom_site_occupancy
 _atom_site_hle17_ddec_charge
 _atom_site_hle17_ddec_spin_density
 _atom_site_hle17_ddec_sum_bond_order
 _atom_site_hle17_magmom
 _atom_site_hse06_10hf_ddec_charge
 _atom_site_hse06_10hf_ddec_spin_density
 _atom_site_hse06_10hf_ddec_sum_bond_order
 _atom_site_hse06_10hf_magmom
 _atom_site_hse06_ddec_charge
 _atom_site_hse06_ddec_spin_density
 _atom_site_hse06_ddec_sum_bond_order
 _atom_site_hse06_magmom
 _atom_site_pbe_cm5_charge
 _atom_site_pbe_ddec_charge
 _atom_site_pbe_ddec_spin_density
 _atom_site_pbe_ddec_sum_bond_order
 _atom_site_pbe_magmom
Cu  Cu0  1  0.21676761  0.52855383  0.07001986  1  0.758825  -0.501923  2.01693  -0.338  0.779224  -0.699486  2.428859  -0.53  0.879052  -0.82135  2.35192  -0.645  0.760749  0.727776  -0.594279  2.474559  -0.442
Cu  Cu1  1  0.78321320  0.47146364  0.92997094  1  0.75874  0.501883  2.016835  0.338  0.779083  0.69946  2.428785  0.53  0.879062  0.821333  2.351659  0.645  0.760657  0.7276  0.594233  2.474468  0.441
H  H2  1  0.88704625  0.77933636  0.50113361  1  0.102484  -0.000125  0.975294  -0.001  0.110578  -0.000299  1.040152  -0.001  0.113435  -0.000204  1.039662  0.0  0.103021  0.108593  -0.000309  1.040534  -0.001
H  H3  1  0.11300507  0.22062835  0.49888121  1  0.102333  0.000124  0.975263  0.001  0.110401  0.000299  1.04017  0.001  0.113261  0.000204  1.03968  0.0  0.102892  0.108416  0.000308  1.040555  0.001
H  H4  1  0.20698698  0.95029037  0.44399479  1  0.09702  -0.000253  0.930297  -0.001  0.112686  -1e-05  0.984602  0.0  0.114715  4.4e-05  0.98307  0.0  0.110794  0.1109  -2.4e-05  0.985939  0.0
H  H5  1  0.79305685  0.04967977  0.55603846  1  0.097324  0.000254  0.930323  0.001  0.112982  1e-05  0.984589  0.0  0.115016  -4.3e-05  0.983049  0.0  0.1109  0.111192  2.4e-05  0.985931  0.0
H  H6  1  0.52066590  0.75338447  0.06914863  1  0.077146  -0.000935  0.971991  -0.001  0.081455  -0.000935  1.047772  -0.001  0.082886  -0.000703  1.047228  -0.001  0.111806  0.079861  -0.001025  1.04881  -0.001
H  H7  1  0.47933978  0.24663119  0.93084031  1  0.077184  0.000934  0.971897  0.001  0.081517  0.000934  1.04765  0.001  0.082924  0.000702  1.047177  0.001  0.11181  0.079928  0.001024  1.048685  0.001
H  H8  1  0.70894594  0.59088063  0.43957130  1  0.128832  0.000827  0.96333  0.0  0.149382  0.000726  1.022828  0.0  0.151938  0.000569  1.02215  0.0  0.093853  0.147722  0.00076  1.023298  0.0
H  H9  1  0.29109064  0.40916207  0.56041529  1  0.128934  -0.000825  0.963122  0.0  0.14941  -0.000725  1.022682  0.0  0.15197  -0.000567  1.021998  0.0  0.093883  0.147747  -0.000759  1.023161  0.0
H  H10  1  0.92253489  0.46541989  0.37296070  1  0.118231  0.000413  0.953498  0.0  0.13609  0.000309  1.02285  0.0  0.137149  0.000315  1.023111  0.0  0.092473  0.135078  0.000221  1.022995  0.0
H  H11  1  0.07744301  0.53459191  0.62704412  1  0.118147  -0.000414  0.953531  0.0  0.136043  -0.000309  1.022844  0.0  0.137103  -0.000315  1.023109  0.0  0.092437  0.135029  -0.000221  1.022989  0.0
H  H12  1  0.77194777  0.57450459  0.24817434  1  0.117871  0.000322  0.974604  0.0  0.131606  0.000195  1.051203  0.0  0.132335  0.000213  1.052646  0.0  0.09174  0.130897  0.000186  1.050628  0.0
H  H13  1  0.22802984  0.42549186  0.75182836  1  0.117855  -0.000322  0.974659  0.0  0.131628  -0.000196  1.05121  0.0  0.132357  -0.000213  1.052653  0.0  0.09176  0.130924  -0.000186  1.050629  0.0
H  H14  1  0.70823173  0.95277500  0.10817391  1  0.110838  -3.4e-05  0.97014  0.0  0.125604  -4.1e-05  1.040323  0.0  0.126989  -4e-06  1.040416  0.0  0.087349  0.124248  4.1e-05  1.040556  0.0
H  H15  1  0.29178214  0.04724883  0.89184607  1  0.110927  3.3e-05  0.970092  0.0  0.125656  4.1e-05  1.040313  0.0  0.127046  7e-06  1.040404  0.0  0.087343  0.124296  -4.2e-05  1.040546  0.0
H  H16  1  0.68034925  0.96805436  0.29776940  1  0.110649  -0.000194  0.956375  0.0  0.130526  -7.2e-05  1.021382  0.0  0.130808  -9.3e-05  1.022523  0.0  0.090469  0.130051  -0.000155  1.021198  0.0
H  H17  1  0.31966402  0.03195723  0.70224807  1  0.110673  0.000194  0.956455  0.0  0.130578  7.2e-05  1.021417  0.0  0.130863  9.3e-05  1.022559  0.0  0.090487  0.130096  0.000155  1.021241  0.0
H  H18  1  0.50472559  0.07567500  0.18776887  1  0.106317  -0.00025  0.96832  0.0  0.122862  -0.000151  1.039359  0.0  0.123354  -0.000119  1.040486  0.0  0.087599  0.122493  -0.000144  1.038363  0.0
H  H19  1  0.49528644  0.92433138  0.81225056  1  0.106378  0.000251  0.96835  0.0  0.122875  0.000151  1.039443  0.0  0.123368  0.000118  1.040564  0.0  0.087576  0.122501  0.000143  1.038457  0.0
C  C20  1  0.03693328  0.67508026  0.31775287  1  0.309972  0.004159  3.705018  0.004  0.321263  -0.000174  3.943443  0.0  0.331423  0.001015  3.965509  0.002  0.118465  0.315242  -0.000985  3.928818  -0.001
C  C21  1  0.96310691  0.32492530  0.68223841  1  0.310119  -0.004174  3.705508  -0.004  0.32133  0.000176  3.943925  0.0  0.331498  -0.001015  3.965997  -0.002  0.118572  0.315303  0.000986  3.929302  0.001
C  C22  1  0.03275469  0.77635138  0.40708965  1  -0.171088  -0.007499  3.726119  -0.007  -0.185414  -0.0038  3.968602  -0.004  -0.193718  -0.003625  3.989547  -0.004  -0.085477  -0.180281  -0.00357  3.954271  -0.004
C  C23  1  0.96729166  0.22362848  0.59293121  1  -0.17077  0.007515  3.725711  0.007  -0.18504  0.003798  3.968153  0.004  -0.193338  0.003625  3.989084  0.004  -0.085308  -0.179912  0.003568  3.953826  0.004
C  C24  1  0.20953200  0.87162178  0.37400228  1  -0.038377  0.007513  3.696064  0.007  -0.06626  0.003048  3.945825  0.003  -0.061116  0.003395  3.961342  0.003  -0.059469  -0.069123  0.002595  3.935026  0.002
C  C25  1  0.79052075  0.12834620  0.62600762  1  -0.038771  -0.007533  3.695905  -0.007  -0.066728  -0.003049  3.945643  -0.003  -0.061582  -0.003395  3.961146  -0.003  -0.059666  -0.069593  -0.002595  3.93484  -0.002
C  C26  1  0.39163676  0.86774954  0.25043027  1  0.112165  -0.007332  3.740409  -0.007  0.141642  -0.003524  3.972454  -0.004  0.137239  -0.003316  3.996997  -0.004  0.002165  0.144  -0.003448  3.95619  -0.004
C  C27  1  0.60839274  0.13225823  0.74958244  1  0.112043  0.007344  3.740434  0.007  0.141719  0.003523  3.972238  0.004  0.137318  0.003311  3.996769  0.004  0.002173  0.144086  0.003444  3.955955  0.004
C  C28  1  0.38561894  0.76360766  0.16709539  1  0.071965  0.005403  3.662162  0.006  0.040391  0.001053  3.909774  0.002  0.048666  0.002173  3.929567  0.003  0.03992  0.035132  0.000296  3.897982  0.001
C  C29  1  0.61440174  0.23639885  0.83289398  1  0.071977  -0.005414  3.662388  -0.006  0.040262  -0.001053  3.909972  -0.002  0.048526  -0.002171  3.929765  -0.003  0.039929  0.034992  -0.000296  3.898181  -0.001
C  C30  1  0.84964239  0.57096716  0.34689160  1  -0.391038  5.2e-05  3.717864  -0.001  -0.477427  0.000177  3.959553  0.0  -0.481484  0.000291  3.967088  0.0  -0.248784  -0.47467  0.000208  3.954659  0.0
C  C31  1  0.15035324  0.42904318  0.65310044  1  -0.391069  -4.9e-05  3.718302  0.001  -0.47746  -0.000177  3.960065  0.0  -0.481522  -0.00029  3.967603  0.0  -0.248748  -0.474708  -0.000207  3.95516  0.0
C  C32  1  0.58203381  0.97065981  0.20833704  1  -0.344068  -0.000802  3.746759  -0.001  -0.425671  -0.000727  3.983685  -0.001  -0.428066  -0.000475  3.996343  0.0  -0.246011  -0.423865  -0.000633  3.975868  -0.001
C  C33  1  0.41798101  0.02933551  0.79167606  1  -0.344193  0.000799  3.746693  0.001  -0.425812  0.000726  3.98356  0.001  -0.428207  0.000475  3.9962  0.0  -0.246013  -0.424002  0.000633  3.975759  0.001
N  N34  1  0.47928104  0.40623715  0.12989034  1  -0.5384  -0.07992  2.83355  -0.091  -0.590294  -0.045368  3.211027  -0.056  -0.642969  -0.03042  3.223756  -0.04  -0.339334  -0.563085  -0.050093  3.206415  -0.059
N  N35  1  0.52065426  0.59377614  0.87009294  1  -0.538243  0.079849  2.833712  0.091  -0.590078  0.045347  3.211133  0.056  -0.642751  0.030397  3.223891  0.04  -0.339319  -0.562885  0.050077  3.206512  0.059
N  N36  1  0.48946845  0.34712207  0.25313693  1  0.386328  0.028827  4.158866  0.042  0.441613  0.004752  4.460781  0.013  0.462675  0.007744  4.497162  0.015  0.089235  0.428999  0.001207  4.437969  0.008
N  N37  1  0.51047626  0.65284898  0.74685101  1  0.386563  -0.028853  4.159045  -0.042  0.44179  -0.004768  4.461029  -0.013  0.462847  -0.007761  4.497434  -0.015  0.089278  0.429179  -0.00122  4.438213  -0.008
N  N38  1  0.50798103  0.28766290  0.36975587  1  -0.323416  -0.119421  2.358214  -0.126  -0.340352  -0.064556  2.578559  -0.072  -0.352017  -0.055106  2.591981  -0.065  -0.158888  -0.333906  -0.066417  2.570079  -0.072
N  N39  1  0.49197866  0.71227953  0.63020305  1  -0.323733  0.119539  2.358109  0.126  -0.340718  0.064602  2.578594  0.072  -0.352368  0.055146  2.591985  0.065  -0.158966  -0.334264  0.066461  2.57011  0.072
N  N40  1  0.96825696  0.62919454  0.96224227  1  -0.558037  -0.008803  2.947903  -0.01  -0.593519  -0.010856  3.331965  -0.013  -0.649136  -0.008655  3.343803  -0.011  -0.361612  -0.561732  -0.011378  3.325214  -0.013
N  N41  1  0.03167871  0.37081718  0.03778405  1  -0.557771  0.008814  2.948002  0.01  -0.593282  0.010854  3.332156  0.013  -0.648842  0.008647  3.343915  0.011  -0.361423  -0.561513  0.011385  3.325414  0.013
N  N42  1  0.95046981  0.75164412  0.91496384  1  0.390187  0.00303  4.133663  0.004  0.44088  0.00061  4.425894  0.002  0.462593  0.00171  4.459329  0.003  0.098218  0.427904  -0.00018  4.401036  0.001
N  N43  1  0.04949418  0.24838275  0.08501924  1  0.390053  -0.003043  4.133087  -0.004  0.440743  -0.000619  4.425366  -0.002  0.462457  -0.001718  4.458825  -0.003  0.09805  0.427766  0.000174  4.400496  -0.001
N  N44  1  0.92962062  0.86849116  0.87000436  1  -0.280279  -0.013931  2.359896  -0.014  -0.284465  -0.013405  2.574603  -0.015  -0.291532  -0.012351  2.586255  -0.014  -0.12296  -0.27678  -0.014591  2.56388  -0.015
N  N45  1  0.07034276  0.13150395  0.12994784  1  -0.280369  0.013988  2.358884  0.014  -0.284602  0.013455  2.573671  0.015  -0.291696  0.012395  2.58534  0.014  -0.123047  -0.276914  0.014651  2.562964  0.016
N  N46  1  0.21519908  0.67043100  0.19978208  1  -0.354117  -0.061987  3.34199  -0.073  -0.302314  -0.052407  3.623314  -0.068  -0.335212  -0.045419  3.645711  -0.062  -0.35523  -0.285324  -0.05191  3.611241  -0.065
N  N47  1  0.78482465  0.32958059  0.80020940  1  -0.354342  0.061968  3.342158  0.073  -0.302386  0.052389  3.623404  0.068  -0.335317  0.045407  3.645808  0.062  -0.355348  -0.285392  0.051888  3.611315  0.065
