# generated using pymatgen
data_KH26C20NO4
_symmetry_space_group_name_H-M   'P 1'
_cell_length_a   10.13214210
_cell_length_b   10.61859135
_cell_length_c   12.77110000
_cell_angle_alpha   70.30915710
_cell_angle_beta   85.96602986
_cell_angle_gamma   67.01937674
_symmetry_Int_Tables_number   1
_chemical_formula_structural   KH26C20NO4
_chemical_formula_sum   'K2 H52 C40 N2 O8'
_cell_volume   1188.04041141
_cell_formula_units_Z   2
loop_
 _symmetry_equiv_pos_site_id
 _symmetry_equiv_pos_as_xyz
  1  'x, y, z'
loop_
 _atom_site_type_symbol
 _atom_site_label
 _atom_site_symmetry_multiplicity
 _atom_site_fract_x
 _atom_site_fract_y
 _atom_site_fract_z
 _atom_site_occupancy
 _atom_site_pbe_bader_charge
 _atom_site_pbe_bader_spin_density
 _atom_site_pbe_cm5_charge
 _atom_site_pbe_ddec_charge
 _atom_site_pbe_ddec_spin_density
 _atom_site_pbe_ddec_sum_bond_order
 _atom_site_pbe_magmom
K  K0  1  0.81442049  0.59456658  0.06869214  1  0.862089  0  0.852247  0.815336  0  0.77338  0
K  K1  1  0.18558000  0.40543134  0.93131124  1  0.862096  0  0.852222  0.815341  0  0.773343  0
H  H2  1  0.03545958  0.66666745  0.98092724  1  0.031428  0  0.082952  0.063374  0  1.116794  0
H  H3  1  0.96453824  0.33333481  0.01907350  1  0.031503  0  0.082955  0.063369  0  1.116796  0
H  H4  1  0.05477587  0.88940312  0.98147070  1  0.052951  0  0.093623  0.090891  0  1.017017  0
H  H5  1  0.94522450  0.11060024  0.01852960  1  0.052752  0  0.09364  0.090879  0  1.017054  0
H  H6  1  0.16210115  0.89483877  0.15098649  1  0.039706  0  0.085524  0.080919  0  1.071217  0
H  H7  1  0.83790485  0.10516024  0.84901314  1  0.039732  0  0.08554  0.08092  0  1.071228  0
H  H8  1  0.25237341  0.66875349  0.31643911  1  0.061389  0  0.091673  0.089352  0  1.05072  0
H  H9  1  0.74763655  0.33124552  0.68355795  1  0.061213  0  0.09169  0.08937  0  1.050703  0
H  H10  1  0.22952292  0.44573100  0.31879480  1  0.051104  0  0.088695  0.093094  0  1.037593  0
H  H11  1  0.77048266  0.55426910  0.68120377  1  0.050939  0  0.088664  0.093045  0  1.037652  0
H  H12  1  0.97801985  0.23386229  0.21262624  1  0.009454  0  0.0947  0.091031  0  1.029772  0
H  H13  1  0.02197191  0.76614541  0.78737254  1  0.009579  0  0.094669  0.090992  0  1.029788  0
H  H14  1  0.09369421  0.97291419  0.32368612  1  0.022327  0  0.093037  0.08812  0  1.012862  0
H  H15  1  0.90629458  0.02709351  0.67630733  1  0.02238  0  0.093059  0.088114  0  1.012868  0
H  H16  1  0.35060914  0.86311034  0.39406787  1  0.077688  0  0.085877  0.087516  0  1.067173  0
H  H17  1  0.64938499  0.13688867  0.60591989  1  0.077522  0  0.085905  0.087572  0  1.067115  0
H  H18  1  0.49087575  0.02236842  0.35058018  1  0.052577  0  0.090262  0.084125  0  1.00471  0
H  H19  1  0.50911979  0.97762951  0.64941016  1  0.052717  0  0.090251  0.084068  0  1.004778  0
H  H20  1  0.37629125  0.28210519  0.24022056  1  0.013784  0  0.089359  0.089768  0  1.060733  0
H  H21  1  0.62370584  0.71789382  0.75977644  1  0.013679  0  0.089356  0.089782  0  1.060754  0
H  H22  1  0.82574950  0.53628245  0.41564099  1  0.047356  0  0.099093  0.06404  0  0.968771  0
H  H23  1  0.17425098  0.46371547  0.58435690  1  0.047308  0  0.099085  0.064007  0  0.968682  0
H  H24  1  0.95081327  0.42551924  0.34349647  1  0.099695  0  0.114558  0.09762  0  0.987388  0
H  H25  1  0.04918722  0.57447868  0.65650378  1  0.099706  0  0.114497  0.097533  0  0.987308  0
H  H26  1  0.85840941  0.23137425  0.42568363  1  0.026283  0  0.098858  0.064185  0  0.990007  0
H  H27  1  0.14159332  0.76862041  0.57432445  1  0.026338  0  0.098881  0.064189  0  0.99001  0
H  H28  1  0.90254769  0.27921950  0.53670107  1  0.064181  0  0.110844  0.088103  0  0.969204  0
H  H29  1  0.09745423  0.72078494  0.46330197  1  0.064254  0  0.110822  0.088084  0  0.969187  0
H  H30  1  0.47846008  0.43572562  0.43550141  1  0.077831  0  0.108495  0.086176  0  0.998906  0
H  H31  1  0.52154307  0.56426796  0.56450460  1  0.077832  0  0.108495  0.086202  0  0.998914  0
H  H32  1  0.60678204  0.32413995  0.36586413  1  0.03988  0  0.096914  0.059741  0  0.989831  0
H  H33  1  0.39322351  0.67585254  0.63414440  1  0.039743  0  0.096924  0.059797  0  0.989885  0
H  H34  1  0.52618404  0.58342257  0.24459395  1  0.065431  0  0.111719  0.086287  0  1.008788  0
H  H35  1  0.47381756  0.41656992  0.75540932  1  0.065125  0  0.111688  0.086241  0  1.008809  0
H  H36  1  0.56952366  0.62971850  0.35686442  1  0.060953  0  0.100351  0.064893  0  0.988553  0
H  H37  1  0.43047907  0.37027616  0.64313661  1  0.06096  0  0.100367  0.064954  0  0.988591  0
H  H38  1  0.47212851  0.42851792  0.15875636  1  0.051518  0  0.097973  0.059679  0  1.027199  0
H  H39  1  0.52787269  0.57148326  0.84124450  1  0.051507  0  0.097973  0.059672  0  1.027161  0
H  H40  1  0.66405677  0.33732545  0.16024205  1  0.034595  0  0.112317  0.082575  0  0.969423  0
H  H41  1  0.33594203  0.66267682  0.83975706  1  0.034606  0  0.112316  0.082548  0  0.969356  0
H  H42  1  0.47585976  0.74895841  0.94010120  1  0.031546  0  0.108179  0.077236  0  1.000442  0
H  H43  1  0.52414187  0.25104168  0.05989993  1  0.031578  0  0.108168  0.077195  0  1.000441  0
H  H44  1  0.35996216  0.67345577  0.02810680  1  0.083058  0  0.098003  0.070038  0  1.039571  0
H  H45  1  0.64003904  0.32654541  0.97189484  1  0.083053  0  0.098012  0.070045  0  1.039556  0
H  H46  1  0.55320381  0.97666145  0.15196684  1  0.034226  0  0.098666  0.06104  0  0.994665  0
H  H47  1  0.44679443  0.02333973  0.84803732  1  0.034227  0  0.098679  0.061061  0  0.994584  0
H  H48  1  0.50580717  0.82354189  0.17890863  1  0.055764  0  0.112082  0.086178  0  0.995551  0
H  H49  1  0.49419148  0.17645821  0.82109658  1  0.055938  0  0.112089  0.086165  0  0.995596  0
H  H50  1  0.70706758  0.93510909  0.89411740  1  0.087036  0  0.108728  0.08311  0  1.023593  0
H  H51  1  0.29293051  0.06488992  0.10588659  1  0.086988  0  0.108758  0.083169  0  1.023481  0
H  H52  1  0.67378501  0.04258235  0.98304754  1  0.041929  0  0.100508  0.065862  0  0.996511  0
H  H53  1  0.32621604  0.95741666  0.01695628  1  0.041893  0  0.100537  0.065889  0  0.996525  0
C  C54  1  0.12867747  0.53546650  0.15039641  1  0.470792  0  0.059636  0.241568  0  4.164309  0
C  C55  1  0.87132331  0.46453576  0.84960338  1  0.470902  0  0.059563  0.241417  0  4.164427  0
C  C56  1  0.08210025  0.66615790  0.05581576  1  -0.113624  0  -0.151962  -0.258071  0  4.04647  0
C  C57  1  0.91789813  0.33384546  0.94418386  1  -0.113747  0  -0.151972  -0.258049  0  4.046509  0
C  C58  1  0.09302239  0.79272284  0.05607031  1  -0.072196  0  -0.105393  -0.072282  0  4.092726  0
C  C59  1  0.90697896  0.20728051  0.94392836  1  -0.071896  0  -0.105403  -0.072238  0  4.092743  0
C  C60  1  0.15378601  0.79615286  0.14967517  1  -0.097921  0  -0.135143  -0.167339  0  4.093805  0
C  C61  1  0.84621873  0.20384941  0.85032361  1  -0.097875  0  -0.135193  -0.167364  0  4.093846  0
C  C62  1  0.20385802  0.66872198  0.24272841  1  -0.087182  0  -0.111409  -0.085999  0  4.088004  0
C  C63  1  0.79614996  0.33127702  0.75727033  1  -0.086997  0  -0.111399  -0.086027  0  4.088041  0
C  C64  1  0.19263948  0.54166921  0.24378358  1  -0.126774  0  -0.12214  -0.213583  0  3.984915  0
C  C65  1  0.80736568  0.45833197  0.75621470  1  -0.12677  0  -0.122069  -0.213444  0  3.984907  0
C  C66  1  0.16658986  0.28122405  0.21672395  1  0.395927  0  0.074178  0.246997  0  4.149263  0
C  C67  1  0.83340415  0.71878039  0.78327247  1  0.395783  0  0.074099  0.246872  0  4.149412  0
C  C68  1  0.09093014  0.18728605  0.24281389  1  -0.051867  0  -0.114442  -0.212243  0  3.996653  0
C  C69  1  0.90906303  0.81272056  0.75718276  1  -0.051897  0  -0.114445  -0.212221  0  3.99657  0
C  C70  1  0.15638103  0.04035181  0.30548439  1  -0.054143  0  -0.107125  -0.079711  0  4.088317  0
C  C71  1  0.84361199  0.95965263  0.69451053  1  -0.054293  0  -0.107085  -0.079533  0  4.088234  0
C  C72  1  0.30091922  0.97825749  0.34527452  1  -0.085703  0  -0.131838  -0.154304  0  4.073154  0
C  C73  1  0.69907167  0.02174478  0.65471565  1  -0.085595  0  -0.131976  -0.15463  0  4.073292  0
C  C74  1  0.37779843  0.06815261  0.32094596  1  -0.092755  0  -0.109405  -0.082635  0  4.108131  0
C  C75  1  0.62219543  0.93184965  0.67904561  1  -0.092928  0  -0.109264  -0.082318  0  4.107975  0
C  C76  1  0.31310217  0.21546930  0.25883483  1  -0.038985  0  -0.120938  -0.217523  0  3.9881  0
C  C77  1  0.68689493  0.78452971  0.74116138  1  -0.038763  0  -0.120933  -0.217601  0  3.988216  0
C  C78  1  0.84424269  0.45247151  0.37691950  1  0.384092  0  -0.074823  -0.016132  0  3.922194  0
C  C79  1  0.15576077  0.54752641  0.62308136  1  0.384305  0  -0.074743  -0.015936  0  3.921919  0
C  C80  1  0.83069325  0.31885532  0.46190750  1  0.4263  0  -0.07364  -0.018493  0  3.932179  0
C  C81  1  0.16930978  0.68114369  0.53809699  1  0.425948  0  -0.07363  -0.018495  0  3.932189  0
C  C82  1  0.58613998  0.40881898  0.40407242  1  0.410057  0  -0.077302  -0.023959  0  3.937384  0
C  C83  1  0.41386473  0.59117568  0.59593164  1  0.410239  0  -0.077252  -0.024003  0  3.937514  0
C  C84  1  0.59799623  0.54326850  0.31936045  1  0.39187  0  -0.07753  -0.024779  0  3.944386  0
C  C85  1  0.40200650  0.45672616  0.68064136  1  0.392152  0  -0.077591  -0.024876  0  3.944582  0
C  C86  1  0.56509981  0.41120489  0.10668616  1  0.406003  0  -0.07523  -0.01378  0  3.929725  0
C  C87  1  0.43490280  0.58879521  0.89331492  1  0.406882  0  -0.075241  -0.013696  0  3.929567  0
C  C88  1  0.45561316  0.64953260  0.97961971  1  0.437627  0  -0.079327  -0.018654  0  3.908761  0
C  C89  1  0.54438861  0.35046966  0.02038003  1  0.437863  0  -0.079316  -0.018534  0  3.908751  0
C  C90  1  0.51411704  0.91774825  0.11330410  1  0.425155  0  -0.074348  -0.006783  0  3.924908  0
C  C91  1  0.48588218  0.08225293  0.88669843  1  0.425017  0  -0.074309  -0.006712  0  3.924689  0
C  C92  1  0.63057257  0.98212318  0.94939244  1  0.403487  0  -0.079844  -0.023629  0  3.927267  0
C  C93  1  0.36942791  0.01787474  0.05061094  1  0.403561  0  -0.0799  -0.023707  0  3.927384  0
N  N94  1  0.09799588  0.42214790  0.14693542  1  -1.298603  0  -0.571229  -0.622336  0  3.475244  0
N  N95  1  0.90200026  0.57785871  0.85306342  1  -1.298537  0  -0.571128  -0.622223  0  3.475318  0
O  O96  1  0.74139589  0.51139449  0.28317247  1  -1.055103  0  -0.302503  -0.271854  0  2.494599  0
O  O97  1  0.25860387  0.48860017  0.71682716  1  -1.055115  0  -0.302464  -0.271863  0  2.49459  0
O  O98  1  0.68719542  0.35290989  0.49808046  1  -1.039244  0  -0.232781  -0.232845  0  2.470156  0
O  O99  1  0.31280719  0.64709020  0.50192375  1  -1.039223  0  -0.232812  -0.232853  0  2.470226  0
O  O100  1  0.57985898  0.54722220  0.05398644  1  -1.057364  0  -0.318863  -0.267734  0  2.507089  0
O  O101  1  0.42014223  0.45277898  0.94601363  1  -1.05799  0  -0.318875  -0.267789  0  2.507125  0
O  O102  1  0.61730868  0.86325050  0.03968977  1  -1.055905  0  -0.311837  -0.274234  0  2.492437  0
O  O103  1  0.38269097  0.13674960  0.96031461  1  -1.055915  0  -0.311895  -0.27433  0  2.492564  0
