# generated using pymatgen
data_ZnH21C24(N6O5)2
_symmetry_space_group_name_H-M   'P 1'
_cell_length_a   16.46207341
_cell_length_b   17.08793779
_cell_length_c   18.82378291
_cell_angle_alpha   87.95716636
_cell_angle_beta   86.55322442
_cell_angle_gamma   85.47611565
_symmetry_Int_Tables_number   1
_chemical_formula_structural   ZnH21C24(N6O5)2
_chemical_formula_sum   'Zn2 H42 C48 N24 O20'
_cell_volume   5266.59698903
_cell_formula_units_Z   2
loop_
 _symmetry_equiv_pos_site_id
 _symmetry_equiv_pos_as_xyz
  1  'x, y, z'
loop_
 _atom_site_type_symbol
 _atom_site_label
 _atom_site_symmetry_multiplicity
 _atom_site_fract_x
 _atom_site_fract_y
 _atom_site_fract_z
 _atom_site_occupancy
 _atom_site_pbe_bader_charge
 _atom_site_pbe_bader_spin_density
 _atom_site_pbe_cm5_charge
 _atom_site_pbe_ddec_charge
 _atom_site_pbe_ddec_spin_density
 _atom_site_pbe_ddec_sum_bond_order
 _atom_site_pbe_magmom
Zn  Zn0  1  0.59598914  0.50146745  0.49442195  1  1.311433  0  0.687373  0.875794  0  2.311557  0
Zn  Zn1  1  0.41460770  0.50745310  0.49196000  1  1.313159  0  0.68159  0.87417  0  2.297086  0
H  H2  1  0.61521046  0.49315163  0.71109298  1  0.21042  0  0.117372  0.133227  0  1.017889  0
H  H3  1  0.41556218  0.45642904  0.31304455  1  0.134439  0  0.115113  0.127697  0  1.011566  0
H  H4  1  0.36673506  0.43225842  0.85744404  1  0.083633  0  0.110429  0.116324  0  1.030072  0
H  H5  1  0.61067337  0.51973634  0.11338151  1  0.072697  0  0.115218  0.127802  0  0.98366  0
H  H6  1  0.56383579  0.90289306  0.57314289  1  0.087158  0  0.102516  0.109575  0  1.034789  0
H  H7  1  0.42147125  0.10631244  0.42002988  1  0.088861  0  0.10115  0.105562  0  1.06798  0
H  H8  1  0.61115068  0.11671084  0.56534673  1  0.08725  0  0.103727  0.111588  0  1.003693  0
H  H9  1  0.39409113  0.88906778  0.41038090  1  0.086602  0  0.105299  0.113164  0  0.998709  0
H  H10  1  0.60759242  0.26320989  0.54467200  1  0.107352  0  0.103477  0.113369  0  1.025289  0
H  H11  1  0.39244736  0.74356998  0.43553501  1  0.104854  0  0.100534  0.103923  0  1.026807  0
H  H12  1  0.95601716  0.39877082  0.57938949  1  0.468594  0  0.296221  0.233749  0  1.031545  0
H  H13  1  0.84859476  0.30695264  0.49844246  1  0.079125  0  0.105406  0.118235  0  1.021033  0
H  H14  1  0.92947746  0.26689105  0.55093822  1  0.084431  0  0.111194  0.130893  0  0.962595  0
H  H15  1  0.95176424  0.32345296  0.47124494  1  0.052717  0  0.094961  0.101856  0  0.983571  0
H  H16  1  0.11913147  0.67305309  0.44399086  1  0.425765  0  0.317115  0.262256  0  0.925883  0
H  H17  1  0.11384229  0.69774121  0.57677781  1  0.048093  0  0.090808  0.094984  0  1.00455  0
H  H18  1  0.02660187  0.64104542  0.58045661  1  0.050909  0  0.0981  0.106857  0  0.9962  0
H  H19  1  0.02515219  0.73040487  0.52952698  1  0.077082  0  0.10966  0.130797  0  0.973923  0
H  H20  1  0.35800729  0.37243666  0.50545873  1  0.524655  0  0.305287  0.26245  0  1.03476  0
H  H21  1  0.33172219  0.24787589  0.52532126  1  0.116347  0  0.114709  0.131423  0  1.005425  0
H  H22  1  0.22548429  0.27251736  0.51860800  1  0.067325  0  0.109619  0.118589  0  0.976561  0
H  H23  1  0.26947293  0.27591814  0.60276212  1  0.110859  0  0.110197  0.126407  0  0.985164  0
H  H24  1  0.64737536  0.64070999  0.47831842  1  0.554285  0  0.306846  0.272197  0  1.030063  0
H  H25  1  0.67540235  0.76434066  0.45826145  1  0.102806  0  0.115743  0.133864  0  0.979057  0
H  H26  1  0.74811925  0.73275863  0.38854861  1  0.078433  0  0.105851  0.116869  0  0.998488  0
H  H27  1  0.77931611  0.74131204  0.47691868  1  0.06681  0  0.108891  0.118762  0  0.980293  0
H  H28  1  0.34900433  0.44892131  0.66438538  1  0.499132  0  0.301484  0.259553  0  1.008334  0
H  H29  1  0.21959076  0.44219748  0.72051000  1  0.066304  0  0.103982  0.11674  0  1.013557  0
H  H30  1  0.25510429  0.48605889  0.79644537  1  0.062545  0  0.106627  0.112629  0  0.976105  0
H  H31  1  0.26571818  0.38206744  0.78796467  1  0.045098  0  0.105468  0.112745  0  0.968399  0
H  H32  1  0.67697171  0.58881609  0.18582591  1  0.45535  0  0.328702  0.264281  0  0.92218  0
H  H33  1  0.68398845  0.68600175  0.26283762  1  0.063198  0  0.110456  0.115297  0  0.9737  0
H  H34  1  0.68355420  0.61018932  0.33089324  1  0.094598  0  0.09742  0.113174  0  1.032406  0
H  H35  1  0.59038555  0.66180714  0.30760127  1  0.086522  0  0.107772  0.118336  0  0.973378  0
H  H36  1  0.59981212  0.79385312  0.63871508  1  0.431334  0  0.312646  0.252761  0  0.939781  0
H  H37  1  0.57716005  0.68938668  0.70850555  1  0.065166  0  0.108265  0.116985  0  0.973991  0
H  H38  1  0.57565801  0.62929172  0.63354267  1  0.094987  0  0.094609  0.114207  0  1.02463  0
H  H39  1  0.48477161  0.68428288  0.66490105  1  0.018889  0  0.097828  0.104594  0  0.982615  0
H  H40  1  0.40050556  0.31950969  0.38516591  1  0.493298  0  0.30553  0.258031  0  0.989935  0
H  H41  1  0.31775777  0.26006046  0.31344983  1  0.090411  0  0.108  0.126375  0  1.005613  0
H  H42  1  0.30530605  0.18749993  0.38354609  1  0.000758  0  0.092638  0.09086  0  0.991908  0
H  H43  1  0.38511262  0.17352689  0.31577357  1  0.045838  0  0.103084  0.11159  0  0.972923  0
C  C44  1  0.50993958  0.35477444  0.46904448  1  1.533497  0  0.21959  0.608072  0  4.128546  0
C  C45  1  0.48291276  0.65384513  0.51822862  1  1.497381  0  0.225612  0.62692  0  4.137947  0
C  C46  1  0.49559995  0.47278839  0.62861237  1  1.510759  0  0.217773  0.610567  0  4.137923  0
C  C47  1  0.52964371  0.52879400  0.36057653  1  1.552136  0  0.214353  0.60312  0  4.17379  0
C  C48  1  0.56009980  0.48005118  0.74259442  1  0.029256  0  -0.067397  -0.098304  0  3.961544  0
C  C49  1  0.45841639  0.47101675  0.26928651  1  -0.004552  0  -0.068298  -0.101069  0  3.961765  0
C  C50  1  0.56036438  0.47948276  0.81636058  1  0.228297  0  0.065605  0.001623  0  3.936171  0
C  C51  1  0.45004582  0.44102754  0.20284070  1  0.255416  0  0.066631  0.003548  0  3.946519  0
C  C52  1  0.49007099  0.46008319  0.85807761  1  0.047439  0  0.011994  0.018185  0  4.013559  0
C  C53  1  0.50603104  0.45869430  0.14574720  1  0.062694  0  0.011331  0.015568  0  4.018214  0
C  C54  1  0.41984807  0.44791361  0.82435266  1  -0.027152  0  -0.090377  -0.221059  0  3.918731  0
C  C55  1  0.56946539  0.50383142  0.15835605  1  -0.014726  0  -0.084957  -0.220389  0  3.923281  0
C  C56  1  0.41633307  0.45341945  0.74912056  1  0.511231  0  0.125537  0.247969  0  4.031153  0
C  C57  1  0.57995164  0.53439536  0.22629180  1  0.494401  0  0.126888  0.24396  0  4.041367  0
C  C58  1  0.49017449  0.46706019  0.70764852  1  0.002813  0  -0.027379  -0.149923  0  3.929357  0
C  C59  1  0.52299332  0.51544259  0.28314929  1  0.035942  0  -0.021337  -0.125308  0  3.903398  0
C  C60  1  0.49476277  0.44126014  0.07093691  1  1.030084  0  0.248737  0.261455  0  4.014706  0
C  C61  1  0.48930809  0.44671593  0.93576966  1  1.011795  0  0.245085  0.256141  0  4.009101  0
C  C62  1  0.51133312  0.26802498  0.47278875  1  -0.037552  0  -0.032271  -0.158264  0  3.934026  0
C  C63  1  0.47837462  0.74124804  0.51703300  1  0.050747  0  -0.025514  -0.136772  0  3.921215  0
C  C64  1  0.45704123  0.22439979  0.43534027  1  0.467266  0  0.106168  0.226749  0  4.082465  0
C  C65  1  0.52748752  0.78549682  0.55794249  1  0.443613  0  0.09787  0.215914  0  4.084363  0
C  C66  1  0.46124524  0.14227854  0.44669618  1  -0.042677  0  -0.111637  -0.285869  0  3.937608  0
C  C67  1  0.52793098  0.86648400  0.54259062  1  -0.072115  0  -0.105962  -0.27796  0  3.95146  0
C  C68  1  0.51623202  0.10475637  0.49309453  1  0.330629  0  0.083187  0.19309  0  4.092233  0
C  C69  1  0.48071618  0.90292122  0.48967008  1  0.345673  0  0.079693  0.184968  0  4.094442  0
C  C70  1  0.56955975  0.14757346  0.52908378  1  -0.065118  0  -0.102145  -0.184122  0  3.999698  0
C  C71  1  0.43070809  0.85922236  0.45096409  1  -0.0559  0  -0.097874  -0.172938  0  3.993245  0
C  C72  1  0.56697044  0.22830801  0.51775317  1  -0.001563  0  -0.085315  -0.057458  0  3.996208  0
C  C73  1  0.42964304  0.77914045  0.46551728  1  -0.051811  0  -0.088581  -0.070409  0  4.00884  0
C  C74  1  0.22976584  0.56232996  0.48692420  1  0.768148  0  0.209045  0.151063  0  3.956732  0
C  C75  1  0.77447686  0.46017173  0.53406341  1  0.818757  0  0.222824  0.171489  0  3.946466  0
C  C76  1  0.14442702  0.56777377  0.49424745  1  0.58203  0  0.097202  0.052548  0  4.045822  0
C  C77  1  0.85999494  0.45531134  0.53330353  1  0.537005  0  0.10094  0.055092  0  4.0245  0
C  C78  1  0.10970815  0.49761436  0.51956966  1  0.367846  0  0.121025  0.118528  0  3.985346  0
C  C79  1  0.89704603  0.52017185  0.49791165  1  0.476249  0  0.113893  0.090818  0  4.014234  0
C  C80  1  0.16271180  0.43391423  0.54054094  1  0.301804  0  0.078655  -0.128681  0  3.856966  0
C  C81  1  0.84603762  0.58015232  0.46695694  1  0.26302  0  0.075284  -0.127339  0  3.861466  0
C  C82  1  0.24890643  0.43166561  0.52352770  1  1.064409  0  0.24413  0.340253  0  4.041601  0
C  C83  1  0.75948940  0.58248866  0.47699169  1  1.032377  0  0.243159  0.339283  0  4.041369  0
C  C84  1  0.90813505  0.31734890  0.51764775  1  0.229144  0  -0.141666  -0.220495  0  3.919671  0
C  C85  1  0.06424303  0.67895420  0.54600642  1  0.251147  0  -0.143166  -0.218931  0  3.949185  0
C  C86  1  0.27996754  0.28679443  0.54510701  1  0.199933  0  -0.131001  -0.220651  0  3.913611  0
C  C87  1  0.72960768  0.72488583  0.44536352  1  0.256175  0  -0.129929  -0.219147  0  3.923856  0
C  C88  1  0.26783839  0.43870661  0.75823950  1  0.299215  0  -0.130266  -0.213089  0  3.964867  0
C  C89  1  0.65050154  0.63753487  0.28639193  1  0.243834  0  -0.133086  -0.213428  0  3.952321  0
C  C90  1  0.55162990  0.68518100  0.65641701  1  0.267649  0  -0.143122  -0.218224  0  3.963498  0
C  C91  1  0.35028356  0.21789721  0.34891334  1  0.333229  0  -0.134824  -0.210089  0  3.977907  0
N  N92  1  0.42076480  0.47142941  0.97422763  1  -0.562972  0  -0.155334  -0.141778  0  3.196361  0
N  N93  1  0.55530797  0.40084828  0.03348757  1  -0.563038  0  -0.158845  -0.144243  0  3.173758  0
N  N94  1  0.42306198  0.46800417  0.04411599  1  -0.541981  0  -0.157829  -0.141763  0  3.192671  0
N  N95  1  0.55161019  0.40190536  0.96343374  1  -0.541968  0  -0.158498  -0.142024  0  3.186301  0
N  N96  1  0.52183021  0.02298022  0.50852546  1  -0.459616  0  -0.153868  -0.138518  0  3.279349  0
N  N97  1  0.47690804  0.98432919  0.47273584  1  -0.48437  0  -0.151513  -0.131836  0  3.279573  0
N  N98  1  0.28146620  0.49899852  0.49675432  1  -1.212865  0  -0.312327  -0.351192  0  3.399325  0
N  N99  1  0.72497273  0.51719191  0.50724586  1  -1.209401  0  -0.305991  -0.3364  0  3.393714  0
N  N100  1  0.02446564  0.49611464  0.53462713  1  -0.467794  0  -0.125916  -0.101621  0  3.232243  0
N  N101  1  0.98127908  0.52057533  0.48341572  1  -0.430882  0  -0.114851  -0.049438  0  3.233844  0
N  N102  1  0.90142420  0.38816536  0.56049283  1  -1.137587  0  -0.446104  -0.279626  0  3.520682  0
N  N103  1  0.09533034  0.63672975  0.48230723  1  -1.086818  0  -0.46135  -0.308294  0  3.563037  0
N  N104  1  0.12920372  0.37143192  0.58444653  1  0.329926  0  0.046084  0.517747  0  4.257114  0
N  N105  1  0.88301888  0.63881998  0.41983992  1  0.369656  0  0.045245  0.520764  0  4.260094  0
N  N106  1  0.29970843  0.36680788  0.52824004  1  -1.220838  0  -0.411667  -0.257576  0  3.584618  0
N  N107  1  0.70850506  0.64555595  0.46346140  1  -1.254319  0  -0.414436  -0.270799  0  3.598261  0
N  N108  1  0.63056523  0.50746037  0.84820625  1  0.356009  0  0.046812  0.518599  0  4.227189  0
N  N109  1  0.38865193  0.38572901  0.19626211  1  0.339617  0  0.048851  0.52168  0  4.222984  0
N  N110  1  0.34530756  0.44567024  0.71877391  1  -1.236711  0  -0.424481  -0.247978  0  3.59454  0
N  N111  1  0.64110653  0.58258332  0.23100596  1  -1.213646  0  -0.415229  -0.240642  0  3.587377  0
N  N112  1  0.57404469  0.75270596  0.61188563  1  -1.173455  0  -0.450155  -0.299845  0  3.551156  0
N  N113  1  0.40333597  0.26009092  0.38968632  1  -1.280464  0  -0.446877  -0.284392  0  3.629647  0
N  N114  1  0.73483618  0.39575888  0.57514903  1  0.431052  0  0.064369  0.486011  0  4.223039  0
N  N115  1  0.26688530  0.63514718  0.45996130  1  0.419158  0  0.057517  0.479361  0  4.232799  0
O  O116  1  0.57380535  0.38670211  0.48222018  1  -1.163029  0  -0.303494  -0.524886  0  2.375486  0
O  O117  1  0.41738582  0.61912721  0.52588532  1  -1.15581  0  -0.315418  -0.542841  0  2.331143  0
O  O118  1  0.44167867  0.39417751  0.45427163  1  -1.189929  0  -0.321973  -0.578445  0  2.372121  0
O  O119  1  0.55420521  0.61916954  0.50722287  1  -1.191383  0  -0.306645  -0.562219  0  2.430399  0
O  O120  1  0.56450172  0.48717418  0.59902465  1  -1.174743  0  -0.315607  -0.551551  0  2.417272  0
O  O121  1  0.46262544  0.54487951  0.39624591  1  -1.17269  0  -0.324119  -0.567336  0  2.413849  0
O  O122  1  0.43124449  0.46403461  0.59470080  1  -1.179254  0  -0.318082  -0.569663  0  2.343976  0
O  O123  1  0.59976520  0.51744051  0.38657469  1  -1.145729  0  -0.315633  -0.537918  0  2.299411  0
O  O124  1  0.06999522  0.33926462  0.56400878  1  -0.464302  0  -0.121722  -0.33626  0  1.992206  0
O  O125  1  0.16118203  0.35596983  0.64200297  1  -0.444293  0  -0.114845  -0.322414  0  1.93419  0
O  O126  1  0.85910527  0.64347136  0.35816210  1  -0.452707  0  -0.13566  -0.337548  0  1.879715  0
O  O127  1  0.93486602  0.67860822  0.44265135  1  -0.440746  0  -0.121219  -0.333006  0  1.991374  0
O  O128  1  0.61969413  0.53491842  0.90903877  1  -0.484836  0  -0.167767  -0.373025  0  1.894652  0
O  O129  1  0.69665054  0.50565237  0.81247335  1  -0.459265  0  -0.159395  -0.353654  0  1.861808  0
O  O130  1  0.39561440  0.34222985  0.14427457  1  -0.457895  0  -0.149439  -0.35072  0  1.896391  0
O  O131  1  0.33316963  0.38289307  0.24446727  1  -0.502641  0  -0.165583  -0.379495  0  1.892188  0
O  O132  1  0.72081481  0.40634225  0.63913289  1  -0.393232  0  -0.086573  -0.263482  0  1.921729  0
O  O133  1  0.72092246  0.33769004  0.54194895  1  -0.426062  0  -0.089132  -0.278481  0  1.980287  0
O  O134  1  0.25323290  0.69362052  0.49680106  1  -0.41687  0  -0.099093  -0.288092  0  1.930571  0
O  O135  1  0.30593604  0.63152613  0.40193009  1  -0.420676  0  -0.097231  -0.272709  0  1.919158  0
