# generated using pymatgen
data_AlH12C21S3NO15
_symmetry_space_group_name_H-M   'P 1'
_cell_length_a   4.51214944
_cell_length_b   23.39120181
_cell_length_c   23.39084585
_cell_angle_alpha   119.99852819
_cell_angle_beta   89.99896849
_cell_angle_gamma   90.00499980
_symmetry_Int_Tables_number   1
_chemical_formula_structural   AlH12C21S3NO15
_chemical_formula_sum   'Al3 H36 C63 S9 N3 O45'
_cell_volume   2138.05566733
_cell_formula_units_Z   3
loop_
 _symmetry_equiv_pos_site_id
 _symmetry_equiv_pos_as_xyz
  1  'x, y, z'
loop_
 _atom_site_type_symbol
 _atom_site_label
 _atom_site_symmetry_multiplicity
 _atom_site_fract_x
 _atom_site_fract_y
 _atom_site_fract_z
 _atom_site_occupancy
 _atom_site_pbe_bader_charge
 _atom_site_pbe_bader_spin_density
 _atom_site_pbe_cm5_charge
 _atom_site_pbe_ddec_charge
 _atom_site_pbe_ddec_spin_density
 _atom_site_pbe_ddec_sum_bond_order
 _atom_site_pbe_magmom
Al  Al0  1  0.96436814  0.99990968  0.49813307  1  2.530656  0  0.501856  1.713339  0  2.369106  0
Al  Al1  1  0.96435838  0.33517641  0.16841944  1  2.531516  0  0.501667  1.712998  0  2.369624  0
Al  Al2  1  0.96431297  0.66489880  0.83343135  1  2.531445  0  0.501674  1.712923  0  2.369778  0
H  H3  1  0.26785791  0.86795302  0.91977993  1  0.092041  0  0.118776  0.126956  0  0.960849  0
H  H4  1  0.26421427  0.97468015  0.92340708  1  0.080733  0  0.113068  0.126338  0  0.991956  0
H  H5  1  0.80398853  0.89117406  0.74798492  1  0.114872  0  0.111912  0.119344  0  1.027613  0
H  H6  1  0.80398457  0.02346063  0.94214581  1  0.11281  0  0.111996  0.119504  0  1.027473  0
H  H7  1  0.26776699  0.21846171  0.96537644  1  0.092388  0  0.11878  0.126831  0  0.960492  0
H  H8  1  0.26418930  0.11536798  0.85863955  1  0.081261  0  0.11317  0.126423  0  0.992111  0
H  H9  1  0.80398517  0.08534499  0.80987869  1  0.08392  0  0.111982  0.119481  0  1.027304  0
H  H10  1  0.26777894  0.91358280  0.61485669  1  0.093785  0  0.11873  0.12682  0  0.9606  0
H  H11  1  0.26420940  0.90992036  0.71794487  1  0.083251  0  0.113094  0.126356  0  0.991972  0
H  H12  1  0.70645445  0.41354236  0.36056166  1  0.109132  0  0.121714  0.133242  0  0.957472  0
H  H13  1  0.73799223  0.42008589  0.46856172  1  0.077027  0  0.113527  0.126633  0  0.989847  0
H  H14  1  0.20153510  0.24463791  0.39383445  1  0.076215  0  0.111435  0.119261  0  1.035959  0
H  H15  1  0.20170667  0.43951897  0.51742168  1  0.076952  0  0.111539  0.119533  0  1.035723  0
H  H16  1  0.70604505  0.47278385  0.71964415  1  0.109725  0  0.121894  0.133384  0  0.957472  0
H  H17  1  0.73758007  0.36478237  0.61820461  1  0.09037  0  0.113524  0.126705  0  0.989954  0
H  H18  1  0.20147547  0.31585395  0.58869859  1  0.120837  0  0.111482  0.119338  0  1.035737  0
H  H19  1  0.70636085  0.11372217  0.41973491  1  0.116278  0  0.121723  0.133109  0  0.957276  0
H  H20  1  0.73785053  0.21520083  0.41323445  1  0.078532  0  0.113686  0.127179  0  0.989433  0
H  H21  1  0.73220808  0.44694504  0.08684747  1  0.068231  0  0.120273  0.128605  0  0.959583  0
H  H22  1  0.76671856  0.54890129  0.08141106  1  0.093085  0  0.110082  0.123095  0  1.005297  0
H  H23  1  0.24412408  0.65013133  0.25924056  1  0.096194  0  0.111901  0.120357  0  1.023196  0
H  H24  1  0.24414969  0.57409177  0.05759744  1  0.095139  0  0.111798  0.120402  0  1.023072  0
H  H25  1  0.73209556  0.74649751  0.02677314  1  0.0922  0  0.12021  0.128512  0  0.959573  0
H  H26  1  0.76664498  0.75194479  0.13417058  1  0.103488  0  0.1101  0.123056  0  1.005575  0
H  H27  1  0.24408114  0.77572940  0.18319532  1  0.095183  0  0.111861  0.120623  0  1.023019  0
H  H28  1  0.73214951  0.80654678  0.38640474  1  0.098647  0  0.120226  0.128627  0  0.959448  0
H  H29  1  0.76669434  0.69916200  0.28444943  1  0.094955  0  0.110089  0.122915  0  1.005531  0
H  H30  1  0.24023482  0.71485850  0.69762161  1  0.682729  0  0.327811  0.401541  0  0.919703  0
H  H31  1  0.24007592  0.14949832  0.11849118  1  0.682963  0  0.327761  0.401461  0  0.919919  0
H  H32  1  0.24004982  0.13561091  0.68376942  1  0.677804  0  0.327875  0.401622  0  0.91956  0
H  H33  1  0.75391579  0.20102443  0.21417678  1  0.681083  0  0.326051  0.399471  0  0.925057  0
H  H34  1  0.75406552  0.61917768  0.65351392  1  0.679601  0  0.326164  0.399637  0  0.924739  0
H  H35  1  0.75383530  0.17979996  0.63228370  1  0.67466  0  0.326103  0.399672  0  0.924845  0
H  H36  1  0.61004881  0.59668165  0.34061070  1  0.673665  0  0.318831  0.399944  0  0.930216  0
H  H37  1  0.60998135  0.49271906  0.92278823  1  0.668086  0  0.318775  0.39986  0  0.930294  0
H  H38  1  0.60995941  0.91054001  0.23663719  1  0.667493  0  0.318826  0.400066  0  0.930017  0
C  C39  1  0.45904886  0.91708825  0.40942250  1  1.663709  0  0.27823  0.683153  0  4.084088  0
C  C40  1  0.51460237  0.99892683  0.58676551  1  1.634268  0  0.271875  0.681404  0  4.07474  0
C  C41  1  0.43980223  0.09110195  0.50661597  1  1.645187  0  0.281676  0.693772  0  4.056835  0
C  C42  1  0.51454352  0.24656650  0.07880767  1  1.637962  0  0.271948  0.681142  0  4.075114  0
C  C43  1  0.45909371  0.42390797  0.17435137  1  1.657376  0  0.277894  0.682713  0  4.083982  0
C  C44  1  0.43974215  0.32666118  0.25110405  1  1.656909  0  0.28143  0.693776  0  4.056541  0
C  C45  1  0.51459654  0.75451916  0.83445320  1  1.638898  0  0.272026  0.681297  0  4.075179  0
C  C46  1  0.45903622  0.65895814  0.91622806  1  1.65292  0  0.278102  0.683314  0  4.083718  0
C  C47  1  0.43960841  0.58223589  0.74220727  1  1.656934  0  0.281323  0.69332  0  4.057159  0
C  C48  1  0.39254209  0.87334558  0.88282425  1  -0.039306  0  -0.073855  -0.075462  0  3.9511  0
C  C49  1  0.38725897  0.93355988  0.88450094  1  0.03353  0  -0.080568  -0.146852  0  3.949076  0
C  C50  1  0.53723810  0.94099468  0.83592883  1  0.31202  0  0.095106  0.183197  0  4.040005  0
C  C51  1  0.69552747  0.88743120  0.78750547  1  -0.012654  0  -0.088495  -0.188784  0  3.994808  0
C  C52  1  0.69537857  0.82710965  0.78571366  1  -0.109893  0  -0.011639  -0.085344  0  3.948074  0
C  C53  1  0.54320290  0.81837808  0.83319190  1  0.035265  0  -0.000911  -0.034001  0  3.908381  0
C  C54  1  0.69546729  0.06672032  0.94589788  1  -0.010363  0  -0.08876  -0.188612  0  3.995695  0
C  C55  1  0.69526906  0.12524144  0.00622448  1  -0.130549  0  -0.011378  -0.087084  0  3.951541  0
C  C56  1  0.54309682  0.18144656  0.01495234  1  0.035272  0  -0.00092  -0.033649  0  3.909183  0
C  C57  1  0.39244980  0.17611198  0.95997757  1  -0.025221  0  -0.073938  -0.075197  0  3.950107  0
C  C58  1  0.38719571  0.11757504  0.89976041  1  0.005155  0  -0.080593  -0.146679  0  3.949064  0
C  C59  1  0.53720045  0.06157776  0.89232694  1  0.336906  0  0.09493  0.182914  0  4.040106  0
C  C60  1  0.69548227  0.04583653  0.76661218  1  -0.002003  0  -0.088752  -0.188619  0  3.995544  0
C  C61  1  0.69531043  0.04764917  0.70809388  1  -0.108808  0  -0.011307  -0.086808  0  3.951354  0
C  C62  1  0.54312648  0.00017502  0.65188231  1  0.030153  0  -0.000935  -0.033785  0  3.90945  0
C  C63  1  0.39248201  0.95052801  0.65720765  1  -0.039021  0  -0.0738  -0.075158  0  3.950312  0
C  C64  1  0.38722852  0.94883532  0.71573930  1  0.055271  0  -0.080534  -0.146783  0  3.948787  0
C  C65  1  0.53721865  0.99739794  0.77174302  1  0.309673  0  0.094912  0.18302  0  4.040125  0
C  C66  1  0.59018850  0.37704125  0.36821360  1  0.039991  0  -0.070157  -0.068968  0  3.932424  0
C  C67  1  0.61032751  0.38045360  0.42913212  1  0.033644  0  -0.078874  -0.143847  0  3.944265  0
C  C68  1  0.46714493  0.33305476  0.43952219  1  0.284552  0  0.09494  0.181944  0  4.037663  0
C  C69  1  0.30428685  0.28336200  0.38788727  1  0.035175  0  -0.089849  -0.189672  0  4.000344  0
C  C70  1  0.29149454  0.27929460  0.32656540  1  -0.152014  0  -0.012397  -0.092008  0  3.954321  0
C  C71  1  0.43290408  0.32634767  0.31544204  1  -0.015194  0  -0.001328  -0.036681  0  3.916164  0
C  C72  1  0.30432879  0.44546291  0.56210288  1  0.04462  0  -0.090204  -0.190803  0  3.999695  0
C  C73  1  0.29153241  0.50678837  0.61935168  1  -0.161461  0  -0.012168  -0.090662  0  3.95178  0
C  C74  1  0.43275973  0.51790919  0.67754796  1  0.023078  0  -0.001731  -0.037095  0  3.915468  0
C  C75  1  0.58988794  0.46513041  0.67548041  1  0.004954  0  -0.070454  -0.069235  0  3.932462  0
C  C76  1  0.61003570  0.40421184  0.61798041  1  -0.065302  0  -0.078781  -0.143901  0  3.944889  0
C  C77  1  0.46705326  0.39382101  0.56017845  1  0.377735  0  0.09517  0.182344  0  4.037442  0
C  C78  1  0.30422968  0.27119454  0.54996176  1  -0.022297  0  -0.089916  -0.1899  0  3.999445  0
C  C79  1  0.29144199  0.21392150  0.55399887  1  -0.095989  0  -0.012523  -0.091735  0  3.953618  0
C  C80  1  0.43286245  0.15575744  0.50693542  1  0.047728  0  -0.001417  -0.037078  0  3.915337  0
C  C81  1  0.59010752  0.15786739  0.45625056  1  -0.084316  0  -0.070149  -0.068603  0  3.931228  0
C  C82  1  0.61024428  0.21538809  0.45286537  1  0.08377  0  -0.079102  -0.144773  0  3.944356  0
C  C83  1  0.46712165  0.27316086  0.50028246  1  0.255802  0  0.095181  0.182232  0  4.037221  0
C  C84  1  0.62273425  0.49147263  0.12456689  1  0.072041  0  -0.072914  -0.071162  0  3.940342  0
C  C85  1  0.64393042  0.54927381  0.12172975  1  -0.041507  0  -0.083495  -0.152314  0  3.949685  0
C  C86  1  0.50379093  0.60753842  0.16956562  1  0.309901  0  0.094913  0.184315  0  4.01595  0
C  C87  1  0.35091194  0.60589254  0.22070219  1  -0.017216  0  -0.089256  -0.184957  0  3.985707  0
C  C88  1  0.34130224  0.54811096  0.22428256  1  -0.132483  0  -0.014163  -0.111988  0  3.994296  0
C  C89  1  0.46966675  0.48924844  0.17574568  1  0.022599  0  -0.000887  -0.0364  0  3.92743  0
C  C90  1  0.35090392  0.61263393  0.05189038  1  -0.021733  0  -0.089038  -0.185096  0  3.985302  0
C  C91  1  0.34130569  0.60904737  0.99052327  1  -0.122006  0  -0.014101  -0.111401  0  3.9938  0
C  C92  1  0.46963751  0.65758416  0.98018522  1  0.024802  0  -0.000955  -0.03707  0  3.928285  0
C  C93  1  0.62267090  0.70877134  0.03358452  1  0.036518  0  -0.07288  -0.071046  0  3.940508  0
C  C94  1  0.64391791  0.71161196  0.09422749  1  -0.066841  0  -0.083381  -0.1522  0  3.949679  0
C  C95  1  0.50378256  0.66377533  0.10466550  1  0.331955  0  0.09494  0.184601  0  4.015935  0
C  C96  1  0.35085425  0.78143292  0.22743811  1  -0.010526  0  -0.089338  -0.185545  0  3.986048  0
C  C97  1  0.34124036  0.84279348  0.28521959  1  -0.146434  0  -0.014096  -0.11165  0  3.994476  0
C  C98  1  0.46961328  0.85313259  0.34409054  1  0.031772  0  -0.000768  -0.036599  0  3.92811  0
C  C99  1  0.62270560  0.79974061  0.34187433  1  0.028108  0  -0.072992  -0.071366  0  3.940666  0
C  C100  1  0.64391722  0.73910244  0.28407172  1  -0.058788  0  -0.08344  -0.151908  0  3.949659  0
C  C101  1  0.50375386  0.72866336  0.22579991  1  0.320954  0  0.094976  0.184456  0  4.015987  0
S  S102  1  0.82520525  0.76010405  0.71010869  1  3.090668  0  0.555404  1.194943  0  5.928237  0
S  S103  1  0.82510662  0.11662389  0.07322452  1  3.098665  0  0.555182  1.195858  0  5.928507  0
S  S104  1  0.82516565  0.12327436  0.71672589  1  3.096831  0  0.555106  1.195634  0  5.92893  0
S  S105  1  0.15405326  0.20216912  0.26247232  1  3.130748  0  0.556152  1.201068  0  5.932425  0
S  S106  1  0.15409879  0.57086599  0.60628911  1  3.137492  0  0.556429  1.200179  0  5.933175  0
S  S107  1  0.15403443  0.22690943  0.63110720  1  3.140133  0  0.556638  1.201822  0  5.931509  0
S  S108  1  0.18272201  0.55620206  0.29769718  1  3.127915  0  0.561765  1.190643  0  5.967671  0
S  S109  1  0.18269359  0.53563051  0.92520934  1  3.112714  0  0.562051  1.191214  0  5.966139  0
S  S110  1  0.18263284  0.90810840  0.27711915  1  3.126969  0  0.562403  1.19154  0  5.966443  0
N  N111  1  0.52236746  0.99998813  0.83333193  1  -1.23362  0  -0.254205  -0.151876  0  3.667365  0
N  N112  1  0.49037491  0.33334825  0.49999939  1  -1.18876  0  -0.252628  -0.150934  0  3.651416  0
N  N113  1  0.51878193  0.66666031  0.16667736  1  -1.204253  0  -0.247661  -0.148391  0  3.627501  0
O  O114  1  0.67997376  0.07480834  0.52198624  1  -1.23404  0  -0.230507  -0.584305  0  2.386373  0
O  O115  1  0.69359606  0.95129539  0.42456349  1  -1.247944  0  -0.228108  -0.595775  0  2.364321  0
O  O116  1  0.74239934  0.97535072  0.54865128  1  -1.280345  0  -0.256384  -0.654352  0  2.347974  0
O  O117  1  0.20173378  0.05725065  0.48610442  1  -1.270553  0  -0.238031  -0.624541  0  2.396815  0
O  O118  1  0.27048321  0.01544597  0.57382179  1  -1.218157  0  -0.228433  -0.561631  0  2.332482  0
O  O119  1  0.22416365  0.92702594  0.44337640  1  -1.250052  0  -0.237561  -0.6144  0  2.327354  0
O  O120  1  0.20165475  0.34717864  0.23778657  1  -1.269613  0  -0.237845  -0.624606  0  2.396788  0
O  O121  1  0.27040199  0.25950489  0.10826271  1  -1.220763  0  -0.228384  -0.561484  0  2.332736  0
O  O122  1  0.22421678  0.38995264  0.15032459  1  -1.256025  0  -0.237415  -0.61429  0  2.327541  0
O  O123  1  0.67988514  0.31129575  0.21942732  1  -1.236382  0  -0.230339  -0.584306  0  2.386616  0
O  O124  1  0.69364051  0.40876033  0.19340556  1  -1.245411  0  -0.227943  -0.595416  0  2.364132  0
O  O125  1  0.74233211  0.28468956  0.09333979  1  -1.28074  0  -0.256329  -0.654103  0  2.348146  0
O  O126  1  0.20149713  0.59554104  0.77603754  1  -1.271283  0  -0.237764  -0.624571  0  2.397323  0
O  O127  1  0.27042094  0.72507880  0.81794049  1  -1.222018  0  -0.228526  -0.561677  0  2.333145  0
O  O128  1  0.22417630  0.68297343  0.90629391  1  -1.250253  0  -0.2373  -0.614099  0  2.327552  0
O  O129  1  0.67976427  0.61390599  0.75852937  1  -1.238638  0  -0.230246  -0.583908  0  2.386758  0
O  O130  1  0.69356032  0.63988228  0.88200987  1  -1.248796  0  -0.228227  -0.595932  0  2.363787  0
O  O131  1  0.74232167  0.73997635  0.85804624  1  -1.280695  0  -0.256344  -0.654214  0  2.348135  0
O  O132  1  0.17130641  0.76179091  0.71466413  1  -1.252227  0  -0.349302  -0.551315  0  2.365178  0
O  O133  1  0.72650925  0.70078027  0.70961349  1  -1.317909  0  -0.296512  -0.559503  0  2.398566  0
O  O134  1  0.74021339  0.77237998  0.65807650  1  -1.278103  0  -0.30994  -0.507702  0  2.084821  0
O  O135  1  0.17119950  0.11953436  0.07157158  1  -1.253065  0  -0.349395  -0.551412  0  2.365204  0
O  O136  1  0.72628847  0.17541767  0.13255246  1  -1.325558  0  -0.296267  -0.559443  0  2.397788  0
O  O137  1  0.74031694  0.05228960  0.06090567  1  -1.276102  0  -0.309942  -0.507739  0  2.084835  0
O  O138  1  0.17124359  0.11870391  0.71378239  1  -1.249398  0  -0.349511  -0.551541  0  2.364803  0
O  O139  1  0.72621800  0.12382758  0.65794551  1  -1.314208  0  -0.296355  -0.559638  0  2.398235  0
O  O140  1  0.74049639  0.17527476  0.78107251  1  -1.284601  0  -0.309806  -0.507557  0  2.085166  0
O  O141  1  0.81112340  0.20996821  0.25970335  1  -1.284997  0  -0.348954  -0.551118  0  2.372964  0
O  O142  1  0.27457997  0.19355915  0.20112736  1  -1.324445  0  -0.304331  -0.566264  0  2.385007  0
O  O143  1  0.20864056  0.15402916  0.28206912  1  -1.281644  0  -0.304251  -0.503637  0  2.091085  0
O  O144  1  0.81120259  0.57365780  0.61691095  1  -1.284078  0  -0.34923  -0.551457  0  2.373297  0
O  O145  1  0.27480441  0.63222087  0.65897098  1  -1.333595  0  -0.304725  -0.566003  0  2.38428  0
O  O146  1  0.20849737  0.55123078  0.53853491  1  -1.279984  0  -0.303959  -0.503125  0  2.092179  0
O  O147  1  0.81107846  0.21637091  0.62332222  1  -1.278671  0  -0.348912  -0.551388  0  2.372361  0
O  O148  1  0.27449668  0.17414361  0.63966947  1  -1.324067  0  -0.304237  -0.566232  0  2.3851  0
O  O149  1  0.20879533  0.29462802  0.67928147  1  -1.290564  0  -0.304817  -0.504204  0  2.090648  0
O  O150  1  0.90787879  0.59323807  0.30889228  1  -1.33626  0  -0.314413  -0.570706  0  2.284595  0
O  O151  1  0.17525461  0.49352825  0.29475370  1  -1.280894  0  -0.281482  -0.501718  0  2.187785  0
O  O152  1  0.39111260  0.60630326  0.35364311  1  -1.259826  0  -0.348771  -0.516474  0  2.185126  0
O  O153  1  0.90781426  0.52443967  0.95105220  1  -1.331576  0  -0.3146  -0.57102  0  2.284012  0
O  O154  1  0.17525724  0.53856533  0.86547383  1  -1.276764  0  -0.281564  -0.501873  0  2.187683  0
O  O155  1  0.39104518  0.47968483  0.91937865  1  -1.249592  0  -0.348776  -0.51664  0  2.184708  0
O  O156  1  0.90779531  0.88226097  0.24007133  1  -1.334285  0  -0.314608  -0.571147  0  2.2844  0
O  O157  1  0.17512821  0.96783731  0.33979166  1  -1.287292  0  -0.28183  -0.502108  0  2.188179  0
O  O158  1  0.39102731  0.91396139  0.22701910  1  -1.24823  0  -0.348859  -0.516719  0  2.184494  0
