# generated using pymatgen
data_CdH4C3SN3Cl
_symmetry_space_group_name_H-M   'P 1'
_cell_length_a   7.56555216
_cell_length_b   10.70385680
_cell_length_c   17.77000000
_cell_angle_alpha   90.00000000
_cell_angle_beta   90.00000000
_cell_angle_gamma   90.00000000
_symmetry_Int_Tables_number   1
_chemical_formula_structural   CdH4C3SN3Cl
_chemical_formula_sum   'Cd8 H32 C24 S8 N24 Cl8'
_cell_volume   1439.02503111
_cell_formula_units_Z   8
loop_
 _symmetry_equiv_pos_site_id
 _symmetry_equiv_pos_as_xyz
  1  'x, y, z'
loop_
 _atom_site_type_symbol
 _atom_site_label
 _atom_site_symmetry_multiplicity
 _atom_site_fract_x
 _atom_site_fract_y
 _atom_site_fract_z
 _atom_site_occupancy
 _atom_site_hle17_bader_spin_density
 _atom_site_hle17_ddec_charge
 _atom_site_hle17_ddec_spin_density
 _atom_site_hle17_ddec_sum_bond_order
 _atom_site_hle17_magmom
 _atom_site_hse06_10hf_bader_spin_density
 _atom_site_hse06_10hf_ddec_charge
 _atom_site_hse06_10hf_ddec_spin_density
 _atom_site_hse06_10hf_ddec_sum_bond_order
 _atom_site_hse06_10hf_magmom
 _atom_site_hse06_bader_spin_density
 _atom_site_hse06_ddec_charge
 _atom_site_hse06_ddec_spin_density
 _atom_site_hse06_ddec_sum_bond_order
 _atom_site_hse06_magmom
 _atom_site_pbe_bader_charge
 _atom_site_pbe_bader_spin_density
 _atom_site_pbe_cm5_charge
 _atom_site_pbe_ddec_charge
 _atom_site_pbe_ddec_spin_density
 _atom_site_pbe_ddec_sum_bond_order
 _atom_site_pbe_magmom
Cd  Cd0  1  0.82268285  0.82017446  0.33151266  1  0  0.899218  0  1.985827  0  0  0.718032  0  2.464377  0  0  0.763562  0  2.425504  0  1.088251  0  0.610472  0.68589  0  2.490818  0
Cd  Cd1  1  0.67731738  0.67982599  0.83151379  1  0  0.899238  0  1.985814  0  0  0.718071  0  2.464318  0  0  0.763582  0  2.425488  0  1.088209  0  0.610491  0.685931  0  2.490753  0
Cd  Cd2  1  0.82268285  0.17982490  0.16848621  1  0  0.899204  0  1.985803  0  0  0.718028  0  2.464327  0  0  0.76355  0  2.425472  0  1.088214  0  0.610471  0.685887  0  2.490762  0
Cd  Cd3  1  0.67731738  0.32017618  0.66848734  1  0  0.899235  0  1.985804  0  0  0.718057  0  2.464331  0  0  0.76358  0  2.425476  0  1.088178  0  0.610487  0.685916  0  2.490771  0
Cd  Cd4  1  0.17731819  0.17982584  0.66848734  1  0  0.899243  0  1.985812  0  0  0.718072  0  2.464331  0  0  0.763589  0  2.425488  0  1.088256  0  0.61048  0.685931  0  2.490772  0
Cd  Cd5  1  0.32268233  0.32017431  0.16848678  1  0  0.899209  0  1.985835  0  0  0.718036  0  2.464348  0  0  0.763548  0  2.425511  0  1.088223  0  0.610467  0.685894  0  2.490784  0
Cd  Cd6  1  0.17731687  0.82017540  0.83151379  1  0  0.899227  0  1.985813  0  0  0.718052  0  2.464336  0  0  0.76357  0  2.425486  0  1.088236  0  0.610484  0.685911  0  2.490771  0
Cd  Cd7  1  0.32268233  0.67982505  0.33151322  1  0  0.899245  0  1.985814  0  0  0.718075  0  2.464318  0  0  0.763585  0  2.425484  0  1.088246  0  0.610491  0.685933  0  2.490759  0
H  H8  1  0.43737588  0.13031191  0.32699775  1  0  0.110221  0  0.933161  0  0  0.118271  0  1.000271  0  0  0.121113  0  0.99686  0  0.148805  0  0.135609  0.116095  0  1.002878  0
H  H9  1  0.06262596  0.36969011  0.82699887  1  0  0.110188  0  0.933243  0  0  0.11827  0  1.000314  0  0  0.121112  0  0.996903  0  0.148818  0  0.135588  0.116094  0  1.002921  0
H  H10  1  0.43737720  0.86968839  0.17300000  1  0  0.110085  0  0.93324  0  0  0.118194  0  1.000301  0  0  0.121034  0  0.996891  0  0.14878  0  0.135551  0.116018  0  1.002907  0
H  H11  1  0.06262200  0.63031206  0.67300169  1  0  0.110196  0  0.933202  0  0  0.118242  0  1.000319  0  0  0.121083  0  0.996909  0  0.148779  0  0.135594  0.116066  0  1.002927  0
H  H12  1  0.56262252  0.86968839  0.67300281  1  0  0.110214  0  0.933174  0  0  0.118259  0  1.00029  0  0  0.121101  0  0.996879  0  0.148798  0  0.135601  0.116084  0  1.002895  0
H  H13  1  0.93737507  0.63031019  0.17300169  1  0  0.110214  0  0.933218  0  0  0.118255  0  1.00033  0  0  0.121096  0  0.99692  0  0.148809  0  0.135595  0.11608  0  1.002935  0
H  H14  1  0.56262384  0.13031004  0.82699662  1  0  0.110212  0  0.933209  0  0  0.118251  0  1.000321  0  0  0.121093  0  0.99691  0  0.148793  0  0.135606  0.116076  0  1.002926  0
H  H15  1  0.93737507  0.36968731  0.32699887  1  0  0.110182  0  0.933163  0  0  0.118255  0  1.000251  0  0  0.121096  0  0.996841  0  0.14881  0  0.135579  0.11608  0  1.002857  0
H  H16  1  0.34180717  0.04336381  0.45307597  1  0  0.11819  0  0.93451  0  0  0.139062  0  0.993574  0  0  0.140276  0  0.99296  0  0.081875  0  0.103121  0.138031  0  0.994196  0
H  H17  1  0.15819334  0.45663821  0.95307710  1  0  0.118177  0  0.934485  0  0  0.139046  0  0.993551  0  0  0.14026  0  0.992939  0  0.081867  0  0.103126  0.138015  0  0.994171  0
H  H18  1  0.34180453  0.95663742  0.04692234  1  0  0.118185  0  0.934502  0  0  0.139053  0  0.993563  0  0  0.140266  0  0.992951  0  0.081746  0  0.103124  0.138022  0  0.994184  0
H  H19  1  0.15819467  0.54336396  0.54692347  1  0  0.118169  0  0.93451  0  0  0.139035  0  0.993577  0  0  0.140248  0  0.992963  0  0.081878  0  0.103113  0.138004  0  0.994199  0
H  H20  1  0.65819254  0.95663742  0.54692347  1  0  0.118191  0  0.934512  0  0  0.139065  0  0.993574  0  0  0.140279  0  0.992961  0  0.081855  0  0.103117  0.138035  0  0.994194  0
H  H21  1  0.84180373  0.54336209  0.04692290  1  0  0.118129  0  0.934525  0  0  0.139006  0  0.993588  0  0  0.14022  0  0.992974  0  0.081902  0  0.103095  0.137975  0  0.994208  0
H  H22  1  0.65819386  0.04336194  0.95307597  1  0  0.118196  0  0.934507  0  0  0.139067  0  0.993568  0  0  0.140282  0  0.992952  0  0.081793  0  0.103129  0.138036  0  0.994188  0
H  H23  1  0.84180373  0.45663634  0.45307653  1  0  0.118175  0  0.934536  0  0  0.139046  0  0.993596  0  0  0.140259  0  0.992981  0  0.081808  0  0.10311  0.138015  0  0.994218  0
H  H24  1  0.15834006  0.93935020  0.44355768  1  0  0.10343  0  0.977554  0  0  0.116766  0  1.054628  0  0  0.117516  0  1.054493  0  0.09192  0  0.09028  0.116125  0  1.054769  0
H  H25  1  0.34166178  0.56065212  0.94355824  1  0  0.103449  0  0.9775  0  0  0.116771  0  1.054593  0  0  0.117529  0  1.054451  0  0.091863  0  0.090314  0.116129  0  1.054732  0
H  H26  1  0.15833874  0.06065104  0.05644176  1  0  0.103429  0  0.977552  0  0  0.116748  0  1.054641  0  0  0.117507  0  1.054498  0  0.091891  0  0.090281  0.116107  0  1.054779  0
H  H27  1  0.34166046  0.43934911  0.55644288  1  0  0.103439  0  0.977551  0  0  0.116768  0  1.054626  0  0  0.117519  0  1.05449  0  0.091756  0  0.090284  0.116127  0  1.054767  0
H  H28  1  0.84165965  0.06065104  0.55644288  1  0  0.103427  0  0.977556  0  0  0.116761  0  1.054635  0  0  0.117511  0  1.054498  0  0.091837  0  0.090277  0.116119  0  1.054773  0
H  H29  1  0.65833794  0.43934911  0.05644176  1  0  0.10343  0  0.97753  0  0  0.116748  0  1.054624  0  0  0.117508  0  1.05448  0  0.091736  0  0.090275  0.116106  0  1.054762  0
H  H30  1  0.84166097  0.93934833  0.94355712  1  0  0.103432  0  0.977557  0  0  0.116764  0  1.054636  0  0  0.117515  0  1.054499  0  0.091739  0  0.090293  0.116123  0  1.054774  0
H  H31  1  0.65833926  0.56065025  0.44355712  1  0  0.103417  0  0.977578  0  0  0.116765  0  1.054639  0  0  0.117503  0  1.054513  0  0.091774  0  0.09028  0.116124  0  1.054781  0
H  H32  1  0.12510918  0.09409599  0.47939617  1  0  0.108019  0  0.952391  0  0  0.124361  0  1.023076  0  0  0.125059  0  1.02301  0  0.107979  0  0.097233  0.123681  0  1.023342  0
H  H33  1  0.37489134  0.40590696  0.97939730  1  0  0.10798  0  0.952481  0  0  0.124339  0  1.023139  0  0  0.125037  0  1.023075  0  0.107975  0  0.097211  0.123659  0  1.023404  0
H  H34  1  0.12510785  0.90590524  0.02060270  1  0  0.107989  0  0.952413  0  0  0.124332  0  1.023093  0  0  0.12503  0  1.023028  0  0.107951  0  0.09722  0.123651  0  1.023357  0
H  H35  1  0.37489134  0.59409614  0.52060326  1  0  0.108004  0  0.952407  0  0  0.124345  0  1.023087  0  0  0.125043  0  1.023021  0  0.107969  0  0.097218  0.123664  0  1.023354  0
H  H36  1  0.87489054  0.90590524  0.52060383  1  0  0.107999  0  0.952363  0  0  0.124344  0  1.023049  0  0  0.125042  0  1.022985  0  0.107989  0  0.09722  0.123663  0  1.023314  0
H  H37  1  0.62510837  0.59409520  0.02060326  1  0  0.107996  0  0.952419  0  0  0.124338  0  1.023101  0  0  0.125036  0  1.023038  0  0.107969  0  0.097223  0.123658  0  1.023366  0
H  H38  1  0.87489054  0.09409412  0.97939617  1  0  0.108013  0  0.952468  0  0  0.124367  0  1.02313  0  0  0.125065  0  1.023066  0  0.107996  0  0.097227  0.123687  0  1.023395  0
H  H39  1  0.62510837  0.40590509  0.47939730  1  0  0.108012  0  0.952419  0  0  0.12435  0  1.023105  0  0  0.125048  0  1.023039  0  0.107957  0  0.097232  0.12367  0  1.023372  0
C  C40  1  0.01067602  0.09790770  0.32843050  1  0  0.306909  0  3.798477  0  0  0.267341  0  4.088574  0  0  0.286482  0  4.101378  0  0.818261  0  0.204547  0.25438  0  4.079922  0
C  C41  1  0.48932582  0.40209152  0.82843275  1  0  0.306995  0  3.798185  0  0  0.267365  0  4.088375  0  0  0.286505  0  4.101169  0  0.818097  0  0.204509  0.2544  0  4.079731  0
C  C42  1  0.01067734  0.90209073  0.17156669  1  0  0.306937  0  3.798416  0  0  0.267292  0  4.088628  0  0  0.286433  0  4.101431  0  0.818256  0  0.204465  0.254345  0  4.079956  0
C  C43  1  0.48932185  0.59790972  0.67156950  1  0  0.306884  0  3.798478  0  0  0.267313  0  4.088586  0  0  0.286457  0  4.101387  0  0.818275  0  0.204509  0.254352  0  4.079932  0
C  C44  1  0.98932237  0.90209073  0.67156894  1  0  0.306906  0  3.798481  0  0  0.267344  0  4.088575  0  0  0.286488  0  4.101375  0  0.818277  0  0.204516  0.254385  0  4.07992  0
C  C45  1  0.51067522  0.59790878  0.17156837  1  0  0.306851  0  3.798464  0  0  0.2673  0  4.088538  0  0  0.286443  0  4.101341  0  0.81829  0  0.204485  0.254336  0  4.079892  0
C  C46  1  0.98932634  0.09791050  0.82843163  1  0  0.306811  0  3.79849  0  0  0.267286  0  4.088544  0  0  0.286426  0  4.101346  0  0.81828  0  0.204464  0.254317  0  4.079906  0
C  C47  1  0.51067522  0.40208965  0.32843050  1  0  0.307001  0  3.798389  0  0  0.267408  0  4.088506  0  0  0.286557  0  4.101294  0  0.818292  0  0.204515  0.254437  0  4.079871  0
C  C48  1  0.29625201  0.12928891  0.31568149  1  0  0.178495  0  3.636119  0  0  0.110455  0  3.909033  0  0  0.125392  0  3.919999  0  1.030317  0  0.156857  0.100704  0  3.90159  0
C  C49  1  0.20374983  0.37071311  0.81568374  1  0  0.178501  0  3.636152  0  0  0.110445  0  3.909046  0  0  0.125383  0  3.920011  0  1.030192  0  0.156851  0.100696  0  3.9016  0
C  C50  1  0.29625201  0.87071139  0.18431345  1  0  0.178608  0  3.636126  0  0  0.110506  0  3.909047  0  0  0.125443  0  3.920014  0  1.031053  0  0.15685  0.100755  0  3.901604  0
C  C51  1  0.20374587  0.62929000  0.68431795  1  0  0.17851  0  3.636137  0  0  0.110475  0  3.909049  0  0  0.125413  0  3.920015  0  1.030304  0  0.156865  0.100723  0  3.901606  0
C  C52  1  0.70374771  0.87071139  0.68431908  1  0  0.17847  0  3.636117  0  0  0.110441  0  3.909026  0  0  0.125376  0  3.919993  0  1.030326  0  0.156852  0.100692  0  3.901582  0
C  C53  1  0.79625120  0.62928719  0.18431683  1  0  0.178496  0  3.636131  0  0  0.110469  0  3.909041  0  0  0.125405  0  3.920011  0  1.030311  0  0.156869  0.10072  0  3.901596  0
C  C54  1  0.70374903  0.12928798  0.81568149  1  0  0.178518  0  3.636079  0  0  0.110505  0  3.908987  0  0  0.125443  0  3.919949  0  1.030349  0  0.156871  0.100757  0  3.90154  0
C  C55  1  0.79625120  0.37070843  0.31568205  1  0  0.178542  0  3.636042  0  0  0.110481  0  3.908952  0  0  0.12542  0  3.919919  0  1.030265  0  0.156859  0.10073  0  3.901507  0
C  C56  1  0.20106926  0.03696705  0.43971131  1  0  -0.168965  0  3.63752  0  0  -0.274005  0  3.885233  0  0  -0.270336  0  3.893809  0  0.247571  0  -0.139791  -0.276075  0  3.879282  0
C  C57  1  0.29893258  0.46303590  0.93971187  1  0  -0.168893  0  3.637359  0  0  -0.273929  0  3.885093  0  0  -0.270267  0  3.893661  0  0.247577  0  -0.139812  -0.276008  0  3.879166  0
C  C58  1  0.20106662  0.96303512  0.06028700  1  0  -0.168799  0  3.637349  0  0  -0.273819  0  3.885053  0  0  -0.270157  0  3.893618  0  0.247709  0  -0.139744  -0.275901  0  3.879132  0
C  C59  1  0.29893258  0.53696626  0.56028869  1  0  -0.168936  0  3.6375  0  0  -0.273952  0  3.885197  0  0  -0.270283  0  3.893774  0  0.247732  0  -0.139775  -0.276024  0  3.87925  0
C  C60  1  0.79893045  0.96303418  0.56028925  1  0  -0.168944  0  3.63739  0  0  -0.273974  0  3.885089  0  0  -0.270307  0  3.893666  0  0.247642  0  -0.139767  -0.276053  0  3.879162  0
C  C61  1  0.70106582  0.53696533  0.06028869  1  0  -0.168875  0  3.637444  0  0  -0.273895  0  3.885156  0  0  -0.270236  0  3.893723  0  0.247714  0  -0.139756  -0.275974  0  3.87923  0
C  C62  1  0.79893177  0.03696518  0.93971075  1  0  -0.168986  0  3.637535  0  0  -0.27402  0  3.88524  0  0  -0.270354  0  3.893815  0  0.247814  0  -0.139829  -0.276098  0  3.879313  0
C  C63  1  0.70106714  0.46303217  0.43971075  1  0  -0.168938  0  3.637765  0  0  -0.273979  0  3.885457  0  0  -0.270297  0  3.894045  0  0.247799  0  -0.139807  -0.276047  0  3.879502  0
S  S64  1  0.80923770  0.05472700  0.36417276  1  0  -0.461876  0  2.038466  0  0  -0.425211  0  2.380933  0  0  -0.444225  0  2.373162  0  -0.248252  0  -0.218113  -0.411524  0  2.386168  0
S  S65  1  0.69076782  0.44527408  0.86417501  1  0  -0.461883  0  2.038295  0  0  -0.425203  0  2.380786  0  0  -0.444215  0  2.373017  0  -0.247958  0  -0.218089  -0.411516  0  2.386023  0
S  S66  1  0.80923505  0.94527236  0.13582667  1  0  -0.461868  0  2.038344  0  0  -0.425183  0  2.380854  0  0  -0.4442  0  2.373084  0  -0.24809  0  -0.218098  -0.411499  0  2.386081  0
S  S67  1  0.69076254  0.55472809  0.63582724  1  0  -0.461865  0  2.038388  0  0  -0.425204  0  2.380854  0  0  -0.444219  0  2.373082  0  -0.248165  0  -0.218102  -0.41152  0  2.386089  0
S  S68  1  0.19076202  0.94527330  0.63582667  1  0  -0.461894  0  2.038453  0  0  -0.425235  0  2.380919  0  0  -0.44425  0  2.373146  0  -0.248257  0  -0.218112  -0.411549  0  2.386153  0
S  S69  1  0.30923321  0.55472622  0.13582611  1  0  -0.461854  0  2.038386  0  0  -0.425204  0  2.380844  0  0  -0.444214  0  2.373073  0  -0.248116  0  -0.218094  -0.411513  0  2.386079  0
S  S70  1  0.19076598  0.05472700  0.86417445  1  0  -0.461858  0  2.038394  0  0  -0.425214  0  2.380846  0  0  -0.444226  0  2.373076  0  -0.248112  0  -0.218103  -0.411523  0  2.386085  0
S  S71  1  0.30923453  0.44527221  0.36417333  1  0  -0.461907  0  2.038358  0  0  -0.425246  0  2.380838  0  0  -0.44426  0  2.373064  0  -0.248299  0  -0.218115  -0.411559  0  2.386079  0
N  N72  1  0.04074256  0.15134171  0.26153292  1  0  -0.328838  0  3.184194  0  0  -0.268078  0  3.467445  0  0  -0.286323  0  3.486669  0  -0.745419  0  -0.260268  -0.25563  0  3.454132  0
N  N73  1  0.45925927  0.34865937  0.76153405  1  0  -0.328829  0  3.184187  0  0  -0.268023  0  3.467391  0  0  -0.286276  0  3.48664  0  -0.745388  0  -0.260233  -0.255573  0  3.454075  0
N  N74  1  0.04074521  0.84865859  0.23846595  1  0  -0.328786  0  3.184189  0  0  -0.268  0  3.467442  0  0  -0.286237  0  3.486651  0  -0.744965  0  -0.260207  -0.255556  0  3.454125  0
N  N75  1  0.45925531  0.65134279  0.73846708  1  0  -0.32883  0  3.184337  0  0  -0.268056  0  3.467557  0  0  -0.286291  0  3.486756  0  -0.745045  0  -0.260255  -0.255609  0  3.454244  0
N  N76  1  0.95925583  0.84865859  0.73846708  1  0  -0.328801  0  3.184246  0  0  -0.268036  0  3.467494  0  0  -0.286272  0  3.486694  0  -0.745403  0  -0.26022  -0.255587  0  3.45418  0
N  N77  1  0.54074308  0.65133999  0.23846708  1  0  -0.328762  0  3.18421  0  0  -0.267989  0  3.467426  0  0  -0.286225  0  3.486634  0  -0.745381  0  -0.260216  -0.25554  0  3.454115  0
N  N78  1  0.95925847  0.15134171  0.76153348  1  0  -0.328817  0  3.184359  0  0  -0.268058  0  3.467594  0  0  -0.286304  0  3.486825  0  -0.745073  0  -0.260235  -0.255607  0  3.454281  0
N  N79  1  0.54074176  0.34865657  0.26153405  1  0  -0.328892  0  3.184359  0  0  -0.268109  0  3.467599  0  0  -0.286358  0  3.486831  0  -0.745092  0  -0.260281  -0.255658  0  3.454289  0
N  N80  1  0.17260075  0.08411080  0.36373382  1  0  -0.076253  0  3.504498  0  0  0.026361  0  3.725701  0  0  0.009183  0  3.748054  0  -1.217777  0  -0.229576  0.037566  0  3.710394  0
N  N81  1  0.32739976  0.41589121  0.86373382  1  0  -0.076369  0  3.504417  0  0  0.026254  0  3.725658  0  0  0.009078  0  3.748009  0  -1.217708  0  -0.229591  0.03746  0  3.71035  0
N  N82  1  0.17260207  0.91588763  0.13626730  1  0  -0.076462  0  3.504767  0  0  0.026182  0  3.725994  0  0  0.009005  0  3.748347  0  -1.218637  0  -0.229602  0.037384  0  3.710681  0
N  N83  1  0.32739844  0.58411189  0.63626618  1  0  -0.076258  0  3.504576  0  0  0.026346  0  3.725776  0  0  0.009167  0  3.74813  0  -1.217776  0  -0.22956  0.037552  0  3.710467  0
N  N84  1  0.82739896  0.91589043  0.63626674  1  0  -0.076212  0  3.504383  0  0  0.026388  0  3.7256  0  0  0.009212  0  3.747951  0  -1.217789  0  -0.229557  0.037592  0  3.71029  0
N  N85  1  0.67259995  0.58411002  0.13626618  1  0  -0.076259  0  3.50447  0  0  0.026344  0  3.725668  0  0  0.009166  0  3.748024  0  -1.217823  0  -0.229573  0.037549  0  3.71036  0
N  N86  1  0.82739896  0.08410894  0.86373326  1  0  -0.076225  0  3.504385  0  0  0.026355  0  3.725605  0  0  0.00918  0  3.747956  0  -1.217782  0  -0.229549  0.037562  0  3.710299  0
N  N87  1  0.67259995  0.41588841  0.36373551  1  0  -0.076315  0  3.504606  0  0  0.026314  0  3.725792  0  0  0.009134  0  3.748142  0  -1.217726  0  -0.229495  0.037524  0  3.710486  0
N  N88  1  0.21902565  0.17051424  0.25363084  1  0  -0.259825  0  3.210629  0  0  -0.202521  0  3.505309  0  0  -0.21828  0  3.523722  0  -0.776421  0  -0.257229  -0.191642  0  3.492378  0
N  N89  1  0.28097751  0.32948591  0.75363140  1  0  -0.259845  0  3.210644  0  0  -0.202552  0  3.505337  0  0  -0.218313  0  3.523749  0  -0.776309  0  -0.257213  -0.191673  0  3.492404  0
N  N90  1  0.21902697  0.82948326  0.24636860  1  0  -0.259811  0  3.210497  0  0  -0.202494  0  3.505181  0  0  -0.218255  0  3.523596  0  -0.776116  0  -0.257191  -0.191616  0  3.492253  0
N  N91  1  0.28097354  0.67051532  0.74636972  1  0  -0.259831  0  3.210707  0  0  -0.202528  0  3.505381  0  0  -0.218287  0  3.523796  0  -0.776236  0  -0.257232  -0.19165  0  3.492452  0
N  N92  1  0.78097406  0.82948513  0.74636972  1  0  -0.259874  0  3.210741  0  0  -0.202582  0  3.505423  0  0  -0.21834  0  3.523837  0  -0.77645  0  -0.25727  -0.191704  0  3.492492  0
N  N93  1  0.71902617  0.67051439  0.24636916  1  0  -0.259865  0  3.210647  0  0  -0.202575  0  3.505332  0  0  -0.218336  0  3.52375  0  -0.776369  0  -0.257238  -0.191696  0  3.492402  0
N  N94  1  0.78097670  0.17051517  0.75363084  1  0  -0.259822  0  3.210649  0  0  -0.202535  0  3.505336  0  0  -0.218295  0  3.523748  0  -0.776225  0  -0.257225  -0.191656  0  3.492405  0
N  N95  1  0.71902485  0.32948404  0.25363196  1  0  -0.2598  0  3.210648  0  0  -0.202509  0  3.505345  0  0  -0.218269  0  3.523757  0  -0.776212  0  -0.257219  -0.191631  0  3.492415  0
Cl  Cl96  1  0.03790602  0.70396028  0.41683005  1  0  -0.528713  0  0.996154  0  0  -0.450837  0  1.278412  0  0  -0.469415  0  1.255921  0  -0.627457  0  -0.293136  -0.4376  0  1.293946  0
Cl  Cl97  1  0.46209317  0.79603924  0.91683061  1  0  -0.528709  0  0.996156  0  0  -0.450836  0  1.278404  0  0  -0.469411  0  1.255918  0  -0.627434  0  -0.293134  -0.437595  0  1.293937  0
Cl  Cl98  1  0.03790602  0.29604002  0.08316939  1  0  -0.528708  0  0.996143  0  0  -0.450836  0  1.278398  0  0  -0.469413  0  1.25591  0  -0.627434  0  -0.293136  -0.437596  0  1.293928  0
Cl  Cl99  1  0.46209449  0.20396106  0.58317051  1  0  -0.52872  0  0.996158  0  0  -0.450847  0  1.278408  0  0  -0.469422  0  1.255917  0  -0.627441  0  -0.293148  -0.437611  0  1.293947  0
Cl  Cl100  1  0.96209369  0.29604096  0.58317051  1  0  -0.528712  0  0.996159  0  0  -0.45083  0  1.278396  0  0  -0.469406  0  1.255905  0  -0.62744  0  -0.29314  -0.437595  0  1.293934  0
Cl  Cl101  1  0.53790654  0.20395919  0.08316939  1  0  -0.528716  0  0.996154  0  0  -0.450834  0  1.278388  0  0  -0.469408  0  1.255901  0  -0.627431  0  -0.293135  -0.437595  0  1.293923  0
Cl  Cl102  1  0.96209369  0.70396121  0.91683118  1  0  -0.528715  0  0.996149  0  0  -0.450849  0  1.27841  0  0  -0.469425  0  1.255922  0  -0.627467  0  -0.293142  -0.437607  0  1.293937  0
Cl  Cl103  1  0.53790654  0.79603924  0.41683005  1  0  -0.528728  0  0.996157  0  0  -0.450856  0  1.278414  0  0  -0.469433  0  1.255921  0  -0.627455  0  -0.293145  -0.437619  0  1.293948  0
