# generated using pymatgen
data_EuH9C23N4(OF3)6
_symmetry_space_group_name_H-M   'P 1'
_cell_length_a   10.86211037
_cell_length_b   12.35074973
_cell_length_c   14.15625462
_cell_angle_alpha   109.38577637
_cell_angle_beta   93.18118832
_cell_angle_gamma   115.31052733
_symmetry_Int_Tables_number   1
_chemical_formula_structural   EuH9C23N4(OF3)6
_chemical_formula_sum   'Eu2 H18 C46 N8 O12 F36'
_cell_volume   1575.50221755
_cell_formula_units_Z   2
loop_
 _symmetry_equiv_pos_site_id
 _symmetry_equiv_pos_as_xyz
  1  'x, y, z'
loop_
 _atom_site_type_symbol
 _atom_site_label
 _atom_site_symmetry_multiplicity
 _atom_site_fract_x
 _atom_site_fract_y
 _atom_site_fract_z
 _atom_site_occupancy
 _atom_site_hle17_bader_spin_density
 _atom_site_hle17_ddec_charge
 _atom_site_hle17_ddec_spin_density
 _atom_site_hle17_ddec_sum_bond_order
 _atom_site_hle17_magmom
 _atom_site_hse06_10hf_bader_spin_density
 _atom_site_hse06_10hf_ddec_charge
 _atom_site_hse06_10hf_ddec_spin_density
 _atom_site_hse06_10hf_ddec_sum_bond_order
 _atom_site_hse06_10hf_magmom
 _atom_site_hse06_bader_spin_density
 _atom_site_hse06_ddec_charge
 _atom_site_hse06_ddec_spin_density
 _atom_site_hse06_ddec_sum_bond_order
 _atom_site_hse06_magmom
 _atom_site_pbe_bader_spin_density
 _atom_site_pbe_cm5_charge
 _atom_site_pbe_ddec_charge
 _atom_site_pbe_ddec_spin_density
 _atom_site_pbe_ddec_sum_bond_order
 _atom_site_pbe_magmom
Eu  Eu0  1  0.47692175  0.47615172  0.74130641  1  0  2.154911  0  1.706183  0  0  1.953521  0  2.225682  0  0  2.099101  0  2.005558  0  0  1.487451  1.914345  0  2.256369  0
Eu  Eu1  1  0.52307910  0.52384867  0.25869358  1  0  2.154922  0  1.706186  0  0  1.953537  0  2.225657  0  0  2.099119  0  2.005532  0  0  1.487456  1.91436  0  2.256344  0
H  H2  1  0.67503552  0.34155329  0.11048720  1  0  0.096145  0  0.91334  0  0  0.103237  0  0.97283  0  0  0.10608  0  0.969677  0  0  0.130037  0.101017  0  0.975391  0
H  H3  1  0.32496398  0.65844620  0.88951279  1  0  0.096169  0  0.913302  0  0  0.103232  0  0.972854  0  0  0.106075  0  0.969701  0  0  0.130031  0.101009  0  0.975413  0
H  H4  1  0.26326533  0.58714807  0.36257402  1  0  0.089614  0  0.935882  0  0  0.09077  0  1.010479  0  0  0.093997  0  1.006163  0  0  0.120931  0.088247  0  1.013893  0
H  H5  1  0.73673416  0.41285142  0.63742597  1  0  0.089602  0  0.935902  0  0  0.090763  0  1.01048  0  0  0.093988  0  1.006165  0  0  0.120914  0.088241  0  1.013892  0
H  H6  1  0.32110435  0.65530052  0.68554162  1  0  0.096058  0  0.923919  0  0  0.100628  0  0.989116  0  0  0.103926  0  0.984562  0  0  0.127218  0.098041  0  0.992733  0
H  H7  1  0.67889650  0.34469986  0.31445837  1  0  0.096048  0  0.923956  0  0  0.10065  0  0.989117  0  0  0.103949  0  0.984563  0  0  0.12723  0.098063  0  0.992733  0
H  H8  1  0.79120950  0.32378120  0.95944660  1  0  0.130366  0  0.92679  0  0  0.139618  0  0.980236  0  0  0.143241  0  0.979469  0  0  0.118808  0.137261  0  0.980291  0
H  H9  1  0.20878980  0.67621778  0.04055416  1  0  0.130563  0  0.926352  0  0  0.139613  0  0.980171  0  0  0.143235  0  0.979404  0  0  0.118795  0.137256  0  0.980227  0
H  H10  1  0.73682514  0.41142621  0.83286872  1  0  0.093749  0  0.941414  0  0  0.095396  0  1.014538  0  0  0.098626  0  1.009822  0  0  0.121  0.092892  0  1.018198  0
H  H11  1  0.26317504  0.58857289  0.16713050  1  0  0.093621  0  0.941716  0  0  0.095375  0  1.014533  0  0  0.098605  0  1.009818  0  0  0.120998  0.092871  0  1.018193  0
H  H12  1  0.87108129  0.92900490  0.89521598  1  0  0.143939  0  0.985014  0  0  0.139523  0  1.06852  0  0  0.144237  0  1.067952  0  0  0.092566  0.13623  0  1.068919  0
H  H13  1  0.12891932  0.07099510  0.10478324  1  0  0.143987  0  0.984974  0  0  0.139569  0  1.068496  0  0  0.144283  0  1.067927  0  0  0.092575  0.136277  0  1.068894  0
H  H14  1  0.98664954  0.22441373  0.76536250  1  0  0.147561  0  0.956285  0  0  0.148553  0  1.027216  0  0  0.153668  0  1.025966  0  0  0.099785  0.144891  0  1.028346  0
H  H15  1  0.01335039  0.77558666  0.23463749  1  0  0.147591  0  0.956217  0  0  0.148584  0  1.027163  0  0  0.153698  0  1.025913  0  0  0.099798  0.144921  0  1.028294  0
H  H16  1  0.20542738  0.67204241  0.53420093  1  0  0.131232  0  0.930269  0  0  0.137671  0  0.986825  0  0  0.141697  0  0.985385  0  0  0.116327  0.134981  0  0.98751  0
H  H17  1  0.79457323  0.32795759  0.46579829  1  0  0.131259  0  0.930232  0  0  0.137718  0  0.986767  0  0  0.141745  0  0.985324  0  0  0.116356  0.135028  0  0.987453  0
H  H18  1  0.28927479  0.01038211  0.51254612  1  0  0.146577  0  0.972431  0  0  0.144994  0  1.047866  0  0  0.15022  0  1.046572  0  0  0.096403  0.141306  0  1.048878  0
H  H19  1  0.71072514  0.98961827  0.48745387  1  0  0.146578  0  0.972429  0  0  0.144993  0  1.047864  0  0  0.150219  0  1.04657  0  0  0.0964  0.141306  0  1.048875  0
C  C20  1  0.64777643  0.80982051  0.84646510  1  0  0.317993  0  3.807484  0  0  0.300027  0  4.074378  0  0  0.323403  0  4.081543  0  0  0.124015  0.284721  0  4.071577  0
C  C21  1  0.35222442  0.19017988  0.15353489  1  0  0.317996  0  3.8074  0  0  0.30002  0  4.074358  0  0  0.323396  0  4.081525  0  0  0.12401  0.284714  0  4.071558  0
C  C22  1  0.78565232  0.83025027  0.86107989  1  0  -0.339895  0  3.742555  0  0  -0.393787  0  4.031936  0  0  -0.416282  0  4.051702  0  0  -0.149296  -0.378883  0  4.018353  0
C  C23  1  0.21434785  0.16974884  0.13891933  1  0  -0.339949  0  3.742651  0  0  -0.393835  0  4.031984  0  0  -0.416329  0  4.051752  0  0  -0.149261  -0.37893  0  4.0184  0
C  C24  1  0.81473041  0.72539744  0.83335484  1  0  0.312476  0  3.814003  0  0  0.293206  0  4.085033  0  0  0.316251  0  4.092921  0  0  0.121562  0.278034  0  4.082058  0
C  C25  1  0.18526977  0.27460166  0.16664438  1  0  0.311951  0  3.814937  0  0  0.2932  0  4.085004  0  0  0.316242  0  4.092899  0  0  0.12154  0.278025  0  4.082031  0
C  C26  1  0.96951241  0.75587207  0.85415091  1  0  0.716348  0  3.627367  0  0  0.644393  0  3.967069  0  0  0.672665  0  3.939692  0  0  0.297578  0.624038  0  3.986689  0
C  C27  1  0.03048801  0.24412742  0.14584907  1  0  0.715409  0  3.629298  0  0  0.644368  0  3.967117  0  0  0.672637  0  3.939743  0  0  0.297569  0.624011  0  3.98674  0
C  C28  1  0.62306204  0.92982390  0.88351979  1  0  0.709945  0  3.641085  0  0  0.640799  0  3.975063  0  0  0.668838  0  3.948171  0  0  0.296377  0.620685  0  3.993929  0
C  C29  1  0.37693789  0.07017648  0.11648020  1  0  0.710005  0  3.641124  0  0  0.640852  0  3.975099  0  0  0.66889  0  3.948208  0  0  0.296396  0.620735  0  3.993971  0
C  C30  1  0.19693451  0.25219769  0.79359585  1  0  0.304382  0  3.833683  0  0  0.286823  0  4.101317  0  0  0.309229  0  4.110074  0  0  0.118808  0.27232  0  4.096931  0
C  C31  1  0.80306634  0.74780270  0.20640414  1  0  0.304384  0  3.833671  0  0  0.286823  0  4.101319  0  0  0.309227  0  4.110076  0  0  0.118813  0.272321  0  4.096936  0
C  C32  1  0.09442787  0.28239727  0.76397967  1  0  -0.353643  0  3.753068  0  0  -0.406923  0  4.04112  0  0  -0.430298  0  4.062659  0  0  -0.151568  -0.391484  0  4.026674  0
C  C33  1  0.90557163  0.71760222  0.23602032  1  0  -0.353656  0  3.753022  0  0  -0.406958  0  4.041129  0  0  -0.430331  0  4.062663  0  0  -0.151598  -0.391517  0  4.026679  0
C  C34  1  0.12722971  0.38219204  0.72814592  1  0  0.306339  0  3.835949  0  0  0.286404  0  4.105607  0  0  0.309446  0  4.113365  0  0  0.122902  0.271278  0  4.102385  0
C  C35  1  0.87277021  0.61780835  0.27185406  1  0  0.3063  0  3.836013  0  0  0.286377  0  4.105677  0  0  0.309417  0  4.113435  0  0  0.122895  0.271251  0  4.102455  0
C  C36  1  0.00075024  0.39316750  0.68553553  1  0  0.709292  0  3.620994  0  0  0.639958  0  3.954897  0  0  0.668367  0  3.927661  0  0  0.302571  0.619468  0  3.974399  0
C  C37  1  0.99925061  0.60683289  0.31446446  1  0  0.709212  0  3.621092  0  0  0.639893  0  3.954965  0  0  0.668304  0  3.927731  0  0  0.302558  0.619405  0  3.974468  0
C  C38  1  0.15466609  0.14245307  0.83392299  1  0  0.71436  0  3.637348  0  0  0.642642  0  3.975224  0  0  0.671786  0  3.94626  0  0  0.29748  0.622096  0  3.994922  0
C  C39  1  0.84533384  0.85754732  0.16607700  1  0  0.714347  0  3.637295  0  0  0.642597  0  3.975223  0  0  0.671737  0  3.946269  0  0  0.297469  0.622041  0  3.994943  0
C  C40  1  0.27983342  0.18743626  0.53330908  1  0  0.310528  0  3.817168  0  0  0.29564  0  4.079909  0  0  0.318011  0  4.088452  0  0  0.1217  0.281042  0  4.076  0
C  C41  1  0.72016718  0.81256375  0.46669014  1  0  0.31066  0  3.817093  0  0  0.295758  0  4.079846  0  0  0.318132  0  4.088384  0  0  0.12174  0.28116  0  4.075936  0
C  C42  1  0.33664724  0.11444028  0.55748272  1  0  -0.35086  0  3.739739  0  0  -0.400973  0  4.021269  0  0  -0.423987  0  4.04207  0  0  -0.149523  -0.385801  0  4.007206  0
C  C43  1  0.66335361  0.88556010  0.44251727  1  0  -0.350879  0  3.739712  0  0  -0.400979  0  4.021243  0  0  -0.423991  0  4.04204  0  0  -0.149501  -0.385806  0  4.007182  0
C  C44  1  0.45620667  0.17493071  0.63690499  1  0  0.312891  0  3.82326  0  0  0.292707  0  4.092686  0  0  0.315542  0  4.101282  0  0  0.121893  0.277679  0  4.088933  0
C  C45  1  0.54379282  0.82506878  0.36309500  1  0  0.312916  0  3.823277  0  0  0.292723  0  4.092704  0  0  0.315558  0  4.101297  0  0  0.121889  0.277688  0  4.088953  0
C  C46  1  0.50912315  0.08872776  0.66404839  1  0  0.71101  0  3.634988  0  0  0.639482  0  3.97392  0  0  0.667594  0  3.946915  0  0  0.297272  0.61927  0  3.993109  0
C  C47  1  0.49087654  0.91127224  0.33595083  1  0  0.710894  0  3.635222  0  0  0.639398  0  3.974116  0  0  0.667513  0  3.947107  0  0  0.297266  0.619206  0  3.993285  0
C  C48  1  0.16081693  0.12066924  0.43622571  1  0  0.709366  0  3.641726  0  0  0.638609  0  3.978414  0  0  0.667494  0  3.949738  0  0  0.29464  0.617936  0  3.998586  0
C  C49  1  0.83918299  0.87933115  0.56377428  1  0  0.709399  0  3.641721  0  0  0.638647  0  3.978407  0  0  0.667536  0  3.94974  0  0  0.29468  0.617975  0  3.998579  0
C  C50  1  0.69102483  0.41401436  0.89937881  1  0  0.215478  0  3.645884  0  0  0.178665  0  3.911759  0  0  0.189788  0  3.927874  0  0  0.080308  0.171465  0  3.902588  0
C  C51  1  0.30897558  0.58598513  0.10062118  1  0  0.215369  0  3.646236  0  0  0.178706  0  3.911695  0  0  0.189828  0  3.927808  0  0  0.080317  0.171505  0  3.902525  0
C  C52  1  0.72173651  0.36718334  0.96946535  1  0  -0.153421  0  3.657201  0  0  -0.167157  0  3.909571  0  0  -0.178314  0  3.930116  0  0  -0.068314  -0.159682  0  3.89438  0
C  C53  1  0.27826391  0.63281615  0.03053464  1  0  -0.153388  0  3.656941  0  0  -0.167169  0  3.909482  0  0  -0.178327  0  3.930029  0  0  -0.068317  -0.159694  0  3.894291  0
C  C54  1  0.65869451  0.37716942  0.05256646  1  0  0.208511  0  3.656475  0  0  0.175368  0  3.916008  0  0  0.184986  0  3.934836  0  0  0.079085  0.169063  0  3.90526  0
C  C55  1  0.34130498  0.62283008  0.94743353  1  0  0.20848  0  3.656426  0  0  0.175332  0  3.915986  0  0  0.18495  0  3.934814  0  0  0.079074  0.169032  0  3.905233  0
C  C56  1  0.54811821  0.47133567  0.99336035  1  0  0.336703  0  3.739355  0  0  0.316014  0  3.997103  0  0  0.329302  0  4.013757  0  0  0.26604  0.30724  0  3.988726  0
C  C57  1  0.45188172  0.52866472  0.00663964  1  0  0.336674  0  3.739343  0  0  0.315984  0  3.997098  0  0  0.329271  0  4.013751  0  0  0.266031  0.307209  0  3.988721  0
C  C58  1  0.33889241  0.62044432  0.60900172  1  0  0.220421  0  3.639338  0  0  0.184297  0  3.901215  0  0  0.195397  0  3.917122  0  0  0.083093  0.176987  0  3.892391  0
C  C59  1  0.66110751  0.37955607  0.39099827  1  0  0.220388  0  3.639415  0  0  0.184239  0  3.901303  0  0  0.195338  0  3.917213  0  0  0.083081  0.176932  0  3.892478  0
C  C60  1  0.27608494  0.63005627  0.52586434  1  0  -0.155507  0  3.653441  0  0  -0.168934  0  3.907845  0  0  -0.179981  0  3.927947  0  0  -0.071116  -0.161699  0  3.89326  0
C  C61  1  0.72391455  0.36994322  0.47413564  1  0  -0.155482  0  3.653439  0  0  -0.168927  0  3.907855  0  0  -0.179971  0  3.927953  0  0  -0.071144  -0.161694  0  3.893271  0
C  C62  1  0.30805707  0.58422861  0.43181233  1  0  0.209977  0  3.655071  0  0  0.176346  0  3.915209  0  0  0.186193  0  3.93405  0  0  0.077169  0.16991  0  3.904563  0
C  C63  1  0.69194286  0.41577177  0.56818766  1  0  0.209966  0  3.655117  0  0  0.176324  0  3.91525  0  0  0.186173  0  3.934092  0  0  0.077191  0.16989  0  3.904602  0
C  C64  1  0.45127113  0.52787055  0.50555962  1  0  0.339484  0  3.740986  0  0  0.319167  0  3.997043  0  0  0.332389  0  4.014229  0  0  0.26824  0.310315  0  3.988685  0
C  C65  1  0.54872812  0.47212856  0.49443960  1  0  0.339461  0  3.740968  0  0  0.319183  0  3.99698  0  0  0.332406  0  4.014165  0  0  0.268257  0.310332  0  3.988621  0
N  N66  1  0.60067198  0.46235920  0.90921423  1  0  -0.410701  0  3.143481  0  0  -0.360374  0  3.404712  0  0  -0.385384  0  3.421517  0  0  -0.329509  -0.348951  0  3.394489  0
N  N67  1  0.39932751  0.53764029  0.09078576  1  0  -0.410751  0  3.143635  0  0  -0.360366  0  3.404711  0  0  -0.385375  0  3.421514  0  0  -0.329497  -0.348944  0  3.394489  0
N  N68  1  0.57545263  0.43331135  0.06684241  1  0  -0.425222  0  3.163783  0  0  -0.37403  0  3.421211  0  0  -0.399511  0  3.440101  0  0  -0.332096  -0.362603  0  3.409711  0
N  N69  1  0.42454822  0.56668904  0.93315758  1  0  -0.425162  0  3.163703  0  0  -0.373975  0  3.421125  0  0  -0.399455  0  3.440016  0  0  -0.332087  -0.362547  0  3.409623  0
N  N70  1  0.42326269  0.56564061  0.59844976  1  0  -0.409477  0  3.145302  0  0  -0.358817  0  3.405152  0  0  -0.383986  0  3.422066  0  0  -0.330818  -0.347379  0  3.394875  0
N  N71  1  0.57673724  0.43435977  0.40155023  1  0  -0.409517  0  3.145341  0  0  -0.35887  0  3.405199  0  0  -0.38404  0  3.422115  0  0  -0.33086  -0.347433  0  3.394923  0
N  N72  1  0.39924061  0.53673170  0.42190641  1  0  -0.428437  0  3.165376  0  0  -0.375354  0  3.420324  0  0  -0.401482  0  3.439119  0  0  -0.337868  -0.363715  0  3.408944  0
N  N73  1  0.60075888  0.46326779  0.57809358  1  0  -0.428412  0  3.165357  0  0  -0.375331  0  3.420282  0  0  -0.401459  0  3.439076  0  0  -0.337873  -0.363692  0  3.408901  0
O  O74  1  0.53674257  0.70201351  0.80928748  1  0  -0.588531  0  2.186491  0  0  -0.54989  0  2.442977  0  0  -0.583896  0  2.43749  0  0  -0.355409  -0.534014  0  2.44507  0
O  O75  1  0.46325804  0.29798649  0.19071174  1  0  -0.58853  0  2.1864  0  0  -0.54989  0  2.442928  0  0  -0.583889  0  2.437428  0  0  -0.35543  -0.534015  0  2.445022  0
O  O76  1  0.72855159  0.60499781  0.79143756  1  0  -0.585169  0  2.140527  0  0  -0.547638  0  2.397167  0  0  -0.581725  0  2.391135  0  0  -0.354522  -0.531922  0  2.399672  0
O  O77  1  0.27144790  0.39500168  0.20856243  1  0  -0.585497  0  2.141156  0  0  -0.54761  0  2.397119  0  0  -0.581695  0  2.39109  0  0  -0.354508  -0.531888  0  2.399615  0
O  O78  1  0.32388753  0.30323316  0.78993363  1  0  -0.565571  0  2.184269  0  0  -0.526344  0  2.430544  0  0  -0.559472  0  2.427629  0  0  -0.347852  -0.510151  0  2.430148  0
O  O79  1  0.67611216  0.69676684  0.21006559  1  0  -0.565557  0  2.184268  0  0  -0.526324  0  2.43052  0  0  -0.559461  0  2.427626  0  0  -0.347846  -0.51013  0  2.430122  0
O  O80  1  0.24585104  0.46383712  0.72630673  1  0  -0.561001  0  2.173477  0  0  -0.519082  0  2.421896  0  0  -0.551536  0  2.416133  0  0  -0.336696  -0.503296  0  2.423622  0
O  O81  1  0.75414957  0.53616288  0.27369249  1  0  -0.560963  0  2.173479  0  0  -0.519055  0  2.421918  0  0  -0.551508  0  2.416156  0  0  -0.336682  -0.50327  0  2.423645  0
O  O82  1  0.31554334  0.30630655  0.58129685  1  0  -0.566194  0  2.17  0  0  -0.52586  0  2.409756  0  0  -0.558712  0  2.406599  0  0  -0.349555  -0.509961  0  2.409566  0
O  O83  1  0.68445659  0.69369384  0.41870314  1  0  -0.566263  0  2.170014  0  0  -0.525922  0  2.409771  0  0  -0.558776  0  2.406613  0  0  -0.349594  -0.510022  0  2.409582  0
O  O84  1  0.52957715  0.29511310  0.69232220  1  0  -0.576858  0  2.156985  0  0  -0.53502  0  2.410856  0  0  -0.568512  0  2.404912  0  0  -0.347142  -0.518822  0  2.413031  0
O  O85  1  0.47042235  0.70488639  0.30767779  1  0  -0.576878  0  2.157004  0  0  -0.535037  0  2.410856  0  0  -0.568529  0  2.404912  0  0  -0.347153  -0.518837  0  2.413033  0
F  F86  1  0.05989407  0.88377091  0.91082301  1  0  -0.248511  0  1.182156  0  0  -0.208726  0  1.349042  0  0  -0.217772  0  1.331691  0  0  -0.098685  -0.20211  0  1.361182  0
F  F87  1  0.94010585  0.11622947  0.08917698  1  0  -0.249173  0  1.182623  0  0  -0.20871  0  1.349083  0  0  -0.217756  0  1.331733  0  0  -0.098676  -0.202096  0  1.361224  0
F  F88  1  0.00884563  0.72108067  0.76365831  1  0  -0.242371  0  1.122495  0  0  -0.212791  0  1.279599  0  0  -0.220819  0  1.26248  0  0  -0.111238  -0.206899  0  1.2916  0
F  F89  1  0.99115522  0.27891971  0.23634168  1  0  -0.243015  0  1.122793  0  0  -0.212794  0  1.279591  0  0  -0.220823  0  1.262474  0  0  -0.111236  -0.206902  0  1.291593  0
F  F90  1  0.98815584  0.68619354  0.90610883  1  0  -0.259411  0  1.121926  0  0  -0.224293  0  1.277937  0  0  -0.232509  0  1.261081  0  0  -0.115834  -0.218065  0  1.289369  0
F  F91  1  0.01184409  0.31380685  0.09389115  1  0  -0.25496  0  1.117444  0  0  -0.224298  0  1.277933  0  0  -0.232514  0  1.261079  0  0  -0.115848  -0.218068  0  1.289365  0
F  F92  1  0.50715509  0.90774056  0.82197217  1  0  -0.237649  0  1.157801  0  0  -0.208649  0  1.323014  0  0  -0.217032  0  1.305464  0  0  -0.104699  -0.202443  0  1.33527  0
F  F93  1  0.49284484  0.09225982  0.17802782  1  0  -0.237662  0  1.157779  0  0  -0.20866  0  1.322999  0  0  -0.217047  0  1.30545  0  0  -0.104709  -0.202453  0  1.335256  0
F  F94  1  0.60175822  0.95422094  0.98093203  1  0  -0.243244  0  1.132305  0  0  -0.214232  0  1.292841  0  0  -0.222564  0  1.275313  0  0  -0.109351  -0.207964  0  1.304969  0
F  F95  1  0.39824262  0.04577945  0.01906796  1  0  -0.243252  0  1.132283  0  0  -0.214244  0  1.292829  0  0  -0.222575  0  1.275301  0  0  -0.109352  -0.207975  0  1.304959  0
F  F96  1  0.73227869  0.04044181  0.88546813  1  0  -0.251114  0  1.143588  0  0  -0.214199  0  1.301589  0  0  -0.22272  0  1.284374  0  0  -0.106862  -0.20805  0  1.313737  0
F  F97  1  0.26772216  0.95955857  0.11453186  1  0  -0.251063  0  1.143474  0  0  -0.214227  0  1.301665  0  0  -0.222747  0  1.28445  0  0  -0.106874  -0.208078  0  1.313814  0
F  F98  1  0.03988122  0.49424004  0.65586280  1  0  -0.228767  0  1.176656  0  0  -0.200126  0  1.345405  0  0  -0.209574  0  1.329751  0  0  -0.092081  -0.192703  0  1.35547  0
F  F99  1  0.96011827  0.50575945  0.34413719  1  0  -0.228757  0  1.176725  0  0  -0.200088  0  1.345401  0  0  -0.209537  0  1.329751  0  0  -0.092059  -0.192665  0  1.355466  0
F  F100  1  0.92426587  0.40977966  0.75788896  1  0  -0.259591  0  1.155293  0  0  -0.219354  0  1.31685  0  0  -0.229944  0  1.301539  0  0  -0.098977  -0.211503  0  1.327311  0
F  F101  1  0.07573405  0.59022073  0.24211103  1  0  -0.259906  0  1.155541  0  0  -0.219333  0  1.316871  0  0  -0.229921  0  1.301561  0  0  -0.098969  -0.211483  0  1.327333  0
F  F102  1  0.91187459  0.28248558  0.60203282  1  0  -0.248285  0  1.144358  0  0  -0.203652  0  1.293417  0  0  -0.213052  0  1.277356  0  0  -0.097366  -0.196747  0  1.304659  0
F  F103  1  0.08812534  0.71751481  0.39796717  1  0  -0.24827  0  1.144368  0  0  -0.203632  0  1.293419  0  0  -0.213031  0  1.277359  0  0  -0.097368  -0.196728  0  1.304661  0
F  F104  1  0.02625267  0.10606219  0.85673867  1  0  -0.252546  0  1.182628  0  0  -0.211298  0  1.347719  0  0  -0.220311  0  1.330837  0  0  -0.098134  -0.204419  0  1.359371  0
F  F105  1  0.97374774  0.89393731  0.14326132  1  0  -0.252426  0  1.182346  0  0  -0.211281  0  1.347684  0  0  -0.220296  0  1.330805  0  0  -0.098131  -0.204399  0  1.35934  0
F  F106  1  0.24937647  0.18223954  0.92137318  1  0  -0.241472  0  1.16066  0  0  -0.199929  0  1.316186  0  0  -0.212652  0  1.305277  0  0  -0.101195  -0.192694  0  1.326234  0
F  F107  1  0.75062482  0.81776174  0.07862681  1  0  -0.241455  0  1.160615  0  0  -0.199917  0  1.316183  0  0  -0.21262  0  1.30526  0  0  -0.101188  -0.19268  0  1.326236  0
F  F108  1  0.15190800  0.03467924  0.76317737  1  0  -0.237145  0  1.132207  0  0  -0.21049  0  1.293418  0  0  -0.218488  0  1.276283  0  0  -0.106777  -0.204285  0  1.305248  0
F  F109  1  0.84809193  0.96532115  0.23682262  1  0  -0.23715  0  1.13219  0  0  -0.210488  0  1.293423  0  0  -0.21849  0  1.27629  0  0  -0.106785  -0.204283  0  1.305258  0
F  F110  1  0.04657543  0.13300654  0.46014405  1  0  -0.238807  0  1.137852  0  0  -0.210042  0  1.298757  0  0  -0.218401  0  1.281786  0  0  -0.108204  -0.203889  0  1.310521  0
F  F111  1  0.95342450  0.86699384  0.53985594  1  0  -0.238829  0  1.137851  0  0  -0.210061  0  1.298756  0  0  -0.218423  0  1.281787  0  0  -0.108215  -0.203911  0  1.31052  0
F  F112  1  0.20444604  0.17886929  0.36870788  1  0  -0.249112  0  1.138055  0  0  -0.20764  0  1.289809  0  0  -0.216907  0  1.27443  0  0  -0.105876  -0.200724  0  1.300388  0
F  F113  1  0.79555364  0.82113072  0.63129134  1  0  -0.249129  0  1.138109  0  0  -0.207659  0  1.289863  0  0  -0.216925  0  1.274485  0  0  -0.105889  -0.200742  0  1.300442  0
F  F114  1  0.11879974  0.99140183  0.38569987  1  0  -0.245472  0  1.183976  0  0  -0.21231  0  1.359283  0  0  -0.222171  0  1.343326  0  0  -0.099066  -0.205147  0  1.370409  0
F  F115  1  0.88120038  0.00859907  0.61429935  1  0  -0.245494  0  1.183985  0  0  -0.212336  0  1.359289  0  0  -0.222201  0  1.343336  0  0  -0.099085  -0.205172  0  1.370416  0
F  F116  1  0.49946733  0.09870924  0.76168516  1  0  -0.239995  0  1.160602  0  0  -0.203452  0  1.318994  0  0  -0.212484  0  1.302499  0  0  -0.100474  -0.196774  0  1.330493  0
F  F117  1  0.50053309  0.90129025  0.23831483  1  0  -0.23996  0  1.160659  0  0  -0.203425  0  1.31904  0  0  -0.212457  0  1.302545  0  0  -0.100461  -0.196753  0  1.330536  0
F  F118  1  0.64663131  0.12922620  0.66078336  1  0  -0.254041  0  1.144693  0  0  -0.217944  0  1.303986  0  0  -0.226198  0  1.286763  0  0  -0.110303  -0.211868  0  1.316013  0
F  F119  1  0.35336838  0.87077381  0.33921586  1  0  -0.253997  0  1.144753  0  0  -0.217917  0  1.304039  0  0  -0.226171  0  1.286817  0  0  -0.110296  -0.211846  0  1.316063  0
F  F120  1  0.43624102  0.95987645  0.60054041  1  0  -0.248213  0  1.142757  0  0  -0.215146  0  1.306824  0  0  -0.224805  0  1.291949  0  0  -0.104838  -0.208112  0  1.317208  0
F  F121  1  0.56375959  0.04012355  0.39945881  1  0  -0.248198  0  1.142804  0  0  -0.215137  0  1.306866  0  0  -0.224796  0  1.291988  0  0  -0.104848  -0.208109  0  1.317246  0
