# generated using pymatgen
data_ZnH18C21N10
_symmetry_space_group_name_H-M   'P 1'
_cell_length_a   10.18857856
_cell_length_b   12.83236972
_cell_length_c   17.52371188
_cell_angle_alpha   89.99996623
_cell_angle_beta   89.99982095
_cell_angle_gamma   99.10886822
_symmetry_Int_Tables_number   1
_chemical_formula_structural   ZnH18C21N10
_chemical_formula_sum   'Zn4 H72 C84 N40'
_cell_volume   2262.22079300
_cell_formula_units_Z   4
loop_
 _symmetry_equiv_pos_site_id
 _symmetry_equiv_pos_as_xyz
  1  'x, y, z'
loop_
 _atom_site_type_symbol
 _atom_site_label
 _atom_site_symmetry_multiplicity
 _atom_site_fract_x
 _atom_site_fract_y
 _atom_site_fract_z
 _atom_site_occupancy
 _atom_site_pbe_bader_charge
 _atom_site_pbe_bader_spin_density
 _atom_site_pbe_cm5_charge
 _atom_site_pbe_ddec_charge
 _atom_site_pbe_ddec_spin_density
 _atom_site_pbe_ddec_sum_bond_order
 _atom_site_pbe_magmom
Zn  Zn0  1  0.60136760  0.31279238  0.01152662  1  1.194271  0  0.74804  0.574602  0  2.52513  0
Zn  Zn1  1  0.89863411  0.68721163  0.51152822  1  1.194286  0  0.748041  0.574684  0  2.525042  0
Zn  Zn2  1  0.39863680  0.68720684  0.98847386  1  1.194307  0  0.748003  0.574509  0  2.525209  0
Zn  Zn3  1  0.10136575  0.31278925  0.48847283  1  1.19423  0  0.748044  0.574627  0  2.525088  0
H  H4  1  0.58616423  0.09364223  0.98260405  1  0.148572  0  0.116949  0.080291  0  1.053213  0
H  H5  1  0.91383037  0.90635876  0.48259878  1  0.148706  0  0.116928  0.080266  0  1.0532  0
H  H6  1  0.41383129  0.90635238  0.01739757  1  0.14859  0  0.116964  0.080276  0  1.053344  0
H  H7  1  0.08616541  0.09364139  0.51739428  1  0.148672  0  0.116957  0.080311  0  1.053237  0
H  H8  1  0.70123744  0.94324373  0.01195211  1  0.110739  0  0.107545  0.111203  0  1.056938  0
H  H9  1  0.79875610  0.05675882  0.51194331  1  0.110679  0  0.107543  0.111168  0  1.056937  0
H  H10  1  0.29876039  0.05675243  0.98805294  1  0.110723  0  0.107569  0.11122  0  1.056933  0
H  H11  1  0.20123906  0.94324292  0.48804633  1  0.110745  0  0.107536  0.111186  0  1.056938  0
H  H12  1  0.99030533  0.15945346  0.13932058  1  0.108837  0  0.110083  0.122648  0  1.013836  0
H  H13  1  0.50969192  0.84055121  0.63931881  1  0.108809  0  0.110077  0.122653  0  1.013835  0
H  H14  1  0.00969729  0.84054659  0.86067819  1  0.10885  0  0.110084  0.122658  0  1.013832  0
H  H15  1  0.49030900  0.15945440  0.36067995  1  0.108938  0  0.110074  0.122613  0  1.013837  0
H  H16  1  0.85896098  0.30106538  0.10634135  1  0.079593  0  0.11963  0.088479  0  0.983693  0
H  H17  1  0.64103548  0.69893935  0.60634055  1  0.079706  0  0.119655  0.088513  0  0.983576  0
H  H18  1  0.14103889  0.69893550  0.89365856  1  0.079581  0  0.119698  0.088594  0  0.983801  0
H  H19  1  0.35896705  0.30106465  0.39366278  1  0.079632  0  0.119634  0.088508  0  0.983714  0
H  H20  1  0.94198264  0.94717196  0.16039532  1  0.049987  0  0.099725  0.111352  0  0.99529  0
H  H21  1  0.55801921  0.05283182  0.66039438  1  0.050021  0  0.099742  0.111372  0  0.995323  0
H  H22  1  0.05801820  0.05282891  0.83960516  1  0.05  0  0.099738  0.111364  0  0.995304  0
H  H23  1  0.44198671  0.94716976  0.33960495  1  0.049971  0  0.099749  0.111306  0  0.995308  0
H  H24  1  0.03584087  0.96882335  0.07693209  1  0.043832  0  0.094498  0.10111  0  1.003284  0
H  H25  1  0.46415520  0.03118221  0.57693385  1  0.04381  0  0.09449  0.101114  0  1.003362  0
H  H26  1  0.96415997  0.03117751  0.92306839  1  0.043852  0  0.094507  0.101126  0  1.003292  0
H  H27  1  0.53584439  0.96882184  0.42306892  1  0.043785  0  0.094509  0.101088  0  1.003307  0
H  H28  1  0.86149578  0.84219307  0.00542597  1  -0.013884  0  0.087651  0.081508  0  0.995087  0
H  H29  1  0.63850010  0.15781105  0.50542370  1  -0.013959  0  0.087639  0.081483  0  0.995168  0
H  H30  1  0.13850472  0.15780622  0.99457508  1  -0.013938  0  0.087651  0.081486  0  0.995183  0
H  H31  1  0.36149753  0.84219303  0.49457507  1  -0.013935  0  0.087649  0.081499  0  0.995139  0
H  H32  1  0.76546273  0.82407831  0.08925533  1  0.042244  0  0.090472  0.085242  0  1.014929  0
H  H33  1  0.73453205  0.17592727  0.58925231  1  0.04181  0  0.090403  0.085217  0  1.014913  0
H  H34  1  0.23453794  0.17592177  0.91074743  1  0.042258  0  0.090462  0.08523  0  1.014943  0
H  H35  1  0.26546577  0.82407760  0.41074703  1  0.042107  0  0.090453  0.085226  0  1.014914  0
H  H36  1  0.04064348  0.76133334  0.06478174  1  0.013754  0  0.090142  0.093402  0  0.99531  0
H  H37  1  0.45935266  0.23867224  0.56477656  1  0.013623  0  0.090132  0.093415  0  0.995383  0
H  H38  1  0.95935869  0.23866909  0.93522274  1  0.013724  0  0.090094  0.093345  0  0.995414  0
H  H39  1  0.54064347  0.76132949  0.43522106  1  0.013708  0  0.090126  0.09342  0  0.995416  0
H  H40  1  0.95950680  0.75428480  0.15475613  1  0.06541  0  0.095232  0.101153  0  1.036571  0
H  H41  1  0.54048583  0.24572150  0.65475229  1  0.065702  0  0.09526  0.10113  0  1.036666  0
H  H42  1  0.04049342  0.24571766  0.84524720  1  0.065468  0  0.095253  0.10113  0  1.036612  0
H  H43  1  0.45950852  0.75428105  0.34524705  1  0.065484  0  0.09527  0.101164  0  1.036599  0
H  H44  1  0.80913684  0.46108566  0.93185197  1  0.095951  0  0.125915  0.097307  0  0.971209  0
H  H45  1  0.69087288  0.53892468  0.43185354  1  0.095877  0  0.125908  0.097312  0  0.97122  0
H  H46  1  0.19088170  0.53891968  0.06814680  1  0.095931  0  0.125881  0.097207  0  0.971247  0
H  H47  1  0.30912992  0.46107615  0.56814580  1  0.095933  0  0.125912  0.097318  0  0.971135  0
H  H48  1  0.95528778  0.63002675  0.96268202  1  0.068708  0  0.106466  0.11074  0  1.020382  0
H  H49  1  0.54471802  0.36998439  0.46267766  1  0.068536  0  0.106421  0.110622  0  1.020396  0
H  H50  1  0.04472185  0.36998269  0.03732074  1  0.068651  0  0.106452  0.110706  0  1.020283  0
H  H51  1  0.45528380  0.63001646  0.53732054  1  0.068553  0  0.106442  0.110677  0  1.020331  0
H  H52  1  0.74019091  0.63663140  0.17459519  1  0.113634  0  0.116308  0.133505  0  0.983379  0
H  H53  1  0.75980322  0.36336456  0.67459204  1  0.113664  0  0.116316  0.133556  0  0.983378  0
H  H54  1  0.25980986  0.36336472  0.82540586  1  0.113782  0  0.116327  0.13354  0  0.983401  0
H  H55  1  0.24019042  0.63663484  0.32540730  1  0.113687  0  0.116317  0.13358  0  0.983338  0
H  H56  1  0.59952696  0.46913436  0.13482924  1  0.141795  0  0.1228  0.091925  0  1.004799  0
H  H57  1  0.90047656  0.53086310  0.63483260  1  0.141783  0  0.122756  0.091902  0  1.004738  0
H  H58  1  0.40048100  0.53086323  0.86516440  1  0.141698  0  0.122714  0.091808  0  1.004805  0
H  H59  1  0.09952163  0.46913464  0.36516845  1  0.141827  0  0.122763  0.091888  0  1.004757  0
H  H60  1  0.28502649  0.18791072  0.69718019  1  0.075134  0  0.104401  0.111226  0  0.995964  0
H  H61  1  0.21497238  0.81208828  0.19717703  1  0.075799  0  0.104396  0.111252  0  0.995966  0
H  H62  1  0.71497355  0.81209095  0.30281972  1  0.075161  0  0.104404  0.11125  0  0.995964  0
H  H63  1  0.78502359  0.18790396  0.80282002  1  0.075235  0  0.104362  0.111208  0  0.996063  0
H  H64  1  0.47040756  0.97923652  0.84009421  1  0.102917  0  0.098613  0.096071  0  1.065702  0
H  H65  1  0.02959050  0.02076226  0.34009230  1  0.103347  0  0.098623  0.096051  0  1.065666  0
H  H66  1  0.52959204  0.02076754  0.15990856  1  0.103007  0  0.098618  0.09613  0  1.065633  0
H  H67  1  0.97040467  0.97923078  0.65990362  1  0.103184  0  0.098598  0.096117  0  1.065618  0
H  H68  1  0.17119682  0.03339895  0.62555338  1  0.064114  0  0.099758  0.094785  0  1.060803  0
H  H69  1  0.32880326  0.96659935  0.12555052  1  0.063975  0  0.099758  0.094806  0  1.060741  0
H  H70  1  0.82880304  0.96660193  0.37444710  1  0.064109  0  0.099748  0.094776  0  1.060795  0
H  H71  1  0.67119956  0.03339278  0.87444939  1  0.063986  0  0.099757  0.094796  0  1.060762  0
H  H72  1  0.35855911  0.82593485  0.76751782  1  0.104914  0  0.102312  0.10763  0  1.00605  0
H  H73  1  0.14144310  0.17406318  0.26751565  1  0.104841  0  0.102305  0.107641  0  1.00608  0
H  H74  1  0.64144289  0.17406679  0.23248551  1  0.104803  0  0.102289  0.107602  0  1.006051  0
H  H75  1  0.85855581  0.82592900  0.73248198  1  0.104823  0  0.102308  0.107638  0  1.006  0
C  C76  1  0.67637200  0.10444284  0.01708650  1  0.387469  0  0.04773  0.10138  0  3.934806  0
C  C77  1  0.82362434  0.89556363  0.51708414  1  0.387338  0  0.047798  0.101461  0  3.934712  0
C  C78  1  0.32362787  0.89555804  0.98291570  1  0.38738  0  0.047741  0.101398  0  3.934773  0
C  C79  1  0.17637196  0.10443889  0.48291234  1  0.387378  0  0.04777  0.101393  0  3.934832  0
C  C80  1  0.74293373  0.02096318  0.03350649  1  0.033218  0  -0.081851  -0.179647  0  3.932085  0
C  C81  1  0.75705755  0.97903858  0.53350194  1  0.033208  0  -0.081811  -0.179671  0  3.932093  0
C  C82  1  0.25706410  0.97903298  0.96649627  1  0.033291  0  -0.081861  -0.179648  0  3.932103  0
C  C83  1  0.24293467  0.02096321  0.46649284  1  0.033242  0  -0.081838  -0.179575  0  3.931999  0
C  C84  1  0.85877068  0.03781158  0.07758494  1  -0.014919  0  0.022986  0.181906  0  3.903269  0
C  C85  1  0.64122426  0.96219006  0.57758232  1  -0.014768  0  0.022999  0.182051  0  3.903257  0
C  C86  1  0.14122830  0.96218535  0.92241668  1  -0.015183  0  0.02296  0.181907  0  3.90339  0
C  C87  1  0.35877578  0.03781162  0.42241360  1  -0.015498  0  0.022938  0.181819  0  3.90325  0
C  C88  1  0.90174167  0.14115190  0.10382247  1  -0.01187  0  -0.077883  -0.173086  0  3.918092  0
C  C89  1  0.59825490  0.85884888  0.60382111  1  -0.012236  0  -0.077869  -0.17314  0  3.918153  0
C  C90  1  0.09826025  0.85884499  0.89617687  1  -0.01156  0  -0.077857  -0.173101  0  3.918199  0
C  C91  1  0.40174434  0.14115359  0.39617765  1  -0.012051  0  -0.077851  -0.172975  0  3.918116  0
C  C92  1  0.82961570  0.22070003  0.08533272  1  0.445621  0  0.042395  0.080339  0  3.974599  0
C  C93  1  0.67038221  0.77930631  0.58533126  1  0.445659  0  0.042426  0.080401  0  3.974567  0
C  C94  1  0.17038151  0.77929773  0.91466662  1  0.445578  0  0.04232  0.080206  0  3.974818  0
C  C95  1  0.32962262  0.22069925  0.41466751  1  0.445621  0  0.042396  0.080322  0  3.974622  0
C  C96  1  0.93275642  0.94924449  0.09775335  1  0.017575  0  -0.157069  -0.203858  0  3.92761  0
C  C97  1  0.56724187  0.05075944  0.59775183  1  0.017699  0  -0.15704  -0.203945  0  3.927855  0
C  C98  1  0.06724603  0.05075477  0.90224827  1  0.017566  0  -0.157042  -0.20384  0  3.927638  0
C  C99  1  0.43275950  0.94924379  0.40224751  1  0.018154  0  -0.157064  -0.203745  0  3.927684  0
C  C100  1  0.86832783  0.84149735  0.06820832  1  0.013525  0  -0.161827  -0.121913  0  3.913733  0
C  C101  1  0.63166885  0.15850744  0.56820492  1  0.014152  0  -0.161767  -0.121796  0  3.913716  0
C  C102  1  0.13167382  0.15850271  0.93179387  1  0.013636  0  -0.161849  -0.121896  0  3.913878  0
C  C103  1  0.36832976  0.84149662  0.43179385  1  0.013796  0  -0.161812  -0.121887  0  3.913773  0
C  C104  1  0.94272670  0.75173210  0.09270251  1  -0.001228  0  -0.160839  -0.209918  0  3.930324  0
C  C105  1  0.55726815  0.24826952  0.59269921  1  -0.001712  0  -0.160964  -0.210033  0  3.930523  0
C  C106  1  0.05727477  0.24826718  0.90730025  1  -0.001267  0  -0.160846  -0.209901  0  3.930292  0
C  C107  1  0.44272780  0.75173142  0.40730013  1  -0.001456  0  -0.160911  -0.210007  0  3.930475  0
C  C108  1  0.79861405  0.50184561  0.98557289  1  0.49632  0  0.050071  0.093718  0  3.962499  0
C  C109  1  0.70139154  0.49816075  0.48557275  1  0.496291  0  0.050057  0.09363  0  3.962643  0
C  C110  1  0.20139515  0.49815750  0.01442816  1  0.496446  0  0.050201  0.093991  0  3.962191  0
C  C111  1  0.29860930  0.50184012  0.51442545  1  0.496297  0  0.050065  0.093637  0  3.962477  0
C  C112  1  0.87968172  0.59599708  0.00332999  1  -0.005156  0  -0.082662  -0.181389  0  3.952673  0
C  C113  1  0.62032110  0.40401168  0.50332878  1  -0.005064  0  -0.082625  -0.181118  0  3.952739  0
C  C114  1  0.12032695  0.40400367  0.99666878  1  -0.00479  0  -0.082738  -0.181464  0  3.952487  0
C  C115  1  0.37967734  0.59599160  0.49667055  1  -0.004774  0  -0.082673  -0.181242  0  3.952545  0
C  C116  1  0.86238036  0.64723472  0.07230111  1  -0.019168  0  0.024787  0.186498  0  3.912816  0
C  C117  1  0.63761647  0.35277086  0.57229476  1  -0.018805  0  0.024933  0.186496  0  3.912754  0
C  C118  1  0.13762510  0.35276924  0.92770336  1  -0.019313  0  0.024898  0.186648  0  3.912671  0
C  C119  1  0.36237690  0.64723171  0.42770458  1  -0.019082  0  0.024914  0.186534  0  3.912757  0
C  C120  1  0.75994853  0.60014205  0.12051988  1  -0.008262  0  -0.074273  -0.159542  0  3.888958  0
C  C121  1  0.74005186  0.39985864  0.62051903  1  -0.008175  0  -0.07437  -0.159672  0  3.888909  0
C  C122  1  0.24005570  0.39985639  0.87947889  1  -0.008643  0  -0.074372  -0.159735  0  3.888887  0
C  C123  1  0.25994800  0.60014224  0.37948145  1  -0.008213  0  -0.074371  -0.159733  0  3.888947  0
C  C124  1  0.68176453  0.50622705  0.09933667  1  0.42477  0  0.051408  0.095294  0  3.92422  0
C  C125  1  0.81823207  0.49377373  0.59933450  1  0.424752  0  0.051506  0.09538  0  3.924305  0
C  C126  1  0.31824299  0.49377292  0.90066495  1  0.425092  0  0.051539  0.095511  0  3.92426  0
C  C127  1  0.18176273  0.50622643  0.40066598  1  0.424768  0  0.051471  0.095366  0  3.924288  0
C  C128  1  0.45595306  0.18529068  0.81512708  1  0.941045  0  0.203647  0.222698  0  4.085484  0
C  C129  1  0.04404088  0.81470661  0.31512480  1  0.941337  0  0.203671  0.222631  0  4.085696  0
C  C130  1  0.54404618  0.81471179  0.18487454  1  0.94106  0  0.203608  0.222652  0  4.085461  0
C  C131  1  0.95595136  0.18528647  0.68487340  1  0.941202  0  0.203569  0.222715  0  4.085429  0
C  C132  1  0.38700633  0.09470718  0.77306815  1  -0.090868  0  -0.005749  0.026896  0  4.011489  0
C  C133  1  0.11298936  0.90529253  0.27306457  1  -0.090885  0  -0.005788  0.026975  0  4.011425  0
C  C134  1  0.61299264  0.90529847  0.22693290  1  -0.090547  0  -0.005689  0.026982  0  4.011346  0
C  C135  1  0.88700306  0.09470134  0.72693192  1  -0.090718  0  -0.005704  0.026959  0  4.011253  0
C  C136  1  0.30130114  0.10852487  0.71238644  1  0.04656  0  -0.086784  -0.111521  0  3.962722  0
C  C137  1  0.19869516  0.89147176  0.21238271  1  0.045867  0  -0.0868  -0.111586  0  3.962632  0
C  C138  1  0.69869890  0.89147680  0.28761461  1  0.046464  0  -0.086798  -0.111608  0  3.962647  0
C  C139  1  0.80130046  0.10851889  0.78761548  1  0.046465  0  -0.08679  -0.11158  0  3.962843  0
C  C140  1  0.40583759  0.99185760  0.79271731  1  0.009415  0  -0.089891  -0.116226  0  3.980036  0
C  C141  1  0.09416101  0.00813808  0.29271472  1  0.009091  0  -0.089868  -0.116238  0  3.979983  0
C  C142  1  0.59416378  0.00814563  0.20728374  1  0.00934  0  -0.089892  -0.116305  0  3.980088  0
C  C143  1  0.90583346  0.99185180  0.70728233  1  0.00915  0  -0.089823  -0.116235  0  3.979813  0
C  C144  1  0.23752027  0.02168902  0.67223978  1  -0.079565  0  -0.090056  -0.121636  0  3.991608  0
C  C145  1  0.26248007  0.97831157  0.17223589  1  -0.07926  0  -0.090106  -0.121744  0  3.991635  0
C  C146  1  0.76247995  0.97831344  0.32776070  1  -0.079668  0  -0.09003  -0.121569  0  3.991569  0
C  C147  1  0.73752087  0.02168534  0.82776060  1  -0.079442  0  -0.090018  -0.121586  0  3.991567  0
C  C148  1  0.25791115  0.91896575  0.69098331  1  -0.048178  0  -0.007922  0.025034  0  4.019861  0
C  C149  1  0.24208937  0.08103165  0.19097928  1  -0.048545  0  -0.007881  0.025098  0  4.019881  0
C  C150  1  0.74208659  0.08103438  0.30901717  1  -0.048175  0  -0.007931  0.025003  0  4.019771  0
C  C151  1  0.75791087  0.91896210  0.80901892  1  -0.048283  0  -0.007944  0.025024  0  4.019869  0
C  C152  1  0.34303072  0.90530835  0.75198857  1  -0.07223  0  -0.088428  -0.118683  0  3.981124  0
C  C153  1  0.15696641  0.09469295  0.25198583  1  -0.072067  0  -0.088391  -0.118628  0  3.980947  0
C  C154  1  0.65696737  0.09469335  0.24801305  1  -0.072197  0  -0.088421  -0.118642  0  3.981192  0
C  C155  1  0.84303044  0.90530322  0.74801065  1  -0.072292  0  -0.088487  -0.118744  0  3.981053  0
C  C156  1  0.19022227  0.82768023  0.64917204  1  0.91337  0  0.197425  0.217808  0  4.08599  0
C  C157  1  0.30977723  0.17232042  0.14917013  1  0.913393  0  0.197358  0.217637  0  4.086071  0
C  C158  1  0.80977760  0.17232066  0.35083015  1  0.913371  0  0.197458  0.217855  0  4.085932  0
C  C159  1  0.69022434  0.82767489  0.85082921  1  0.913077  0  0.197417  0.217817  0  4.085713  0
N  N160  1  0.71901754  0.20345855  0.04171307  1  -1.283667  0  -0.340968  -0.234386  0  3.595646  0
N  N161  1  0.78097894  0.79654471  0.54171254  1  -1.283536  0  -0.34111  -0.234553  0  3.595559  0
N  N162  1  0.28097967  0.79653920  0.95828684  1  -1.283636  0  -0.341004  -0.234388  0  3.595516  0
N  N163  1  0.21901950  0.20345857  0.45828565  1  -1.283517  0  -0.341  -0.234486  0  3.595495  0
N  N164  1  0.70174559  0.45665033  0.03312695  1  -1.258665  0  -0.342942  -0.22648  0  3.618133  0
N  N165  1  0.79825876  0.54335282  0.53312821  1  -1.258781  0  -0.342994  -0.226555  0  3.618436  0
N  N166  1  0.29826336  0.54334725  0.96687182  1  -1.258926  0  -0.342981  -0.226553  0  3.618434  0
N  N167  1  0.20174208  0.45664804  0.46687341  1  -1.258843  0  -0.342939  -0.226432  0  3.618331  0
N  N168  1  0.49582989  0.18018372  0.88791071  1  -0.678831  0  -0.226065  -0.277354  0  3.222536  0
N  N169  1  0.00416709  0.81981579  0.38790736  1  -0.67899  0  -0.226009  -0.277215  0  3.222683  0
N  N170  1  0.50416917  0.81981797  0.11209091  1  -0.679076  0  -0.226037  -0.277259  0  3.222458  0
N  N171  1  0.99583074  0.18018037  0.61208970  1  -0.678647  0  -0.226022  -0.277329  0  3.222432  0
N  N172  1  0.55326081  0.27950898  0.90337654  1  -0.308628  0  -0.149225  -0.080259  0  3.651332  0
N  N173  1  0.94673619  0.72049210  0.40337528  1  -0.308637  0  -0.149232  -0.08032  0  3.651332  0
N  N174  1  0.44673808  0.72049191  0.09662566  1  -0.308548  0  -0.149203  -0.080233  0  3.65127  0
N  N175  1  0.05326101  0.27950565  0.59662463  1  -0.308847  0  -0.149259  -0.080311  0  3.651235  0
N  N176  1  0.54955168  0.34273579  0.84317010  1  -0.127547  0  -0.109108  -0.094439  0  3.23982  0
N  N177  1  0.95044611  0.65726301  0.34316944  1  -0.12761  0  -0.109098  -0.094398  0  3.239777  0
N  N178  1  0.45044836  0.65726588  0.15683266  1  -0.127491  0  -0.109131  -0.094489  0  3.239966  0
N  N179  1  0.04954843  0.34273162  0.65683161  1  -0.127351  0  -0.10909  -0.094356  0  3.239874  0
N  N180  1  0.48822556  0.28480829  0.78676831  1  -0.623625  0  -0.224209  -0.286143  0  3.233236  0
N  N181  1  0.01177050  0.71518902  0.28676670  1  -0.623711  0  -0.224213  -0.286175  0  3.233423  0
N  N182  1  0.51177368  0.71519418  0.21323331  1  -0.623733  0  -0.22419  -0.286119  0  3.233293  0
N  N183  1  0.98822139  0.28480249  0.71323263  1  -0.62388  0  -0.224158  -0.286201  0  3.233293  0
N  N184  1  0.08748632  0.83088045  0.60139630  1  -0.668025  0  -0.226063  -0.270456  0  3.195799  0
N  N185  1  0.41251513  0.16912341  0.10139534  1  -0.667785  0  -0.225973  -0.270341  0  3.195842  0
N  N186  1  0.91251470  0.16912121  0.39860418  1  -0.667875  0  -0.226057  -0.270475  0  3.195857  0
N  N187  1  0.58748812  0.83087505  0.89860571  1  -0.667659  0  -0.225974  -0.270415  0  3.195702  0
N  N188  1  0.05518187  0.73041003  0.57846628  1  -0.299241  0  -0.150397  -0.075714  0  3.643921  0
N  N189  1  0.44482007  0.26959544  0.07846807  1  -0.299227  0  -0.150409  -0.075672  0  3.643943  0
N  N190  1  0.94481916  0.26959162  0.42153420  1  -0.299264  0  -0.150449  -0.075751  0  3.643943  0
N  N191  1  0.55518256  0.73040461  0.92153526  1  -0.299288  0  -0.150472  -0.075688  0  3.643914  0
N  N192  1  0.13416437  0.66847892  0.60999036  1  -0.118795  0  -0.107361  -0.089215  0  3.257428  0
N  N193  1  0.36583276  0.33152341  0.10999170  1  -0.118903  0  -0.107357  -0.089266  0  3.25755  0
N  N194  1  0.86583354  0.33152199  0.39001183  1  -0.118867  0  -0.107292  -0.089086  0  3.257559  0
N  N195  1  0.63416524  0.66847355  0.89000935  1  -0.119028  0  -0.107259  -0.089075  0  3.257621  0
N  N196  1  0.22040887  0.72836998  0.65478843  1  -0.621022  0  -0.235444  -0.293933  0  3.211839  0
N  N197  1  0.27958731  0.27162912  0.15478710  1  -0.621129  0  -0.235458  -0.29388  0  3.211823  0
N  N198  1  0.77958985  0.27163013  0.34521491  1  -0.620978  0  -0.235511  -0.294044  0  3.212036  0
N  N199  1  0.72040884  0.72836390  0.84521167  1  -0.620796  0  -0.23552  -0.294084  0  3.211861  0
