# generated using pymatgen
data_LiH10C11N4
_symmetry_space_group_name_H-M   'P 1'
_cell_length_a   7.73286238
_cell_length_b   8.68808596
_cell_length_c   16.12260000
_cell_angle_alpha   90.00000000
_cell_angle_beta   98.33476272
_cell_angle_gamma   90.00000000
_symmetry_Int_Tables_number   1
_chemical_formula_structural   LiH10C11N4
_chemical_formula_sum   'Li4 H40 C44 N16'
_cell_volume   1071.73660650
_cell_formula_units_Z   4
loop_
 _symmetry_equiv_pos_site_id
 _symmetry_equiv_pos_as_xyz
  1  'x, y, z'
loop_
 _atom_site_type_symbol
 _atom_site_label
 _atom_site_symmetry_multiplicity
 _atom_site_fract_x
 _atom_site_fract_y
 _atom_site_fract_z
 _atom_site_occupancy
 _atom_site_hle17_bader_spin_density
 _atom_site_hle17_ddec_charge
 _atom_site_hle17_ddec_spin_density
 _atom_site_hle17_ddec_sum_bond_order
 _atom_site_hle17_magmom
 _atom_site_hse06_10hf_bader_spin_density
 _atom_site_hse06_10hf_ddec_charge
 _atom_site_hse06_10hf_ddec_spin_density
 _atom_site_hse06_10hf_ddec_sum_bond_order
 _atom_site_hse06_10hf_magmom
 _atom_site_hse06_bader_spin_density
 _atom_site_hse06_ddec_charge
 _atom_site_hse06_ddec_spin_density
 _atom_site_hse06_ddec_sum_bond_order
 _atom_site_hse06_magmom
 _atom_site_pbe_bader_charge
 _atom_site_pbe_bader_spin_density
 _atom_site_pbe_cm5_charge
 _atom_site_pbe_ddec_charge
 _atom_site_pbe_ddec_spin_density
 _atom_site_pbe_ddec_sum_bond_order
 _atom_site_pbe_magmom
Li  Li0  1  0.71629268  0.15638082  0.62551222  1  0  0.767519  0  0.546512  0  0  0.687735  0  0.713621  0  0  0.699754  0  0.695488  0  0.846806  0  0.564367  0.679494  0  0.725866  0
Li  Li1  1  0.78370705  0.65638048  0.87448984  1  0  0.767544  0  0.546468  0  0  0.687769  0  0.713557  0  0  0.699785  0  0.695437  0  0.846803  0  0.564364  0.679528  0  0.725803  0
Li  Li2  1  0.28370496  0.84362080  0.37448756  1  0  0.767541  0  0.546494  0  0  0.687765  0  0.713581  0  0  0.69979  0  0.695446  0  0.846804  0  0.564348  0.679525  0  0.725826  0
Li  Li3  1  0.21629190  0.34361769  0.12551064  1  0  0.767545  0  0.546454  0  0  0.687779  0  0.713531  0  0  0.699798  0  0.695402  0  0.846846  0  0.564382  0.679539  0  0.725776  0
H  H4  1  0.16533903  0.29938815  0.41843706  1  0  0.155391  0  0.920549  0  0  0.17358  0  0.977813  0  0  0.174301  0  0.979559  0  0.109745  0  0.120214  0.173079  0  0.976535  0
H  H5  1  0.33466567  0.79938781  0.08156541  1  0  0.155435  0  0.920492  0  0  0.173592  0  0.977786  0  0  0.174315  0  0.979534  0  0.109736  0  0.120202  0.173091  0  0.976508  0
H  H6  1  0.83465861  0.70061346  0.58156396  1  0  0.155476  0  0.920507  0  0  0.173616  0  0.977816  0  0  0.174341  0  0.97955  0  0.109781  0  0.120217  0.173115  0  0.976539  0
H  H7  1  0.66533458  0.20061266  0.91843579  1  0  0.155446  0  0.920467  0  0  0.173596  0  0.977766  0  0  0.174318  0  0.979513  0  0.109765  0  0.120208  0.173094  0  0.976487  0
H  H8  1  0.28326581  0.47650196  0.43000204  1  0  0.160783  0  0.938023  0  0  0.177031  0  0.997327  0  0  0.178427  0  0.997791  0  0.120477  0  0.123957  0.176015  0  0.99699  0
H  H9  1  0.21673628  0.97650507  0.07000025  1  0  0.160788  0  0.938023  0  0  0.177025  0  0.997327  0  0  0.178423  0  0.997791  0  0.120492  0  0.12395  0.17601  0  0.996991  0
H  H10  1  0.71672660  0.52349965  0.56999675  1  0  0.160783  0  0.938038  0  0  0.17704  0  0.997314  0  0  0.178435  0  0.997779  0  0.120429  0  0.123951  0.176024  0  0.996979  0
H  H11  1  0.78326267  0.02349424  0.92999962  1  0  0.160796  0  0.938011  0  0  0.177036  0  0.997308  0  0  0.178434  0  0.997771  0  0.120481  0  0.123942  0.17602  0  0.996971  0
H  H12  1  0.33705746  0.33506344  0.35811578  1  0  0.164736  0  0.922786  0  0  0.182999  0  0.978666  0  0  0.184186  0  0.979236  0  0.116082  0  0.12581  0.182128  0  0.978214  0
H  H13  1  0.16294855  0.83506540  0.14188926  1  0  0.164717  0  0.922806  0  0  0.182953  0  0.978703  0  0  0.184142  0  0.979274  0  0.115996  0  0.125828  0.18208  0  0.978252  0
H  H14  1  0.66294410  0.66493702  0.64188737  1  0  0.164738  0  0.922768  0  0  0.182979  0  0.978666  0  0  0.184167  0  0.979236  0  0.116019  0  0.125827  0.182107  0  0.978214  0
H  H15  1  0.83705432  0.16493506  0.85811212  1  0  0.164742  0  0.922773  0  0  0.182986  0  0.978647  0  0  0.184175  0  0.979219  0  0.116037  0  0.125836  0.182114  0  0.978196  0
H  H16  1  0.18031317  0.04863902  0.91988502  1  0  0.066809  0  0.99708  0  0  0.081424  0  1.057732  0  0  0.083328  0  1.058127  0  0.029018  0  0.086498  0.080207  0  1.057329  0
H  H17  1  0.31968499  0.54863983  0.58011389  1  0  0.06683  0  0.997104  0  0  0.081446  0  1.057755  0  0  0.083351  0  1.058148  0  0.029012  0  0.086506  0.08023  0  1.057352  0
H  H18  1  0.81969231  0.95136720  0.08011654  1  0  0.066785  0  0.997113  0  0  0.081396  0  1.057772  0  0  0.083298  0  1.05817  0  0.037308  0  0.086475  0.08018  0  1.057368  0
H  H19  1  0.68031526  0.45136064  0.41988483  1  0  0.066842  0  0.997106  0  0  0.081455  0  1.057753  0  0  0.08336  0  1.058147  0  0.029034  0  0.086527  0.08024  0  1.057349  0
H  H20  1  0.15240640  0.24023818  0.80455427  1  0  0.085152  0  0.976415  0  0  0.096355  0  1.038244  0  0  0.09845  0  1.038903  0  0.046496  0  0.092125  0.094967  0  1.037743  0
H  H21  1  0.34759308  0.74023784  0.69544597  1  0  0.08515  0  0.976416  0  0  0.096351  0  1.038247  0  0  0.098447  0  1.038904  0  0.046498  0  0.092126  0.094963  0  1.037746  0
H  H22  1  0.84759778  0.75976343  0.19544595  1  0  0.085134  0  0.97646  0  0  0.096319  0  1.038314  0  0  0.098415  0  1.038972  0  0.04657  0  0.092118  0.094931  0  1.037812  0
H  H23  1  0.65240718  0.25976147  0.30455399  1  0  0.085148  0  0.976426  0  0  0.096351  0  1.038254  0  0  0.098447  0  1.038912  0  0.04649  0  0.092128  0.094962  0  1.037754  0
H  H24  1  0.83805155  0.84737882  0.72682981  1  0  0.050253  0  0.961046  0  0  0.06167  0  1.028123  0  0  0.063366  0  1.025992  0  0.069237  0  0.12156  0.060394  0  1.029746  0
H  H25  1  0.66194687  0.34737916  0.77317030  1  0  0.050215  0  0.96109  0  0  0.06163  0  1.028173  0  0  0.063324  0  1.026047  0  0.069205  0  0.121553  0.060355  0  1.029794  0
H  H26  1  0.16194871  0.15261935  0.27316953  1  0  0.050225  0  0.961082  0  0  0.061641  0  1.028161  0  0  0.063338  0  1.026026  0  0.069242  0  0.121549  0.060366  0  1.029783  0
H  H27  1  0.33805208  0.65261900  0.22682833  1  0  0.050222  0  0.961078  0  0  0.061612  0  1.028179  0  0  0.063304  0  1.026057  0  0.06921  0  0.12154  0.060337  0  1.029801  0
H  H28  1  0.70242294  0.06471851  0.43905612  1  0  0.095201  0  0.93447  0  0  0.100776  0  0.999218  0  0  0.103462  0  0.998437  0  0.127747  0  0.129897  0.09878  0  0.999873  0
H  H29  1  0.79757548  0.56471817  0.06094585  1  0  0.09523  0  0.934446  0  0  0.100814  0  0.999171  0  0  0.103499  0  0.99839  0  0.127698  0  0.129902  0.098817  0  0.999825  0
H  H30  1  0.29757732  0.93528541  0.56094569  1  0  0.095199  0  0.934482  0  0  0.100786  0  0.999212  0  0  0.103466  0  0.998427  0  0.127686  0  0.129885  0.098781  0  0.999874  0
H  H31  1  0.20242216  0.43527884  0.93905579  1  0  0.0952  0  0.934459  0  0  0.100771  0  0.999215  0  0  0.103457  0  0.998435  0  0.127734  0  0.129887  0.098775  0  0.999869  0
H  H32  1  0.35740463  0.23964772  0.69951839  1  0  0.095881  0  0.976756  0  0  0.105171  0  1.042175  0  0  0.107841  0  1.041752  0  0.088125  0  0.099446  0.10307  0  1.04297  0
H  H33  1  0.14259485  0.73964853  0.80048061  1  0  0.095886  0  0.976747  0  0  0.105173  0  1.042171  0  0  0.107842  0  1.041749  0  0.088122  0  0.099454  0.103073  0  1.042962  0
H  H34  1  0.64259694  0.76035159  0.30047979  1  0  0.095895  0  0.976745  0  0  0.105185  0  1.042164  0  0  0.107854  0  1.041741  0  0.08817  0  0.099461  0.103084  0  1.042962  0
H  H35  1  0.85740410  0.26035079  0.19951801  1  0  0.095864  0  0.976733  0  0  0.10513  0  1.042187  0  0  0.107801  0  1.041764  0  0.088034  0  0.09944  0.10303  0  1.042982  0
H  H36  1  0.07915895  0.03195756  0.65073013  1  0  0.095295  0  0.936511  0  0  0.101075  0  1.001109  0  0  0.103472  0  1.000964  0  0.105191  0  0.127669  0.098766  0  1.002531  0
H  H37  1  0.42083791  0.53195606  0.84927055  1  0  0.095174  0  0.936391  0  0  0.100943  0  1.001017  0  0  0.103341  0  1.00087  0  0.105239  0  0.127614  0.098633  0  1.00244  0
H  H38  1  0.92084000  0.96804521  0.34927160  1  0  0.095188  0  0.936425  0  0  0.100967  0  1.001035  0  0  0.103364  0  1.00089  0  0.105257  0  0.12763  0.098657  0  1.00246  0
H  H39  1  0.57915973  0.46803980  0.15072984  1  0  0.095295  0  0.936487  0  0  0.101075  0  1.001092  0  0  0.103472  0  1.000946  0  0.105206  0  0.127677  0.098766  0  1.002514  0
H  H40  1  0.41254770  0.84695525  0.93255844  1  0  0.085521  0  0.971721  0  0  0.097497  0  1.034065  0  0  0.100091  0  1.033767  0  0.041398  0  0.093771  0.095415  0  1.034865  0
H  H41  1  0.08745047  0.34695674  0.56744047  1  0  0.085518  0  0.971711  0  0  0.097494  0  1.034055  0  0  0.100087  0  1.033759  0  0.041522  0  0.093763  0.095414  0  1.034852  0
H  H42  1  0.58745387  0.15304061  0.06744285  1  0  0.085529  0  0.971744  0  0  0.097511  0  1.034076  0  0  0.100107  0  1.033775  0  0.041492  0  0.093766  0.095423  0  1.034881  0
H  H43  1  0.91254978  0.65304372  0.43255762  1  0  0.085538  0  0.971729  0  0  0.097517  0  1.034065  0  0  0.100111  0  1.033767  0  0.041541  0  0.093779  0.095437  0  1.034862  0
C  C44  1  0.29456994  0.35226516  0.41958071  1  0  -0.377919  0  3.731777  0  0  -0.44795  0  3.957092  0  0  -0.451223  0  3.963529  0  0.040203  0  -0.198926  -0.445453  0  3.952433  0
C  C45  1  0.20543084  0.85226482  0.08042272  1  0  -0.377909  0  3.731731  0  0  -0.44787  0  3.957039  0  0  -0.451145  0  3.963469  0  0.040276  0  -0.198874  -0.445371  0  3.952379  0
C  C46  1  0.70542639  0.64773761  0.58042207  1  0  -0.37801  0  3.731763  0  0  -0.447993  0  3.957091  0  0  -0.451267  0  3.963536  0  0.040297  0  -0.198931  -0.445495  0  3.952431  0
C  C47  1  0.79456941  0.14773450  0.91957909  1  0  -0.378003  0  3.731704  0  0  -0.447937  0  3.956936  0  0  -0.45121  0  3.963363  0  0.040253  0  -0.198891  -0.445441  0  3.952284  0
C  C48  1  0.27053576  0.04339045  0.87394349  1  0  -0.113755  0  3.859841  0  0  -0.128368  0  4.111749  0  0  -0.13107  0  4.135338  0  -0.051974  0  -0.120312  -0.126102  0  4.094797  0
C  C49  1  0.22946240  0.54339011  0.62605542  1  0  -0.113842  0  3.859863  0  0  -0.128458  0  4.111774  0  0  -0.131161  0  4.135363  0  -0.051958  0  -0.120316  -0.126192  0  4.094823  0
C  C50  1  0.72946449  0.95660771  0.12605584  1  0  -0.113781  0  3.859917  0  0  -0.12839  0  4.111824  0  0  -0.131092  0  4.135413  0  -0.060286  0  -0.1203  -0.126125  0  4.09487  0
C  C51  1  0.77053785  0.45660920  0.37394330  1  0  -0.113819  0  3.859852  0  0  -0.128432  0  4.111767  0  0  -0.131134  0  4.135354  0  -0.051942  0  -0.120357  -0.126167  0  4.094815  0
C  C52  1  0.25503098  0.15317643  0.80870155  1  0  -0.111055  0  3.84475  0  0  -0.126202  0  4.100836  0  0  -0.12894  0  4.12433  0  -0.050599  0  -0.118011  -0.123862  0  4.084368  0
C  C53  1  0.24496718  0.65317839  0.69129860  1  0  -0.111038  0  3.844759  0  0  -0.126186  0  4.10084  0  0  -0.128924  0  4.124335  0  -0.05058  0  -0.11805  -0.123846  0  4.084372  0
C  C54  1  0.74497319  0.84682403  0.19129868  1  0  -0.11104  0  3.844747  0  0  -0.126169  0  4.10083  0  0  -0.128906  0  4.124323  0  -0.050717  0  -0.118024  -0.123829  0  4.084362  0
C  C55  1  0.75503176  0.34682092  0.30870002  1  0  -0.111091  0  3.844794  0  0  -0.126238  0  4.100866  0  0  -0.128977  0  4.124361  0  -0.050587  0  -0.118044  -0.123899  0  4.084399  0
C  C56  1  0.72056653  0.89392762  0.74749630  1  0  0.248206  0  3.834822  0  0  0.203427  0  4.11335  0  0  0.218013  0  4.124795  0  0.951761  0  0.12827  0.194175  0  4.104709  0
C  C57  1  0.77943189  0.39393026  0.75250380  1  0  0.248288  0  3.834829  0  0  0.20351  0  4.113347  0  0  0.218095  0  4.124793  0  0.95214  0  0.128339  0.194258  0  4.104704  0
C  C58  1  0.27943242  0.10606939  0.25250232  1  0  0.248261  0  3.834867  0  0  0.203482  0  4.113386  0  0  0.218067  0  4.124834  0  0.95179  0  0.128324  0.194231  0  4.104742  0
C  C59  1  0.22056836  0.60606905  0.24749429  1  0  0.248241  0  3.834778  0  0  0.203483  0  4.113294  0  0  0.218069  0  4.124736  0  0.952281  0  0.128294  0.194231  0  4.104651  0
C  C60  1  0.83585320  0.03605742  0.46641063  1  0  0.08093  0  3.69357  0  0  0.056123  0  3.948111  0  0  0.057087  0  3.966877  0  0.473644  0  0.064284  0.055289  0  3.936179  0
C  C61  1  0.66414522  0.53605248  0.03359009  1  0  0.080946  0  3.693484  0  0  0.05615  0  3.948029  0  0  0.057115  0  3.966793  0  0.473333  0  0.064328  0.055315  0  3.936097  0
C  C62  1  0.16414706  0.96394880  0.53359118  1  0  0.080983  0  3.693482  0  0  0.056175  0  3.948046  0  0  0.05715  0  3.966802  0  0.473161  0  0.06436  0.055349  0  3.936114  0
C  C63  1  0.33585242  0.46394338  0.96641092  1  0  0.080926  0  3.693629  0  0  0.056121  0  3.948156  0  0  0.057085  0  3.966922  0  0.473645  0  0.064305  0.055286  0  3.936224  0
C  C64  1  0.36901328  0.15297501  0.74903351  1  0  -0.173607  0  3.789799  0  0  -0.186949  0  4.035588  0  0  -0.189491  0  4.055586  0  -0.104377  0  -0.10442  -0.184917  0  4.022113  0
C  C65  1  0.13098619  0.65297351  0.75096673  1  0  -0.173601  0  3.789961  0  0  -0.186932  0  4.035747  0  0  -0.189474  0  4.055747  0  -0.10441  0  -0.104406  -0.184899  0  4.022271  0
C  C66  1  0.63098697  0.84702546  0.25096582  1  0  -0.173571  0  3.78977  0  0  -0.186917  0  4.035543  0  0  -0.189458  0  4.055539  0  -0.10443  0  -0.104393  -0.184885  0  4.022068  0
C  C67  1  0.86901537  0.34702695  0.24903269  1  0  -0.173509  0  3.789947  0  0  -0.186809  0  4.03574  0  0  -0.189352  0  4.05574  0  -0.104339  0  -0.104388  -0.184777  0  4.022263  0
C  C68  1  0.41885260  0.28447463  0.48446553  1  0  0.432705  0  3.698982  0  0  0.420693  0  3.982361  0  0  0.433508  0  3.997055  0  0.879021  0  0.226393  0.411819  0  3.97249  0
C  C69  1  0.08114818  0.78447198  0.01553852  1  0  0.432692  0  3.699068  0  0  0.420685  0  3.982419  0  0  0.4335  0  3.997116  0  0.879255  0  0.22644  0.411809  0  3.972548  0
C  C70  1  0.58114373  0.71552929  0.51553849  1  0  0.432748  0  3.69885  0  0  0.420749  0  3.982196  0  0  0.433563  0  3.996887  0  0.879282  0  0.226388  0.411878  0  3.972322  0
C  C71  1  0.91885338  0.21552273  0.98446277  1  0  0.43275  0  3.698936  0  0  0.420727  0  3.982294  0  0  0.433542  0  3.996992  0  0.879042  0  0.226413  0.411855  0  3.972418  0
C  C72  1  0.04303645  0.01682304  0.58320933  1  0  0.082251  0  3.682991  0  0  0.056793  0  3.938754  0  0  0.058091  0  3.956737  0  0.50837  0  0.066526  0.055508  0  3.927956  0
C  C73  1  0.45696694  0.51682154  0.91679304  1  0  0.082446  0  3.682899  0  0  0.05702  0  3.938615  0  0  0.05832  0  3.9566  0  0.507927  0  0.066615  0.055733  0  3.927818  0
C  C74  1  0.95696772  0.98317858  0.41679275  1  0  0.082408  0  3.682922  0  0  0.056969  0  3.938647  0  0  0.058268  0  3.956633  0  0.507862  0  0.066606  0.055683  0  3.927851  0
C  C75  1  0.54303331  0.48317777  0.08320877  1  0  0.082268  0  3.682951  0  0  0.056803  0  3.938724  0  0  0.058102  0  3.956709  0  0.508269  0  0.066522  0.055518  0  3.927929  0
C  C76  1  0.51402867  0.92708107  0.82135820  1  0  0.148016  0  3.858449  0  0  0.154313  0  4.092399  0  0  0.157407  0  4.115501  0  0.387766  0  0.075065  0.152163  0  4.076617  0
C  C77  1  0.98596845  0.42708256  0.67864058  1  0  0.148029  0  3.858495  0  0  0.154335  0  4.092424  0  0  0.157429  0  4.115528  0  0.387674  0  0.075046  0.152185  0  4.076643  0
C  C78  1  0.48596897  0.07291710  0.17864158  1  0  0.147983  0  3.858476  0  0  0.15424  0  4.092475  0  0  0.157333  0  4.115578  0  0.387676  0  0.075031  0.15209  0  4.076691  0
C  C79  1  0.01403181  0.57291906  0.32135813  1  0  0.148034  0  3.858378  0  0  0.154363  0  4.092317  0  0  0.157458  0  4.115419  0  0.387689  0  0.075068  0.152211  0  4.076536  0
C  C80  1  0.39928701  0.92979743  0.88121782  1  0  -0.161909  0  3.790417  0  0  -0.176808  0  4.036138  0  0  -0.179336  0  4.056359  0  -0.109624  0  -0.104949  -0.174527  0  4.022162  0
C  C81  1  0.10070854  0.42980008  0.61878153  1  0  -0.16195  0  3.790538  0  0  -0.176846  0  4.036265  0  0  -0.179375  0  4.056486  0  -0.10967  0  -0.104975  -0.174567  0  4.022287  0
C  C82  1  0.60071324  0.07020073  0.11878214  1  0  -0.161928  0  3.790474  0  0  -0.176817  0  4.036201  0  0  -0.179346  0  4.056422  0  -0.109578  0  -0.104959  -0.174531  0  4.022227  0
C  C83  1  0.89928910  0.57020039  0.38121700  1  0  -0.161944  0  3.790473  0  0  -0.176847  0  4.036187  0  0  -0.179377  0  4.056408  0  -0.10963  0  -0.104932  -0.174567  0  4.02221  0
C  C84  1  0.49925449  0.03919045  0.75557285  1  0  0.144299  0  3.852925  0  0  0.148291  0  4.088277  0  0  0.15108  0  4.112002  0  0.401809  0  0.072466  0.146249  0  4.072071  0
C  C85  1  0.00074498  0.53919241  0.74442677  1  0  0.144324  0  3.852992  0  0  0.148307  0  4.088344  0  0  0.151096  0  4.112068  0  0.401809  0  0.072496  0.146264  0  4.072138  0
C  C86  1  0.50074576  0.96080771  0.24442649  1  0  0.144341  0  3.853006  0  0  0.148363  0  4.088337  0  0  0.151153  0  4.112059  0  0.401786  0  0.072479  0.14632  0  4.072131  0
C  C87  1  0.99925135  0.46081036  0.25556981  1  0  0.144379  0  3.852857  0  0  0.148318  0  4.088266  0  0  0.151107  0  4.11199  0  0.401826  0  0.072507  0.146277  0  4.072059  0
N  N88  1  0.63340621  0.01475929  0.70874136  1  0  -0.585897  0  3.106641  0  0  -0.532828  0  3.382276  0  0  -0.549606  0  3.394379  0  -1.278861  0  -0.468042  -0.521373  0  3.373403  0
N  N89  1  0.86659352  0.51476125  0.79125884  1  0  -0.585911  0  3.106625  0  0  -0.532845  0  3.382267  0  0  -0.549621  0  3.394369  0  -1.278884  0  -0.468066  -0.52139  0  3.373394  0
N  N90  1  0.36659405  0.98523772  0.29125736  1  0  -0.586002  0  3.106774  0  0  -0.532931  0  3.382385  0  0  -0.549712  0  3.394486  0  -1.278852  0  -0.468073  -0.521476  0  3.373512  0
N  N91  1  0.13340543  0.48523921  0.20873916  1  0  -0.585994  0  3.10661  0  0  -0.532924  0  3.382268  0  0  -0.5497  0  3.394364  0  -1.279009  0  -0.468101  -0.521468  0  3.373395  0
N  N92  1  0.52042506  0.23230778  0.53723900  1  0  -0.511589  0  2.679487  0  0  -0.483734  0  2.929159  0  0  -0.495613  0  2.937181  0  -1.277469  0  -0.374069  -0.475654  0  2.923814  0
N  N93  1  0.97957597  0.73230744  0.96276501  1  0  -0.511649  0  2.679564  0  0  -0.483805  0  2.929237  0  0  -0.495684  0  2.937263  0  -1.277694  0  -0.374169  -0.475723  0  2.923894  0
N  N94  1  0.47957389  0.76769959  0.46276334  1  0  -0.511636  0  2.679318  0  0  -0.483792  0  2.92898  0  0  -0.495673  0  2.937001  0  -1.277724  0  -0.374075  -0.475713  0  2.923634  0
N  N95  1  0.02042428  0.26768842  0.03723681  1  0  -0.51166  0  2.679394  0  0  -0.483822  0  2.929094  0  0  -0.495701  0  2.937116  0  -1.277523  0  -0.374129  -0.475745  0  2.92375  0
N  N96  1  0.87866616  0.05290924  0.54967452  1  0  -0.332778  0  3.157765  0  0  -0.282236  0  3.421828  0  0  -0.289929  0  3.436259  0  -1.215378  0  -0.362533  -0.27746  0  3.412711  0
N  N97  1  0.62133226  0.55290889  0.95032621  1  0  -0.332852  0  3.157784  0  0  -0.282324  0  3.42184  0  0  -0.290016  0  3.436269  0  -1.215444  0  -0.362591  -0.277548  0  3.412724  0
N  N98  1  0.12133279  0.94709353  0.45032659  1  0  -0.332841  0  3.157773  0  0  -0.282311  0  3.421839  0  0  -0.290006  0  3.436265  0  -1.215361  0  -0.362598  -0.277534  0  3.412719  0
N  N99  1  0.37866538  0.44708812  0.04967480  1  0  -0.33279  0  3.157811  0  0  -0.28225  0  3.421878  0  0  -0.289941  0  3.436308  0  -1.215444  0  -0.362545  -0.277475  0  3.412762  0
N  N100  1  0.65726132  0.83487434  0.81470689  1  0  -0.590451  0  3.114321  0  0  -0.539907  0  3.391083  0  0  -0.556689  0  3.40306  0  -1.254122  0  -0.467067  -0.528195  0  3.381965  0
N  N101  1  0.84273579  0.33487813  0.68529251  1  0  -0.590439  0  3.114285  0  0  -0.539893  0  3.391036  0  0  -0.556672  0  3.403008  0  -1.254438  0  -0.467078  -0.528183  0  3.381921  0
N  N102  1  0.34273762  0.16512383  0.18529174  1  0  -0.590388  0  3.114282  0  0  -0.539829  0  3.391041  0  0  -0.556612  0  3.403019  0  -1.25414  0  -0.467059  -0.528119  0  3.381924  0
N  N103  1  0.15726316  0.66512348  0.31470488  1  0  -0.590457  0  3.114268  0  0  -0.53991  0  3.391002  0  0  -0.556692  0  3.402974  0  -1.25458  0  -0.467069  -0.528203  0  3.381895  0
