# generated using pymatgen
data_MnH7C9N7O
_symmetry_space_group_name_H-M   'P 1'
_cell_length_a   16.95182569
_cell_length_b   16.95191554
_cell_length_c   16.95189955
_cell_angle_alpha   108.69667217
_cell_angle_beta   109.86033930
_cell_angle_gamma   109.85970358
_symmetry_Int_Tables_number   1
_chemical_formula_structural   MnH7C9N7O
_chemical_formula_sum   'Mn8 H56 C72 N56 O8'
_cell_volume   3749.47750171
_cell_formula_units_Z   8
loop_
 _symmetry_equiv_pos_site_id
 _symmetry_equiv_pos_as_xyz
  1  'x, y, z'
loop_
 _atom_site_type_symbol
 _atom_site_label
 _atom_site_symmetry_multiplicity
 _atom_site_fract_x
 _atom_site_fract_y
 _atom_site_fract_z
 _atom_site_occupancy
 _atom_site_pbe_bader_charge
 _atom_site_pbe_bader_spin_density
 _atom_site_pbe_cm5_charge
 _atom_site_pbe_ddec_charge
 _atom_site_pbe_ddec_spin_density
 _atom_site_pbe_ddec_sum_bond_order
 _atom_site_pbe_magmom
Mn  Mn0  1  0.08891311  0.95785573  0.08027289  1  1.453734  4.524658  0.62048  0.694803  4.668254  2.578005  4.44
Mn  Mn1  1  0.37758558  0.36893647  0.45785588  1  1.452007  4.524941  0.620542  0.694822  4.668284  2.578009  4.439
Mn  Mn2  1  0.41108153  0.49135659  0.86893407  1  1.451478  4.525052  0.620499  0.694854  4.668242  2.577971  4.44
Mn  Mn3  1  0.12241325  0.58027016  0.99134919  1  1.452315  4.524847  0.620522  0.694824  4.668308  2.577984  4.44
Mn  Mn4  1  0.91107756  0.04214259  0.91972441  1  1.453725  4.524643  0.620519  0.694783  4.668289  2.578077  4.439
Mn  Mn5  1  0.62241816  0.63106544  0.54214795  1  1.451977  4.524941  0.62056  0.694885  4.668227  2.577956  4.439
Mn  Mn6  1  0.58892221  0.50864962  0.13106479  1  1.451557  4.525017  0.620492  0.694775  4.668305  2.578079  4.439
Mn  Mn7  1  0.87758323  0.41973027  0.00864852  1  1.452324  4.524854  0.62053  0.694766  4.668264  2.577992  4.44
H  H8  1  0.85438589  0.61863583  0.07953875  1  0.105366  0.001149  0.128382  0.087524  0.00052  1.018209  0.0
H  H9  1  0.03909778  0.26425270  0.11863814  1  0.114416  0.00114  0.128395  0.087534  0.00052  1.018225  0.0
H  H10  1  0.64561203  0.72515373  0.76425080  1  0.105061  0.00116  0.128375  0.087554  0.00052  1.01824  0.0
H  H11  1  0.46090808  0.57954734  0.22515631  1  0.123008  0.001117  0.128362  0.087552  0.00052  1.018179  0.0
H  H12  1  0.14561132  0.38136319  0.92045745  1  0.105307  0.001149  0.128349  0.087475  0.00052  1.018154  0.0
H  H13  1  0.96090233  0.73575055  0.88136450  1  0.114467  0.00114  0.128387  0.087536  0.00052  1.018239  0.0
H  H14  1  0.35439025  0.27484981  0.23575231  1  0.105148  0.00116  0.128355  0.087487  0.00052  1.018216  0.0
H  H15  1  0.53909493  0.42045321  0.77484405  1  0.123  0.001117  0.128389  0.08758  0.00052  1.018159  0.0
H  H16  1  0.36955949  0.94706796  0.01843027  1  0.085623  0.00075  0.112845  0.122742  0.000399  0.991125  0.0
H  H17  1  0.42863642  0.07750692  0.44707231  1  0.093604  0.000742  0.112838  0.122701  0.0004  0.991193  0.0
H  H18  1  0.13043553  0.14886860  0.57750749  1  0.146001  0.000747  0.112836  0.122729  0.0004  0.991179  0.0
H  H19  1  0.07136133  0.51843485  0.64886970  1  0.08732  0.000749  0.112852  0.122736  0.000399  0.991159  0.0
H  H20  1  0.63043699  0.05292833  0.98156557  1  0.085753  0.00075  0.112865  0.122739  0.000399  0.991147  0.0
H  H21  1  0.57136005  0.92248819  0.55292353  1  0.093685  0.000742  0.112879  0.122742  0.0004  0.991184  0.0
H  H22  1  0.86956821  0.85113230  0.42249136  1  0.146196  0.000747  0.112866  0.122729  0.0004  0.9912  0.0
H  H23  1  0.92863805  0.48156547  0.35113196  1  0.087517  0.000749  0.112834  0.122699  0.000399  0.991173  0.0
H  H24  1  0.42918927  0.09789598  0.00527832  1  0.076692  0.000288  0.111444  0.105782  0.000129  0.974867  0.0
H  H25  1  0.59261854  0.16870842  0.59790016  1  0.079287  0.000286  0.111437  0.105776  0.000129  0.974847  0.0
H  H26  1  0.07081084  0.07608990  0.66871049  1  0.090333  0.000279  0.111454  0.105767  0.000129  0.97484  0.0
H  H27  1  0.90738016  0.50528166  0.57608765  1  0.074891  0.000292  0.111436  0.10573  0.000129  0.974826  0.0
H  H28  1  0.57080721  0.90210071  0.99471877  1  0.076631  0.000288  0.111425  0.105722  0.000129  0.974797  0.0
H  H29  1  0.40737721  0.83128496  0.40209656  1  0.07934  0.000286  0.111427  0.105785  0.000129  0.97482  0.0
H  H30  1  0.92919145  0.92390890  0.33128701  1  0.090172  0.000279  0.111435  0.105756  0.000129  0.974807  0.0
H  H31  1  0.09261995  0.49471921  0.42391126  1  0.074871  0.000292  0.11143  0.105723  0.000129  0.974919  0.0
H  H32  1  0.34385734  0.19283730  0.01838333  1  0.094176  0.001528  0.106017  0.117027  0.000707  1.020129  0.0
H  H33  1  0.67445527  0.34898129  0.69284004  1  0.112109  0.001512  0.106008  0.117038  0.000707  1.020166  0.0
H  H34  1  0.15614626  0.17453003  0.84898395  1  0.107802  0.00152  0.106027  0.117049  0.000707  1.020067  0.0
H  H35  1  0.82554401  0.51838644  0.67452479  1  0.094349  0.001529  0.10601  0.117009  0.000707  1.020053  0.0
H  H36  1  0.65614132  0.80716127  0.98161547  1  0.094152  0.001528  0.106016  0.11701  0.000707  1.020113  0.0
H  H37  1  0.32554339  0.65101138  0.30715875  1  0.112715  0.001511  0.105994  0.117038  0.000707  1.020111  0.0
H  H38  1  0.84385240  0.82546932  0.15101360  1  0.107775  0.00152  0.106002  0.11703  0.000707  1.020046  0.0
H  H39  1  0.17445682  0.48161558  0.32547510  1  0.094347  0.001529  0.106022  0.117024  0.000707  1.020131  0.0
H  H40  1  0.20148931  0.13235175  0.04337478  1  0.074432  0.00166  0.119574  0.087591  0.000599  0.994005  0.001
H  H41  1  0.58897549  0.43085941  0.63235404  1  0.068711  0.001657  0.119508  0.087437  0.000599  0.99392  0.001
H  H42  1  0.29851171  0.34188930  0.93086042  1  0.078729  0.001661  0.119575  0.087547  0.000598  0.994108  0.001
H  H43  1  0.91102339  0.54338019  0.84188353  1  0.073562  0.001662  0.119515  0.08746  0.000599  0.993867  0.001
H  H44  1  0.79851080  0.86764815  0.95662662  1  0.074426  0.00166  0.119569  0.087596  0.000599  0.994032  0.001
H  H45  1  0.41102752  0.56913682  0.36764756  1  0.068582  0.001657  0.119577  0.087537  0.000599  0.99407  0.001
H  H46  1  0.70148840  0.65811097  0.06913849  1  0.078704  0.001662  0.11958  0.08756  0.000599  0.994046  0.001
H  H47  1  0.08897599  0.45662189  0.15811626  1  0.073642  0.001661  0.119543  0.087523  0.000599  0.993859  0.001
H  H48  1  0.98368551  0.82648548  0.11809535  1  0.643255  0.001109  0.274816  0.332367  0.001218  1.03641  0.002
H  H49  1  0.20839230  0.34280237  0.32648850  1  0.652269  0.001096  0.274847  0.332403  0.001218  1.036378  0.002
H  H50  1  0.51631349  0.63440888  0.84280147  1  0.642977  0.001106  0.274863  0.33243  0.001218  1.036319  0.002
H  H51  1  0.29161029  0.61809990  0.13441166  1  0.644943  0.001097  0.274826  0.33237  0.001218  1.036365  0.002
H  H52  1  0.01631387  0.17351327  0.88190506  1  0.643266  0.001109  0.274836  0.332397  0.001218  1.036361  0.002
H  H53  1  0.79160999  0.65719980  0.67351398  1  0.652192  0.001096  0.274818  0.332371  0.001218  1.036419  0.002
H  H54  1  0.48368517  0.36559363  0.15719858  1  0.642823  0.001106  0.274817  0.332372  0.001218  1.036382  0.002
H  H55  1  0.70839127  0.38190111  0.86558984  1  0.644941  0.001097  0.274847  0.332406  0.001218  1.036325  0.002
H  H56  1  0.04305655  0.93376219  0.20608276  1  0.614599  0.002058  0.314157  0.383314  0.001485  0.900677  0.001
H  H57  1  0.22768489  0.39070522  0.43376546  1  0.597427  0.002209  0.314182  0.383352  0.001485  0.90047  0.001
H  H58  1  0.45694506  0.66302278  0.89070965  1  0.600132  0.002204  0.314184  0.383367  0.001485  0.900524  0.001
H  H59  1  0.27231594  0.70608183  0.16302055  1  0.599214  0.002234  0.314196  0.383358  0.001485  0.900552  0.001
H  H60  1  0.95694283  0.06623774  0.79391952  1  0.614483  0.002057  0.314139  0.383295  0.001485  0.90072  0.001
H  H61  1  0.77232030  0.60929583  0.56623785  1  0.597393  0.002209  0.314168  0.383326  0.001485  0.900533  0.001
H  H62  1  0.54305359  0.33697875  0.10929102  1  0.600167  0.002203  0.314131  0.38322  0.001484  0.900558  0.001
H  H63  1  0.72768417  0.29391825  0.83697773  1  0.599218  0.002234  0.314193  0.383369  0.001485  0.900537  0.001
C  C64  1  0.91542194  0.63371933  0.06732857  1  0.986213  0.018664  0.138206  0.13714  0.015395  4.000091  0.014
C  C65  1  0.06639250  0.21830035  0.13372111  1  0.959081  0.018786  0.138174  0.137192  0.015391  4.000226  0.014
C  C66  1  0.58457725  0.65190739  0.71829947  1  0.994671  0.018616  0.138166  0.13713  0.015395  4.000315  0.014
C  C67  1  0.43361391  0.56733608  0.15191022  1  0.952045  0.018806  0.138207  0.137203  0.015391  4.000217  0.014
C  C68  1  0.08457598  0.36627947  0.93266986  1  0.986542  0.01866  0.138232  0.13729  0.015392  4.000032  0.014
C  C69  1  0.93360688  0.78170135  0.86628117  1  0.959014  0.018789  0.138224  0.137237  0.015394  4.000288  0.014
C  C70  1  0.41542649  0.34809669  0.28170561  1  0.994457  0.018616  0.138242  0.137313  0.015393  4.000064  0.014
C  C71  1  0.56638910  0.43266526  0.84809076  1  0.952027  0.018804  0.138233  0.137163  0.015389  4.000241  0.014
C  C72  1  0.03890750  0.70343983  0.05818980  1  0.98299  0.015608  0.214625  0.212718  0.012657  4.098838  0.011
C  C73  1  0.14524917  0.16453262  0.20343913  1  0.98835  0.015618  0.214565  0.212611  0.012658  4.09872  0.011
C  C74  1  0.46109297  0.51928142  0.66453118  1  0.989892  0.015587  0.214572  0.21264  0.012657  4.098813  0.011
C  C75  1  0.35475124  0.55819131  0.01928205  1  1.009341  0.015565  0.214641  0.212786  0.012654  4.098827  0.011
C  C76  1  0.96109115  0.29655972  0.94181024  1  0.9831  0.015607  0.214617  0.212693  0.012656  4.098825  0.011
C  C77  1  0.85475021  0.83546868  0.79656190  1  0.988593  0.015619  0.214596  0.212738  0.012658  4.098833  0.011
C  C78  1  0.53891076  0.48072107  0.33547078  1  0.989851  0.015587  0.214576  0.212675  0.012657  4.098872  0.011
C  C79  1  0.64524886  0.44180936  0.98071810  1  1.009308  0.015565  0.214623  0.212674  0.012655  4.098895  0.011
C  C80  1  0.11921004  0.76844564  0.05676945  1  0.99461  0.017958  0.213626  0.219139  0.014528  4.088823  0.014
C  C81  1  0.21167553  0.14923418  0.26844477  1  1.012525  0.017844  0.213677  0.219218  0.014529  4.088817  0.014
C  C82  1  0.38078893  0.43755742  0.64923397  1  1.020859  0.017818  0.213746  0.21934  0.014529  4.088562  0.014
C  C83  1  0.28832691  0.55677366  0.93756077  1  0.973856  0.017948  0.213605  0.219121  0.01453  4.088733  0.014
C  C84  1  0.88078789  0.23155217  0.94322961  1  0.994622  0.017958  0.213616  0.219099  0.014529  4.08877  0.014
C  C85  1  0.78832530  0.85076726  0.73155699  1  1.012569  0.017846  0.213718  0.219247  0.014532  4.08874  0.014
C  C86  1  0.61921335  0.56244316  0.35076726  1  1.020579  0.017816  0.213723  0.219291  0.014528  4.088603  0.014
C  C87  1  0.71167465  0.44322814  0.06244135  1  0.973932  0.017949  0.213622  0.219113  0.014532  4.088726  0.014
C  C88  1  0.21598612  0.87680296  0.04616622  1  0.960738  0.011151  0.201018  0.215658  0.009059  4.068023  0.008
C  C89  1  0.33063571  0.16081392  0.37680655  1  0.932774  0.011189  0.201011  0.215558  0.009059  4.068208  0.008
C  C90  1  0.28400850  0.33017765  0.66081119  1  0.932251  0.011237  0.201008  0.215544  0.00906  4.068136  0.008
C  C91  1  0.16936602  0.54617114  0.83017914  1  0.970376  0.011119  0.200984  0.215498  0.009059  4.06838  0.008
C  C92  1  0.78400745  0.12319484  0.95383191  1  0.960748  0.011152  0.200976  0.215553  0.00906  4.068144  0.008
C  C93  1  0.66936440  0.83918578  0.62319422  1  0.932691  0.011191  0.200973  0.215542  0.00906  4.068065  0.008
C  C94  1  0.71599233  0.66982239  0.33918621  1  0.932132  0.011236  0.201045  0.215617  0.00906  4.068023  0.008
C  C95  1  0.83063409  0.45383130  0.16982101  1  0.970338  0.011119  0.200982  0.215463  0.00906  4.068281  0.008
C  C96  1  0.25679776  0.96365539  0.03967972  1  0.450475  0.00669  0.130702  0.177278  0.005009  3.987114  0.004
C  C97  1  0.42397090  0.20685432  0.46365952  1  0.545402  0.006567  0.130779  0.177421  0.005011  3.987217  0.004
C  C98  1  0.24319553  0.28288183  0.70685235  1  0.488545  0.006694  0.130765  0.177345  0.005011  3.987086  0.004
C  C99  1  0.07602731  0.53968687  0.78288348  1  0.446575  0.006701  0.13082  0.177454  0.005012  3.987167  0.004
C  C100  1  0.74319509  0.03633869  0.96031307  1  0.450346  0.006693  0.130761  0.17727  0.005012  3.987247  0.004
C  C101  1  0.57602630  0.79314334  0.53633980  1  0.545629  0.006567  0.13075  0.177309  0.005012  3.987324  0.004
C  C102  1  0.75680675  0.71711834  0.29314578  1  0.488661  0.006696  0.130739  0.177332  0.005013  3.987298  0.004
C  C103  1  0.92397280  0.46031520  0.21711916  1  0.446754  0.006701  0.130794  0.177441  0.005012  3.987212  0.004
C  C104  1  0.33575004  0.99139972  0.02439088  1  -0.004169  0.000803  -0.078582  -0.15561  0.000292  3.936699  0.0
C  C105  1  0.46700919  0.15564898  0.49140650  1  -0.006279  0.000808  -0.078622  -0.155656  0.000292  3.936701  0.0
C  C106  1  0.16424595  0.18864026  0.65564783  1  -0.039966  0.000802  -0.078669  -0.155734  0.000291  3.936827  0.0
C  C107  1  0.03299027  0.52439600  0.68864054  1  -0.002813  0.000799  -0.0787  -0.15578  0.000291  3.936793  0.0
C  C108  1  0.66424498  0.00859663  0.97560486  1  -0.00515  0.000802  -0.07865  -0.155679  0.000291  3.936796  0.0
C  C109  1  0.53299019  0.84434760  0.50859453  1  -0.006391  0.000808  -0.07867  -0.155629  0.000291  3.936661  0.0
C  C110  1  0.83575778  0.81136044  0.34435039  1  -0.040212  0.000801  -0.078661  -0.155694  0.000291  3.936992  0.0
C  C111  1  0.96701129  0.47560502  0.31136282  1  -0.00307  0.000799  -0.078646  -0.155683  0.000291  3.93667  0.0
C  C112  1  0.36774452  0.07441913  0.01686971  1  -0.039766  0.005288  -0.068481  -0.030038  0.004099  3.998567  0.003
C  C113  1  0.55755152  0.20667825  0.57442606  1  -0.056447  0.005303  -0.068464  -0.030003  0.004101  3.998343  0.003
C  C114  1  0.13225429  0.14912720  0.70667520  1  -0.088822  0.005318  -0.068481  -0.029946  0.004101  3.998366  0.003
C  C115  1  0.94245023  0.51687290  0.64912439  1  -0.035791  0.005289  -0.068396  -0.029845  0.004101  3.998348  0.003
C  C116  1  0.63225269  0.92557792  0.98312587  1  -0.038823  0.00529  -0.068436  -0.029909  0.004101  3.998355  0.003
C  C117  1  0.44244713  0.79331697  0.42557150  1  -0.056763  0.005305  -0.068454  -0.030037  0.004102  3.998259  0.003
C  C118  1  0.86774727  0.85087223  0.29332318  1  -0.088501  0.005319  -0.068481  -0.02996  0.004102  3.998369  0.003
C  C119  1  0.05755278  0.48312707  0.35087783  1  -0.035842  0.005288  -0.06839  -0.029836  0.004101  3.998328  0.003
C  C120  1  0.32015244  0.12735127  0.02370917  1  0.009011  0.002341  -0.090174  -0.143884  0.001731  3.989893  0.001
C  C121  1  0.60364426  0.30720413  0.62735800  1  -0.019247  0.002353  -0.090149  -0.143945  0.00173  3.98987  0.001
C  C122  1  0.17984887  0.20356160  0.80720206  1  0.008442  0.002318  -0.090199  -0.143999  0.00173  3.989734  0.001
C  C123  1  0.89635782  0.52371326  0.70355830  1  0.008371  0.00234  -0.090192  -0.143927  0.00173  3.989684  0.001
C  C124  1  0.67984622  0.87264572  0.97628838  1  0.008876  0.00234  -0.090182  -0.143871  0.00173  3.9898  0.001
C  C125  1  0.39635585  0.69279064  0.37264215  1  -0.019569  0.002353  -0.090117  -0.143959  0.00173  3.989868  0.001
C  C126  1  0.82015051  0.79643930  0.19279586  1  0.008308  0.002317  -0.090105  -0.143928  0.001729  3.989629  0.001
C  C127  1  0.10364447  0.47628811  0.29644356  1  0.008348  0.002341  -0.09021  -0.143947  0.00173  3.98978  0.001
C  C128  1  0.24210909  0.09466932  0.03859276  1  0.480212  0.006393  0.050519  0.094791  0.004908  3.971191  0.004
C  C129  1  0.55607371  0.35255571  0.59467017  1  0.501454  0.006299  0.050616  0.095073  0.00491  3.97117  0.004
C  C130  1  0.25788877  0.29648687  0.85256017  1  0.464213  0.006373  0.050565  0.09501  0.004909  3.971292  0.004
C  C131  1  0.94392565  0.53859610  0.79648320  1  0.483446  0.006375  0.050573  0.094962  0.00491  3.971151  0.004
C  C132  1  0.75788884  0.90532751  0.96140506  1  0.480309  0.006395  0.050482  0.094759  0.00491  3.971276  0.004
C  C133  1  0.44392495  0.64743716  0.40532925  1  0.501534  0.0063  0.050533  0.09498  0.004911  3.971277  0.004
C  C134  1  0.74211061  0.70351265  0.14743899  1  0.464235  0.006376  0.050506  0.094951  0.004911  3.971226  0.004
C  C135  1  0.05607664  0.46140567  0.20351804  1  0.482934  0.006378  0.05056  0.094894  0.00491  3.970974  0.004
N  N136  1  0.97493190  0.72005295  0.08150186  1  -1.222743  0.010126  -0.328223  -0.362017  0.005534  3.324175  0.005
N  N137  1  0.13855040  0.24512303  0.22005242  1  -1.222437  0.01013  -0.328187  -0.361937  0.005534  3.32409  0.005
N  N138  1  0.52506742  0.60656989  0.74512058  1  -1.227162  0.010144  -0.328205  -0.362055  0.005534  3.324246  0.005
N  N139  1  0.36145396  0.58150785  0.10657221  1  -1.224628  0.010133  -0.328208  -0.362089  0.005534  3.324352  0.005
N  N140  1  0.02506820  0.27994870  0.91849767  1  -1.222956  0.010126  -0.328218  -0.362073  0.005534  3.324242  0.005
N  N141  1  0.86144826  0.75487909  0.77994825  1  -1.222689  0.010131  -0.328274  -0.362109  0.005535  3.324303  0.005
N  N142  1  0.47493342  0.39343272  0.25488118  1  -1.226948  0.010143  -0.328188  -0.36208  0.005534  3.324278  0.005
N  N143  1  0.63854905  0.41849210  0.89342814  1  -1.224698  0.010133  -0.328232  -0.362034  0.005534  3.324244  0.005
N  N144  1  0.01962220  0.61211938  0.03045346  1  -0.7894  0.060246  -0.235349  -0.237112  0.040742  3.393596  0.022
N  N145  1  0.08166516  0.09249807  0.11211824  1  -0.788093  0.060063  -0.235345  -0.237106  0.040742  3.393581  0.022
N  N146  1  0.48037870  0.51083039  0.59249827  1  -0.79053  0.060045  -0.235304  -0.236962  0.040743  3.393585  0.022
N  N147  1  0.41833495  0.53045401  0.01083146  1  -0.794339  0.060168  -0.235323  -0.237103  0.040744  3.393364  0.022
N  N148  1  0.98037791  0.38787992  0.96954793  1  -0.789382  0.060242  -0.23531  -0.236946  0.04074  3.393457  0.022
N  N149  1  0.91833422  0.90750422  0.88788404  1  -0.788135  0.060058  -0.235281  -0.236937  0.040742  3.393541  0.022
N  N150  1  0.51962721  0.48917182  0.40750603  1  -0.790338  0.060035  -0.235342  -0.237073  0.040743  3.393442  0.022
N  N151  1  0.58166661  0.46954758  0.98916817  1  -0.794337  0.060176  -0.235333  -0.237068  0.040742  3.393536  0.022
N  N152  1  0.93986915  0.56727244  0.03657673  1  -0.797338  0.063213  -0.24187  -0.186179  0.04023  3.46701  0.02
N  N153  1  0.03069484  0.12740452  0.06727133  1  -0.782786  0.063325  -0.241895  -0.186294  0.040233  3.467109  0.02
N  N154  1  0.56013185  0.59670738  0.62740358  1  -0.80702  0.063283  -0.241862  -0.186291  0.040231  3.467136  0.02
N  N155  1  0.46930685  0.53657958  0.09670962  1  -0.772585  0.063028  -0.241917  -0.186311  0.040232  3.467017  0.02
N  N156  1  0.06013023  0.43272807  0.96342368  1  -0.797404  0.063208  -0.241876  -0.186361  0.040233  3.46708  0.02
N  N157  1  0.96930237  0.87259530  0.93272923  1  -0.782684  0.063313  -0.241931  -0.186416  0.040235  3.467264  0.02
N  N158  1  0.43987334  0.40329526  0.37260098  1  -0.80716  0.063285  -0.241875  -0.186293  0.040232  3.466925  0.02
N  N159  1  0.53069543  0.46342041  0.90328975  1  -0.772521  0.063029  -0.241903  -0.186278  0.040232  3.467181  0.02
N  N160  1  0.13856054  0.85381408  0.06076177  1  -1.24333  0.060669  -0.345404  -0.380271  0.04039  3.427016  0.02
N  N161  1  0.29305023  0.21524916  0.35381552  1  -1.267719  0.060736  -0.345428  -0.380264  0.040389  3.427114  0.02
N  N162  1  0.36143575  0.42219927  0.71524906  1  -1.24999  0.060623  -0.345453  -0.380332  0.040393  3.42707  0.02
N  N163  1  0.20695026  0.56076757  0.92219966  1  -1.256  0.060744  -0.345392  -0.380234  0.040388  3.427088  0.02
N  N164  1  0.86143449  0.14618326  0.93923521  1  -1.243284  0.060681  -0.345415  -0.380215  0.040389  3.426933  0.02
N  N165  1  0.70695061  0.78475208  0.64618562  1  -1.267642  0.060741  -0.345454  -0.380315  0.040393  3.427187  0.02
N  N166  1  0.63856581  0.57780173  0.28475057  1  -1.249889  0.060618  -0.345424  -0.380275  0.040389  3.427063  0.02
N  N167  1  0.79305203  0.43923538  0.07780345  1  -1.256194  0.060748  -0.345375  -0.380139  0.040386  3.427135  0.02
N  N168  1  0.24353990  0.81035020  0.03442084  1  -0.647582  0.01457  -0.239759  -0.257922  0.009578  3.145003  0.01
N  N169  1  0.27592409  0.06680818  0.31035154  1  -0.652439  0.014576  -0.239759  -0.257748  0.00958  3.144928  0.01
N  N170  1  0.25645512  0.29087992  0.56680576  1  -0.647549  0.014574  -0.239737  -0.257687  0.009579  3.145051  0.01
N  N171  1  0.22407296  0.53442483  0.79088206  1  -0.65037  0.014573  -0.239724  -0.257748  0.009578  3.145157  0.01
N  N172  1  0.75645585  0.18964731  0.96557589  1  -0.647772  0.01457  -0.239711  -0.25773  0.009578  3.145075  0.01
N  N173  1  0.72407529  0.93319253  0.68964950  1  -0.652463  0.014577  -0.239763  -0.257776  0.009581  3.1449  0.01
N  N174  1  0.74354716  0.70912144  0.43319423  1  -0.647697  0.014574  -0.239801  -0.257835  0.009579  3.144916  0.01
N  N175  1  0.77592642  0.46557726  0.20911960  1  -0.650276  0.014575  -0.239746  -0.257807  0.00958  3.144943  0.01
N  N176  1  0.18132433  0.74077539  0.04157808  1  -0.751742  0.054701  -0.235173  -0.248502  0.038624  3.434768  0.023
N  N177  1  0.19919405  0.05945019  0.24077321  1  -0.753754  0.054723  -0.235227  -0.248611  0.038623  3.434843  0.023
N  N178  1  0.31867506  0.36025208  0.55944762  1  -0.768663  0.054673  -0.23525  -0.248708  0.038626  3.434797  0.023
N  N179  1  0.30080445  0.54158185  0.86025491  1  -0.752986  0.054693  -0.235149  -0.248549  0.038623  3.434864  0.023
N  N180  1  0.81867360  0.25922262  0.95841974  1  -0.751688  0.054701  -0.235185  -0.248599  0.038625  3.43477  0.023
N  N181  1  0.80080533  0.94055071  0.75922658  1  -0.753756  0.054718  -0.235246  -0.24862  0.038625  3.434952  0.023
N  N182  1  0.68132795  0.63974945  0.44055211  1  -0.76831  0.054674  -0.235235  -0.248652  0.038627  3.434769  0.023
N  N183  1  0.69919566  0.45842041  0.13974648  1  -0.75292  0.054693  -0.235167  -0.248505  0.038622  3.434765  0.023
N  N184  1  0.21123093  0.01538214  0.04719024  1  -1.22993  0.0546  -0.305705  -0.263744  0.038453  3.459021  0.025
N  N185  1  0.46818773  0.30414682  0.51538602  1  -1.284816  0.054867  -0.305752  -0.263898  0.038453  3.459066  0.025
N  N186  1  0.28876536  0.33596077  0.80414743  1  -1.232422  0.054543  -0.305733  -0.263865  0.038453  3.459032  0.025
N  N187  1  0.03180790  0.54719562  0.83595732  1  -1.232314  0.054517  -0.305695  -0.263817  0.038453  3.459245  0.025
N  N188  1  0.78876482  0.98461458  0.95280586  1  -1.229787  0.0546  -0.305654  -0.26369  0.038453  3.459053  0.025
N  N189  1  0.53181455  0.69585200  0.48461708  1  -1.284878  0.054868  -0.305703  -0.263798  0.038453  3.45912  0.025
N  N190  1  0.71123620  0.66403964  0.19585220  1  -1.232503  0.054554  -0.305756  -0.263878  0.038454  3.459111  0.025
N  N191  1  0.96819003  0.45280672  0.16404299  1  -1.231874  0.05451  -0.305728  -0.263858  0.038452  3.459145  0.025
O  O192  1  0.99539023  0.89512960  0.13736077  1  -1.284504  0.063721  -0.567693  -0.722587  0.045433  2.115404  0.032
O  O193  1  0.25777254  0.39974101  0.39513265  1  -1.277724  0.063569  -0.567812  -0.722695  0.045432  2.115227  0.032
O  O194  1  0.50461117  0.64196757  0.89974060  1  -1.268966  0.06353  -0.567757  -0.722692  0.045434  2.115252  0.032
O  O195  1  0.24222738  0.63736053  0.14196640  1  -1.271443  0.063508  -0.567792  -0.722651  0.045429  2.11524  0.032
O  O196  1  0.00460915  0.10487033  0.86264150  1  -1.284367  0.063711  -0.567707  -0.722608  0.045433  2.115451  0.032
O  O197  1  0.74223047  0.60026112  0.60486895  1  -1.277651  0.063569  -0.567775  -0.722631  0.045434  2.115323  0.032
O  O198  1  0.49538821  0.35803451  0.10025919  1  -1.268871  0.063528  -0.567688  -0.722503  0.04543  2.115289  0.032
O  O199  1  0.75777200  0.36263919  0.85803338  1  -1.271471  0.063515  -0.567803  -0.72269  0.045432  2.115224  0.032
