# generated using pymatgen
data_CdH15C23N2O3
_symmetry_space_group_name_H-M   'P 1'
_cell_length_a   18.83455024
_cell_length_b   18.83443072
_cell_length_c   18.83446094
_cell_angle_alpha   108.40357446
_cell_angle_beta   108.40337232
_cell_angle_gamma   111.62845320
_symmetry_Int_Tables_number   1
_chemical_formula_structural   CdH15C23N2O3
_chemical_formula_sum   'Cd8 H120 C184 N16 O24'
_cell_volume   5137.77810979
_cell_formula_units_Z   8
loop_
 _symmetry_equiv_pos_site_id
 _symmetry_equiv_pos_as_xyz
  1  'x, y, z'
loop_
 _atom_site_type_symbol
 _atom_site_label
 _atom_site_symmetry_multiplicity
 _atom_site_fract_x
 _atom_site_fract_y
 _atom_site_fract_z
 _atom_site_occupancy
 _atom_site_pbe_bader_charge
 _atom_site_pbe_bader_spin_density
 _atom_site_pbe_cm5_charge
 _atom_site_pbe_ddec_charge
 _atom_site_pbe_ddec_spin_density
 _atom_site_pbe_ddec_sum_bond_order
 _atom_site_pbe_magmom
Cd  Cd0  1  0.27219109  0.25753742  0.39364818  1  1.255427  0  0.766562  0.853959  0  2.240102  0
Cd  Cd1  1  0.86388602  0.87854468  0.60635261  1  1.255552  0  0.766611  0.854001  0  2.239956  0
Cd  Cd2  1  0.74245912  0.13611315  0.01465689  1  1.254844  0  0.766575  0.853939  0  2.240077  0
Cd  Cd3  1  0.12145325  0.72780215  0.98534172  1  1.255275  0  0.766571  0.853941  0  2.240093  0
Cd  Cd4  1  0.97780969  0.87145881  0.48534621  1  1.255139  0  0.76657  0.853993  0  2.239932  0
Cd  Cd5  1  0.38611279  0.49246453  0.51465379  1  1.254801  0  0.76659  0.854047  0  2.239893  0
Cd  Cd6  1  0.50753394  0.02218308  0.89364619  1  1.25521  0  0.766501  0.853862  0  2.240031  0
Cd  Cd7  1  0.12853558  0.61388562  0.10635185  1  1.255476  0  0.766583  0.85395  0  2.239989  0
H  H8  1  0.28440443  0.47595831  0.63447651  1  0.126568  0  0.100078  0.126966  0  1.012745  0
H  H9  1  0.16637258  0.43137750  0.67294847  1  0.033782  0  0.101958  0.100906  0  0.988746  0
H  H10  1  0.03987507  0.27825039  0.59086653  1  0.061559  0  0.100319  0.107044  0  1.007367  0
H  H11  1  0.96971559  0.12124479  0.47633142  1  0.081278  0  0.114691  0.118084  0  0.966797  0
H  H12  1  0.97495231  0.01371462  0.36499973  1  0.131574  0  0.105435  0.125667  0  1.032969  0
H  H13  1  0.16382495  0.08937314  0.31369109  1  0.094248  0  0.100107  0.092161  0  1.066904  0
H  H14  1  0.97857100  0.93754112  0.24518725  1  0.1034  0  0.100459  0.10067  0  1.039073  0
H  H15  1  0.92602581  0.81197439  0.11147470  1  0.098845  0  0.100886  0.107511  0  1.054323  0
H  H16  1  0.95593643  0.72561450  0.00748084  1  0.099014  0  0.1116  0.079667  0  1.027747  0
H  H17  1  0.21886204  0.91969675  0.13992722  1  0.059296  0  0.113198  0.082408  0  1.016629  0
H  H18  1  0.20114054  0.01493302  0.24792020  1  0.143624  0  0.10607  0.126983  0  1.034772  0
H  H19  1  0.42473572  0.17093227  0.56903027  1  0.089887  0  0.104647  0.107406  0  1.008773  0
H  H20  1  0.51457103  0.10630223  0.60964713  1  0.074223  0  0.098072  0.097388  0  1.03517  0
H  H21  1  0.48971468  0.01081348  0.35719749  1  0.093278  0  0.096903  0.097132  0  1.040174  0
H  H22  1  0.39803201  0.07362963  0.31726943  1  0.104779  0  0.104314  0.110186  0  0.997544  0
H  H23  1  0.84147987  0.64992519  0.36552046  1  0.092851  0  0.100057  0.12694  0  1.012637  0
H  H24  1  0.75842754  0.49342084  0.32705288  1  0.031838  0  0.101971  0.100924  0  0.988741  0
H  H25  1  0.68738013  0.44900376  0.40913431  1  0.042452  0  0.100328  0.107049  0  1.007307  0
H  H26  1  0.64491302  0.49338588  0.52367204  1  0.061307  0  0.114677  0.118047  0  0.966805  0
H  H27  1  0.64871828  0.60995398  0.63500774  1  0.12232  0  0.105417  0.125633  0  1.032882  0
H  H28  1  0.77568093  0.85013191  0.68630947  1  0.090377  0  0.100108  0.092183  0  1.066972  0
H  H29  1  0.69235174  0.73338193  0.75481119  1  0.104251  0  0.100455  0.100634  0  1.039087  0
H  H30  1  0.70050475  0.81454835  0.88852152  1  0.102857  0  0.100905  0.107467  0  1.054442  0
H  H31  1  0.71814485  0.94845718  0.99252010  1  0.099741  0  0.111636  0.0797  0  1.027775  0
H  H32  1  0.77977499  0.07893372  0.86007178  1  0.087875  0  0.113209  0.082432  0  1.016626  0
H  H33  1  0.76701016  0.95321639  0.75207700  1  0.136678  0  0.106043  0.126959  0  1.034763  0
H  H34  1  0.60190007  0.85570272  0.43096162  1  0.108744  0  0.104622  0.107328  0  1.008738  0
H  H35  1  0.49665932  0.90492608  0.39034519  1  0.061818  0  0.098068  0.097382  0  1.035015  0
H  H36  1  0.65361170  0.13251521  0.64279219  1  0.087576  0  0.096927  0.097147  0  1.04006  0
H  H37  1  0.75635057  0.08075850  0.68272329  1  0.10867  0  0.104314  0.110263  0  0.997533  0
H  H38  1  0.52404482  0.15852497  0.80844687  1  0.084187  0  0.100005  0.126893  0  1.01269  0
H  H39  1  0.56863113  0.24157760  0.73499617  1  0.03109  0  0.101973  0.100974  0  0.988708  0
H  H40  1  0.72176166  0.31262609  0.76162696  1  0.053912  0  0.100319  0.10705  0  1.007283  0
H  H41  1  0.87876035  0.35508594  0.84847076  1  0.095292  0  0.114668  0.118074  0  0.966729  0
H  H42  1  0.98628272  0.35127817  0.96123616  1  0.129402  0  0.105424  0.12563  0  1.032997  0
H  H43  1  0.91062550  0.22431637  0.07445148  1  0.081113  0  0.100104  0.09218  0  1.066849  0
H  H44  1  0.06245687  0.30763646  0.04102320  1  0.0788  0  0.10046  0.100635  0  1.039065  0
H  H45  1  0.18801699  0.29949749  0.11404585  1  0.102856  0  0.100895  0.107518  0  1.054366  0
H  H46  1  0.27437872  0.28186260  0.23031346  1  0.093969  0  0.111648  0.079723  0  1.027714  0
H  H47  1  0.08029814  0.22022079  0.29915856  1  0.097311  0  0.11322  0.082423  0  1.016585  0
H  H48  1  0.98506538  0.23297472  0.18620030  1  0.139773  0  0.10611  0.127027  0  1.034808  0
H  H49  1  0.82906391  0.39809806  0.25380612  1  0.09632  0  0.104634  0.107368  0  1.008802  0
H  H50  1  0.89368693  0.50333391  0.40827039  1  0.072724  0  0.098046  0.097363  0  1.035026  0
H  H51  1  0.98917817  0.34637640  0.47889864  1  0.099659  0  0.096886  0.097137  0  1.040147  0
H  H52  1  0.92636958  0.24363997  0.32440052  1  0.10401  0  0.104272  0.110134  0  0.99759  0
H  H53  1  0.35006768  0.71559129  0.19154975  1  0.085956  0  0.100096  0.126999  0  1.012733  0
H  H54  1  0.50657339  0.83362806  0.26500714  1  0.033522  0  0.101991  0.100952  0  0.988715  0
H  H55  1  0.55099365  0.96012849  0.23837678  1  0.046313  0  0.100334  0.107069  0  1.007299  0
H  H56  1  0.50661707  0.03028373  0.15153107  1  0.088538  0  0.114705  0.118124  0  0.966756  0
H  H57  1  0.39005066  0.02504814  0.03876031  1  0.125151  0  0.105408  0.125652  0  1.032918  0
H  H58  1  0.14986682  0.83617430  0.92554561  1  0.065956  0  0.100117  0.092191  0  1.066869  0
H  H59  1  0.26661989  0.02142940  0.95896821  1  0.075253  0  0.100459  0.100636  0  1.039078  0
H  H60  1  0.18545158  0.07397855  0.88595583  1  0.119597  0  0.100909  0.107588  0  1.054423  0
H  H61  1  0.05154768  0.04406990  0.76968740  1  0.09846  0  0.111592  0.079655  0  1.027707  0
H  H62  1  0.92106626  0.78114286  0.70083811  1  0.105496  0  0.113254  0.082499  0  1.016573  0
H  H63  1  0.04678038  0.79886407  0.81379523  1  0.130827  0  0.106091  0.127038  0  1.034764  0
H  H64  1  0.14428793  0.57525667  0.74619438  1  0.086233  0  0.104639  0.107385  0  1.008753  0
H  H65  1  0.09506663  0.48541521  0.59173199  1  0.054819  0  0.098074  0.097396  0  1.035067  0
H  H66  1  0.86747673  0.51027741  0.52109897  1  0.084636  0  0.096915  0.09712  0  1.040191  0
H  H67  1  0.91923810  0.60196834  0.67559762  1  0.098101  0  0.104288  0.110168  0  0.997584  0
H  H68  1  0.96560701  0.10008312  0.69155301  1  0.08458  0  0.099932  0.126703  0  1.01271  0
H  H69  1  0.08364878  0.25658486  0.76501496  1  0.032912  0  0.102005  0.101039  0  0.988697  0
H  H70  1  0.21014901  0.30100354  0.73838522  1  0.045994  0  0.100267  0.106935  0  1.007268  0
H  H71  1  0.28029987  0.25662087  0.65152742  1  0.088372  0  0.114668  0.118039  0  0.966636  0
H  H72  1  0.27504931  0.14004492  0.53875437  1  0.124986  0  0.105384  0.125568  0  1.032881  0
H  H73  1  0.08616768  0.89986767  0.42553075  1  0.065818  0  0.100163  0.09217  0  1.06694  0
H  H74  1  0.27142094  0.01661812  0.45894958  1  0.074877  0  0.100463  0.100695  0  1.039116  0
H  H75  1  0.32397243  0.93545429  0.38593540  1  0.119796  0  0.100893  0.107441  0  1.054281  0
H  H76  1  0.29405556  0.80153378  0.26967453  1  0.098433  0  0.111635  0.079744  0  1.027753  0
H  H77  1  0.03113364  0.67106285  0.20083753  1  0.105222  0  0.113224  0.08239  0  1.01666  0
H  H78  1  0.04885242  0.79677484  0.31379743  1  0.130634  0  0.106169  0.127156  0  1.034389  0
H  H79  1  0.82526189  0.89429219  0.24619874  1  0.086153  0  0.104632  0.107353  0  1.008828  0
H  H80  1  0.73544471  0.84509248  0.09173531  1  0.057384  0  0.098102  0.097402  0  1.03507  0
H  H81  1  0.76027879  0.61748139  0.02109079  1  0.084818  0  0.096903  0.097133  0  1.040213  0
H  H82  1  0.85197247  0.66924063  0.17558703  1  0.098223  0  0.104233  0.110157  0  0.997524  0
H  H83  1  0.40853118  0.27405242  0.30845198  1  0.084331  0  0.099958  0.126785  0  1.012626  0
H  H84  1  0.49156801  0.31863149  0.23498554  1  0.031223  0  0.101998  0.101011  0  0.988689  0
H  H85  1  0.56261711  0.47176096  0.26161492  1  0.053863  0  0.100276  0.10694  0  1.007304  0
H  H86  1  0.60509191  0.62876988  0.34847092  1  0.095234  0  0.114635  0.118006  0  0.966673  0
H  H87  1  0.60128769  0.73629304  0.46124108  1  0.129318  0  0.105396  0.12556  0  1.032978  0
H  H88  1  0.47434070  0.66063738  0.57446986  1  0.081433  0  0.100178  0.092233  0  1.066894  0
H  H89  1  0.55766574  0.81247064  0.54105006  1  0.083038  0  0.100444  0.100691  0  1.0391  0
H  H90  1  0.54952656  0.93803860  0.61407146  1  0.102475  0  0.100933  0.107498  0  1.054209  0
H  H91  1  0.53186502  0.02438426  0.73033168  1  0.094026  0  0.111644  0.079766  0  1.027752  0
H  H92  1  0.47022395  0.83029304  0.79916558  1  0.093173  0  0.11321  0.082463  0  1.016669  0
H  H93  1  0.48297698  0.73505286  0.68620485  1  0.139439  0  0.106173  0.127168  0  1.034387  0
H  H94  1  0.64809816  0.57906961  0.75380061  1  0.096269  0  0.104631  0.10737  0  1.008746  0
H  H95  1  0.75336005  0.64371721  0.90826706  1  0.072532  0  0.098133  0.097435  0  1.035072  0
H  H96  1  0.59638530  0.73919042  0.97889951  1  0.099849  0  0.096892  0.097141  0  1.040112  0
H  H97  1  0.49365101  0.67638638  0.82440191  1  0.104213  0  0.104233  0.110132  0  0.997555  0
H  H98  1  0.72594706  0.03439506  0.13447534  1  0.126663  0  0.099953  0.126748  0  1.012679  0
H  H99  1  0.68136791  0.91635214  0.17293447  1  0.033514  0  0.101977  0.101004  0  0.988654  0
H  H100  1  0.52824057  0.78985217  0.09085734  1  0.061033  0  0.1003  0.106955  0  1.007303  0
H  H101  1  0.37122820  0.71969835  0.97632314  1  0.081589  0  0.114693  0.118132  0  0.966584  0
H  H102  1  0.26370950  0.72494511  0.86499344  1  0.131506  0  0.105427  0.125604  0  1.032952  0
H  H103  1  0.33936393  0.91382847  0.81370017  1  0.094377  0  0.100196  0.092255  0  1.0669  0
H  H104  1  0.18752884  0.72857751  0.74519934  1  0.102969  0  0.100469  0.100708  0  1.039068  0
H  H105  1  0.06195845  0.67602868  0.61148602  1  0.099167  0  0.100939  0.107511  0  1.054145  0
H  H106  1  0.97561570  0.70594704  0.50748377  1  0.099272  0  0.11163  0.079706  0  1.027828  0
H  H107  1  0.16970618  0.96886874  0.63993387  1  0.05877  0  0.113197  0.082368  0  1.016646  0
H  H108  1  0.26494376  0.95115031  0.74792810  1  0.143709  0  0.106142  0.127165  0  1.034368  0
H  H109  1  0.42094179  0.17474262  0.06903050  1  0.089963  0  0.10464  0.107383  0  1.008798  0
H  H110  1  0.35629799  0.26456170  0.10965185  1  0.074336  0  0.098101  0.09739  0  1.035054  0
H  H111  1  0.26081173  0.23971895  0.85720247  1  0.096689  0  0.096912  0.097122  0  1.040146  0
H  H112  1  0.32361387  0.14802395  0.81726714  1  0.104984  0  0.104269  0.11018  0  0.997543  0
H  H113  1  0.89992306  0.59147234  0.86552393  1  0.0931  0  0.100035  0.126926  0  1.012641  0
H  H114  1  0.74342319  0.50843339  0.82706444  1  0.032193  0  0.102018  0.101034  0  0.988719  0
H  H115  1  0.69900062  0.43738324  0.90914137  1  0.042473  0  0.100313  0.107008  0  1.007287  0
H  H116  1  0.74338241  0.39491022  0.02367442  1  0.061174  0  0.114641  0.118  0  0.966765  0
H  H117  1  0.85995284  0.39871292  0.13500336  1  0.122436  0  0.105394  0.125578  0  1.032984  0
H  H118  1  0.10013149  0.52566977  0.18629728  1  0.090455  0  0.100113  0.092131  0  1.066881  0
H  H119  1  0.98338460  0.44233149  0.25480121  1  0.10467  0  0.10048  0.100707  0  1.03909  0
H  H120  1  0.06454858  0.45048373  0.38851393  1  0.103108  0  0.100921  0.107475  0  1.054293  0
H  H121  1  0.19846365  0.46813866  0.49251912  1  0.099696  0  0.111655  0.079776  0  1.027757  0
H  H122  1  0.32894417  0.52978586  0.36007891  1  0.088355  0  0.113185  0.082423  0  1.016723  0
H  H123  1  0.20323715  0.51703314  0.25208329  1  0.136151  0  0.106059  0.127005  0  1.034589  0
H  H124  1  0.10570304  0.35190050  0.93097243  1  0.108629  0  0.104653  0.107365  0  1.008754  0
H  H125  1  0.15491013  0.24664115  0.89035792  1  0.06204  0  0.098125  0.097414  0  1.035139  0
H  H126  1  0.38252130  0.40361684  0.14279844  1  0.087658  0  0.096898  0.097062  0  1.040216  0
H  H127  1  0.33075488  0.50634879  0.18273099  1  0.108725  0  0.104287  0.110188  0  0.997537  0
C  C128  1  0.22644032  0.34859858  0.52810466  1  0.650716  0  0.083442  0.276828  0  4.136619  0
C  C129  1  0.22862517  0.40867021  0.59709405  1  -0.100817  0  -0.123557  -0.251114  0  4.008362  0
C  C130  1  0.16160989  0.38282371  0.61825063  1  -0.045435  0  -0.09448  -0.059302  0  4.095922  0
C  C131  1  0.09057957  0.29756072  0.57283191  1  -0.02048  0  -0.11582  -0.191126  0  4.060985  0
C  C132  1  0.08651600  0.23368521  0.50490970  1  -0.053438  0  -0.008995  0.052732  0  4.045658  0
C  C133  1  0.15401891  0.25833591  0.48206535  1  0.46246  0  0.096965  0.085198  0  3.966163  0
C  C134  1  0.02079359  0.14323825  0.45908217  1  0.002345  0  -0.06499  -0.069883  0  3.938711  0
C  C135  1  0.02300066  0.08348801  0.39634825  1  -0.04663  0  -0.086532  -0.166562  0  3.924752  0
C  C136  1  0.09150176  0.11345079  0.37637257  1  0.509521  0  0.112913  0.237848  0  4.04591  0
C  C137  1  0.10121391  0.05702491  0.31194703  1  -0.111348  0  -0.080616  -0.141064  0  3.967161  0
C  C138  1  0.04306255  0.97204691  0.25133695  1  -0.009317  0  -0.084437  -0.114133  0  3.933442  0
C  C139  1  0.06041443  0.92180515  0.18977863  1  -0.029056  0  0.009906  0.157657  0  4.003261  0
C  C140  1  0.99198831  0.83884597  0.11989288  1  -0.05124  0  -0.084422  -0.177237  0  3.92355  0
C  C141  1  0.00834285  0.79030527  0.06148103  1  0.455056  0  0.040936  0.096514  0  3.965732  0
C  C142  1  0.15459874  0.89860288  0.13536171  1  0.48832  0  0.038414  0.088906  0  3.978776  0
C  C143  1  0.14389308  0.95152771  0.19613109  1  -0.006951  0  -0.081928  -0.169829  0  3.896593  0
C  C144  1  0.35412118  0.16749089  0.41921220  1  1.542982  0  0.186124  0.548291  0  4.237234  0
C  C145  1  0.40629183  0.12647685  0.44094228  1  -0.012195  0  -0.021332  -0.036695  0  3.986301  0
C  C146  1  0.43930283  0.13527598  0.52326656  1  -0.071052  0  -0.085403  -0.096924  0  4.00231  0
C  C147  1  0.48992476  0.09979603  0.54580119  1  -0.095576  0  -0.094139  -0.137823  0  3.98689  0
C  C148  1  0.50995011  0.05547422  0.48701909  1  -0.039092  0  -0.004108  0.072988  0  3.994169  0
C  C149  1  0.47517697  0.04523136  0.40390676  1  -0.012308  0  -0.09163  -0.133548  0  3.964848  0
C  C150  1  0.42399664  0.08039694  0.38117740  1  -0.055836  0  -0.083606  -0.090269  0  3.982277  0
C  C151  1  0.82048904  0.69833572  0.47188968  1  0.653848  0  0.083389  0.276611  0  4.136718  0
C  C152  1  0.81157107  0.63152812  0.40290194  1  -0.055222  0  -0.12357  -0.251023  0  4.008237  0
C  C153  1  0.76457148  0.54335588  0.38174993  1  -0.048204  0  -0.094487  -0.059375  0  4.095984  0
C  C154  1  0.72472643  0.51774532  0.42716981  1  0.017901  0  -0.11577  -0.190991  0  4.060837  0
C  C155  1  0.72877553  0.58160802  0.49509145  1  -0.021713  0  -0.009009  0.052635  0  4.045797  0
C  C156  1  0.77626644  0.67195273  0.51792882  1  0.427612  0  0.096913  0.08529  0  3.966181  0
C  C157  1  0.68415791  0.56171480  0.54092108  1  -0.002413  0  -0.064967  -0.069848  0  3.938724  0
C  C158  1  0.68714251  0.62665406  0.60365950  1  -0.046805  0  -0.086573  -0.166521  0  3.924685  0
C  C159  1  0.73708316  0.71512726  0.62362935  1  0.503492  0  0.112978  0.237871  0  4.045851  0
C  C160  1  0.74507897  0.78926522  0.68805311  1  -0.102093  0  -0.080629  -0.141159  0  3.967096  0
C  C161  1  0.72070712  0.79172225  0.74866228  1  -0.018323  0  -0.084461  -0.114077  0  3.933338  0
C  C162  1  0.73202314  0.87062981  0.81021519  1  -0.025071  0  0.009894  0.157638  0  4.003091  0
C  C163  1  0.71895484  0.87209441  0.88010616  1  -0.034517  0  -0.084419  -0.177138  0  3.923609  0
C  C164  1  0.72882872  0.94686190  0.93851618  1  0.443642  0  0.040838  0.096358  0  3.966058  0
C  C165  1  0.76324399  0.01923466  0.86463497  1  0.44698  0  0.038443  0.088845  0  3.979146  0
C  C166  1  0.75539979  0.94776019  0.80386771  1  0.002263  0  -0.081941  -0.169839  0  3.89667  0
C  C167  1  0.74827440  0.93490515  0.58078361  1  1.552573  0  0.186244  0.548444  0  4.237126  0
C  C168  1  0.68553075  0.96534534  0.55905353  1  -0.051659  0  -0.021319  -0.036723  0  3.986466  0
C  C169  1  0.61200358  0.91603251  0.47672759  1  -0.058647  0  -0.085446  -0.096904  0  4.002357  0
C  C170  1  0.55399377  0.94412163  0.45419349  1  -0.060354  0  -0.09412  -0.137784  0  3.986671  0
C  C171  1  0.56845172  0.02292758  0.51297652  1  -0.044665  0  -0.0042  0.072829  0  3.994427  0
C  C172  1  0.64131841  0.07126449  0.59608699  1  -0.067688  0  -0.09155  -0.133415  0  3.964846  0
C  C173  1  0.69921329  0.04281439  0.61881468  1  -0.046958  0  -0.08362  -0.090351  0  3.982378  0
C  C174  1  0.65140379  0.17951326  0.87784883  1  0.654297  0  0.083376  0.276591  0  4.136654  0
C  C175  1  0.59133457  0.18843333  0.81995961  1  -0.055985  0  -0.123482  -0.250932  0  4.008259  0
C  C176  1  0.61718369  0.23543230  0.77878912  1  -0.023602  0  -0.094499  -0.059414  0  4.096061  0
C  C177  1  0.70244710  0.27527955  0.79302322  1  -0.05507  0  -0.115857  -0.191146  0  4.060692  0
C  C178  1  0.76631959  0.27123103  0.85283660  1  -0.060061  0  -0.008975  0.052769  0  4.045631  0
C  C179  1  0.74166602  0.22373574  0.89568687  1  0.466906  0  0.096899  0.085187  0  3.966393  0
C  C180  1  0.85676507  0.31584394  0.87755700  1  -0.010802  0  -0.064937  -0.06986  0  3.938756  0
C  C181  1  0.91651248  0.31285455  0.93950672  1  -0.06205  0  -0.086583  -0.166518  0  3.924786  0
C  C182  1  0.88654665  0.26291551  0.97804493  1  0.517104  0  0.112955  0.237839  0  4.045786  0
C  C183  1  0.94297077  0.25491462  0.04418150  1  -0.085086  0  -0.080661  -0.141142  0  3.967147  0
C  C184  1  0.02794710  0.27927935  0.07100695  1  -0.004179  0  -0.084434  -0.114086  0  3.933363  0
C  C185  1  0.07819080  0.26797026  0.13860484  1  -0.014661  0  0.00994  0.157738  0  4.003097  0
C  C186  1  0.16115184  0.28104398  0.15314023  1  -0.010912  0  -0.084464  -0.177327  0  3.923603  0
C  C187  1  0.20969085  0.27117398  0.21803582  1  0.436381  0  0.040901  0.0965  0  3.965894  0
C  C188  1  0.10139728  0.23675726  0.25599522  1  0.458241  0  0.038371  0.088839  0  3.978886  0
C  C189  1  0.04847205  0.24459662  0.19236203  1  -0.041491  0  -0.08191  -0.169804  0  3.896687  0
C  C190  1  0.83250260  0.25171986  0.18662783  1  1.539033  0  0.18618  0.548332  0  4.237361  0
C  C191  1  0.87352299  0.31446470  0.27981341  1  -0.044398  0  -0.02133  -0.036701  0  3.986426  0
C  C192  1  0.86472453  0.38799239  0.30402887  1  -0.035605  0  -0.085361  -0.096828  0  4.00243  0
C  C193  1  0.90019863  0.44599831  0.39012859  1  -0.1021  0  -0.09414  -0.137824  0  3.986872  0
C  C194  1  0.94451977  0.43153822  0.45447735  1  -0.088374  0  -0.004132  0.072919  0  3.9943  0
C  C195  1  0.95476348  0.35867129  0.42994603  1  -0.024003  0  -0.091586  -0.133497  0  3.964625  0
C  C196  1  0.91959545  0.30077588  0.34359647  1  -0.04764  0  -0.083611  -0.09026  0  3.982193  0
C  C197  1  0.30166468  0.77355491  0.12215273  1  0.65906  0  0.083357  0.276663  0  4.13671  0
C  C198  1  0.36846804  0.77137244  0.18004261  1  -0.072831  0  -0.123563  -0.251045  0  4.008342  0
C  C199  1  0.45663902  0.83839067  0.22121442  1  -0.010111  0  -0.094535  -0.059409  0  4.096026  0
C  C200  1  0.48225157  0.90942001  0.20697971  1  -0.030228  0  -0.115832  -0.191121  0  4.060825  0
C  C201  1  0.41839166  0.91348354  0.14716762  1  -0.047312  0  -0.008981  0.052758  0  4.045578  0
C  C202  1  0.32804657  0.84597721  0.10431367  1  0.46928  0  0.096884  0.085165  0  3.966206  0
C  C203  1  0.43828750  0.97920556  0.12244385  1  -0.023264  0  -0.064973  -0.069899  0  3.93874  0
C  C204  1  0.37334939  0.97700280  0.06048868  1  -0.063579  0  -0.086525  -0.16655  0  3.924558  0
C  C205  1  0.28487142  0.90850099  0.02195168  1  0.517006  0  0.112898  0.237825  0  4.045621  0
C  C206  1  0.21073387  0.89878832  0.95581012  1  -0.079448  0  -0.08059  -0.141077  0  3.96709  0
C  C207  1  0.20827681  0.95694043  0.92898511  1  0.018858  0  -0.084424  -0.114081  0  3.933462  0
C  C208  1  0.12936987  0.93958966  0.86139264  1  0.013883  0  0.009934  0.157832  0  4.002979  0
C  C209  1  0.12790796  0.00801638  0.84686046  1  -0.066018  0  -0.084442  -0.177339  0  3.923703  0
C  C210  1  0.05314045  0.99165960  0.78196480  1  0.459551  0  0.040876  0.096441  0  3.965775  0
C  C211  1  0.98076519  0.84540747  0.74401005  1  0.442886  0  0.038382  0.088842  0  3.97902  0
C  C212  1  0.05223947  0.85611293  0.80763986  1  -0.04789  0  -0.082005  -0.170071  0  3.896672  0
C  C213  1  0.06508969  0.64587524  0.81336962  1  1.538809  0  0.186187  0.548425  0  4.237043  0
C  C214  1  0.03464620  0.59370374  0.72018469  1  -0.047908  0  -0.021342  -0.036747  0  3.986327  0
C  C215  1  0.08395941  0.56069216  0.69597009  1  -0.097297  0  -0.085372  -0.096828  0  4.002263  0
C  C216  1  0.05587084  0.51006754  0.60987088  1  -0.0011  0  -0.094117  -0.137817  0  3.986882  0
C  C217  1  0.97706423  0.49004248  0.54552412  1  -0.017424  0  -0.004209  0.072844  0  3.994509  0
C  C218  1  0.92872553  0.52481566  0.57005324  1  -0.089327  0  -0.091612  -0.133479  0  3.964735  0
C  C219  1  0.95717939  0.57599934  0.65640415  1  0.01038  0  -0.083647  -0.090321  0  3.982194  0
C  C220  1  0.02356041  0.05167009  0.62215655  1  0.657574  0  0.083397  0.276611  0  4.136996  0
C  C221  1  0.02138534  0.11848018  0.68004396  1  -0.06936  0  -0.12347  -0.250802  0  4.008239  0
C  C222  1  0.08840605  0.20664964  0.72121785  1  -0.008841  0  -0.094495  -0.059512  0  4.095617  0
C  C223  1  0.15943827  0.23225982  0.70698461  1  -0.03041  0  -0.115706  -0.190809  0  4.06036  0
C  C224  1  0.16349142  0.16839786  0.64716655  1  -0.047694  0  -0.009123  0.052501  0  4.045846  0
C  C225  1  0.09598147  0.07805193  0.60431073  1  0.469282  0  0.09696  0.085322  0  3.966379  0
C  C226  1  0.22921511  0.18829062  0.62244373  1  -0.022886  0  -0.064896  -0.069761  0  3.938703  0
C  C227  1  0.22700316  0.12334752  0.56048455  1  -0.061144  0  -0.086554  -0.166557  0  3.924716  0
C  C228  1  0.15849927  0.03487377  0.52194747  1  0.515695  0  0.112885  0.23796  0  4.045755  0
C  C229  1  0.14878365  0.96073725  0.45579728  1  -0.080779  0  -0.08048  -0.140951  0  3.967188  0
C  C230  1  0.20692508  0.95827344  0.42896576  1  0.01953  0  -0.084566  -0.114288  0  3.933774  0
C  C231  1  0.18957782  0.87936046  0.36137837  1  0.014008  0  0.009905  0.157642  0  4.00307  0
C  C232  1  0.25800496  0.87790017  0.34684901  1  -0.065553  0  -0.084448  -0.177081  0  3.923454  0
C  C233  1  0.24165314  0.80313727  0.28196032  1  0.459657  0  0.04088  0.096316  0  3.965743  0
C  C234  1  0.09539539  0.73076093  0.24400919  1  0.4429  0  0.038415  0.088955  0  3.978917  0
C  C235  1  0.10610192  0.80224037  0.30763019  1  -0.0476  0  -0.082076  -0.17005  0  3.896458  0
C  C236  1  0.89586617  0.81509009  0.31336401  1  1.538412  0  0.186122  0.54824  0  4.237187  0
C  C237  1  0.84370158  0.78464535  0.22017763  1  -0.047822  0  -0.021261  -0.03655  0  3.98627  0
C  C238  1  0.81069371  0.83396465  0.19596936  1  -0.094974  0  -0.085416  -0.096888  0  4.002301  0
C  C239  1  0.76008132  0.80588643  0.10987094  1  -0.006079  0  -0.094205  -0.137904  0  3.986937  0
C  C240  1  0.74005098  0.72707705  0.04552407  1  -0.017376  0  -0.00413  0.073056  0  3.994121  0
C  C241  1  0.77482074  0.67873055  0.07004533  1  -0.08903  0  -0.091564  -0.133485  0  3.964802  0
C  C242  1  0.82600308  0.70718467  0.15639325  1  0.009874  0  -0.083596  -0.090366  0  3.982383  0
C  C243  1  0.42951586  0.40140266  0.37784634  1  0.654392  0  0.083445  0.276662  0  4.136919  0
C  C244  1  0.43843840  0.34134008  0.31995904  1  -0.056556  0  -0.123503  -0.250884  0  4.0083  0
C  C245  1  0.48543242  0.36718810  0.27878504  1  -0.023459  0  -0.094489  -0.059478  0  4.095919  0
C  C246  1  0.52527592  0.45245201  0.29301680  1  -0.054372  0  -0.115757  -0.19083  0  4.060583  0
C  C247  1  0.52123385  0.51632501  0.35283534  1  -0.060293  0  -0.009091  0.052467  0  4.045887  0
C  C248  1  0.47374268  0.49167005  0.39569090  1  0.466997  0  0.096927  0.085274  0  3.966292  0
C  C249  1  0.56584648  0.60677064  0.37755630  1  -0.011053  0  -0.064854  -0.069715  0  3.938849  0
C  C250  1  0.56286490  0.66652018  0.43951376  1  -0.05861  0  -0.086528  -0.166462  0  3.924767  0
C  C251  1  0.51292755  0.63655090  0.47805071  1  0.514778  0  0.112899  0.237996  0  4.045577  0
C  C252  1  0.50494011  0.69298553  0.54420153  1  -0.086031  0  -0.080537  -0.141168  0  3.967103  0
C  C253  1  0.52930663  0.77796009  0.57103318  1  -0.008433  0  -0.084549  -0.114198  0  3.933646  0
C  C254  1  0.51798535  0.82819890  0.63862543  1  -0.011307  0  0.00998  0.15773  0  4.00311  0
C  C255  1  0.53105258  0.91115533  0.65315389  1  -0.010114  0  -0.084505  -0.177193  0  3.923433  0
C  C256  1  0.52117874  0.95969372  0.71804407  1  0.436376  0  0.040846  0.096244  0  3.965702  0
C  C257  1  0.48675346  0.85138562  0.75599583  1  0.462383  0  0.038387  0.088744  0  3.979088  0
C  C258  1  0.49460990  0.79847033  0.69237252  1  -0.045196  0  -0.082094  -0.170045  0  3.896573  0
C  C259  1  0.50172690  0.58250797  0.68663275  1  1.538901  0  0.186168  0.548425  0  4.237025  0
C  C260  1  0.56447202  0.62353033  0.77981748  1  -0.044312  0  -0.021318  -0.036794  0  3.986526  0
C  C261  1  0.63799825  0.61473031  0.80403083  1  -0.035912  0  -0.085346  -0.096764  0  4.002278  0
C  C262  1  0.69601658  0.65021485  0.89013026  1  -0.101319  0  -0.094291  -0.137976  0  3.986843  0
C  C263  1  0.68155255  0.69453670  0.95447566  1  -0.089033  0  -0.004107  0.072902  0  3.994047  0
C  C264  1  0.60868194  0.70477481  0.92994783  1  -0.023818  0  -0.09162  -0.133509  0  3.964618  0
C  C265  1  0.55079021  0.66961613  0.84360008  1  -0.047851  0  -0.083482  -0.090159  0  3.982157  0
C  C266  1  0.59859495  0.97643962  0.02811057  1  0.649051  0  0.083385  0.276627  0  4.137036  0
C  C267  1  0.65865864  0.97861726  0.09709679  1  -0.099036  0  -0.123516  -0.250891  0  4.008249  0
C  C268  1  0.63281248  0.91159505  0.11824417  1  -0.05127  0  -0.094463  -0.059434  0  4.09577  0
C  C269  1  0.54754836  0.84056389  0.07282645  1  -0.01415  0  -0.11575  -0.190935  0  4.060742  0
C  C270  1  0.48367573  0.83651097  0.00491263  1  -0.05275  0  -0.009024  0.052724  0  4.045837  0
C  C271  1  0.50832804  0.90401687  0.98207086  1  0.461732  0  0.096912  0.085241  0  3.966415  0
C  C272  1  0.39322966  0.77078285  0.95907738  1  0.002713  0  -0.064952  -0.069942  0  3.938776  0
C  C273  1  0.33348326  0.77299087  0.89634361  1  -0.045744  0  -0.086548  -0.166537  0  3.924916  0
C  C274  1  0.36344792  0.84149678  0.87637554  1  0.508412  0  0.112947  0.238101  0  4.045452  0
C  C275  1  0.30701342  0.85121362  0.81195624  1  -0.111559  0  -0.080545  -0.141129  0  3.967227  0
C  C276  1  0.22204089  0.79307452  0.75135054  1  -0.009089  0  -0.084588  -0.114284  0  3.934002  0
C  C277  1  0.17179966  0.81042294  0.68978851  1  -0.029042  0  0.009993  0.157734  0  4.002923  0
C  C278  1  0.08884078  0.74199762  0.61990092  1  -0.051518  0  -0.0845  -0.177182  0  3.923308  0
C  C279  1  0.04030289  0.75834654  0.56148816  1  0.454964  0  0.040847  0.096308  0  3.965818  0
C  C280  1  0.14860982  0.90460659  0.63537181  1  0.488663  0  0.038499  0.088962  0  3.978951  0
C  C281  1  0.20152565  0.89390009  0.69614324  1  -0.007436  0  -0.082121  -0.170103  0  3.896368  0
C  C282  1  0.41749876  0.10413394  0.91921874  1  1.542963  0  0.186131  0.548315  0  4.236948  0
C  C283  1  0.37648045  0.15630079  0.94094495  1  -0.011566  0  -0.02133  -0.036688  0  3.986153  0
C  C284  1  0.38527657  0.18930917  0.02326984  1  -0.071836  0  -0.085373  -0.096873  0  4.002415  0
C  C285  1  0.34979185  0.23992100  0.04580484  1  -0.095598  0  -0.094214  -0.137868  0  3.986913  0
C  C286  1  0.30547199  0.25994830  0.98702440  1  -0.040807  0  -0.00418  0.072892  0  3.994363  0
C  C287  1  0.29522942  0.22518192  0.90391241  1  -0.013988  0  -0.091518  -0.133394  0  3.964866  0
C  C288  1  0.33039250  0.17399854  0.88117867  1  -0.056228  0  -0.083603  -0.090321  0  3.982256  0
C  C289  1  0.94833115  0.57048902  0.97189223  1  0.653442  0  0.083374  0.276646  0  4.137025  0
C  C290  1  0.88152429  0.56156817  0.90290623  1  -0.055413  0  -0.123548  -0.251082  0  4.008341  0
C  C291  1  0.79335506  0.51457394  0.88175960  1  -0.050529  0  -0.094512  -0.059482  0  4.095867  0
C  C292  1  0.76774458  0.47473069  0.92717991  1  0.020369  0  -0.115784  -0.190906  0  4.060524  0
C  C293  1  0.83160433  0.47877336  0.99509603  1  -0.023515  0  -0.009104  0.052493  0  4.045734  0
C  C294  1  0.92195033  0.52626433  0.01793201  1  0.428215  0  0.096927  0.085321  0  3.966215  0
C  C295  1  0.81171416  0.43415745  0.04092542  1  -0.001063  0  -0.064864  -0.069707  0  3.938924  0
C  C296  1  0.87665103  0.43713809  0.10365398  1  -0.04763  0  -0.08653  -0.166484  0  3.924852  0
C  C297  1  0.96512684  0.48707708  0.12362728  1  0.504133  0  0.112927  0.237901  0  4.045682  0
C  C298  1  0.03926479  0.49506447  0.18804580  1  -0.103215  0  -0.080416  -0.140796  0  3.967101  0
C  C299  1  0.04172962  0.47069584  0.24865225  1  -0.016522  0  -0.084658  -0.114433  0  3.933847  0
C  C300  1  0.12064566  0.48202434  0.31021762  1  -0.026005  0  0.009945  0.157641  0  4.003316  0
C  C301  1  0.12210549  0.46895437  0.38010403  1  -0.03477  0  -0.084415  -0.176997  0  3.923575  0
C  C302  1  0.19686403  0.47882348  0.43851561  1  0.443886  0  0.040785  0.096179  0  3.96574  0
C  C303  1  0.26924626  0.51325932  0.36464191  1  0.446335  0  0.038404  0.088804  0  3.979173  0
C  C304  1  0.19776941  0.50540428  0.30386882  1  0.002427  0  -0.081911  -0.169806  0  3.8966  0
C  C305  1  0.18490961  0.49827313  0.08078135  1  1.552709  0  0.186163  0.548472  0  4.236875  0
C  C306  1  0.21535053  0.43552900  0.05905601  1  -0.051274  0  -0.021303  -0.036634  0  3.986297  0
C  C307  1  0.16603404  0.36200226  0.97673120  1  -0.059074  0  -0.085369  -0.09687  0  4.002374  0
C  C308  1  0.19411616  0.30398534  0.95419855  1  -0.060134  0  -0.094216  -0.137858  0  3.986806  0
C  C309  1  0.27292686  0.31844981  0.01298276  1  -0.044762  0  -0.004211  0.072845  0  3.994007  0
C  C310  1  0.32127027  0.39132092  0.09609153  1  -0.068178  0  -0.091562  -0.133342  0  3.964753  0
C  C311  1  0.29281436  0.44921000  0.11882288  1  -0.046853  0  -0.083543  -0.090315  0  3.982318  0
N  N312  1  0.15381920  0.19870857  0.41883882  1  -1.257248  0  -0.325801  -0.319862  0  3.510306  0
N  N313  1  0.08857929  0.81895223  0.06865563  1  -1.229711  0  -0.333971  -0.258828  0  3.51308  0
N  N314  1  0.77986719  0.73498076  0.58115917  1  -1.246952  0  -0.325789  -0.319845  0  3.510194  0
N  N315  1  0.75030132  0.01992559  0.93134183  1  -1.225178  0  -0.333937  -0.258693  0  3.513217  0
N  N316  1  0.80128991  0.22013216  0.95510988  1  -1.232856  0  -0.325819  -0.319884  0  3.510406  0
N  N317  1  0.18104430  0.24969753  0.26962477  1  -1.222689  0  -0.334025  -0.258852  0  3.513212  0
N  N318  1  0.26501950  0.84617874  0.04488668  1  -1.231723  0  -0.325799  -0.319874  0  3.510115  0
N  N319  1  0.98007623  0.91142406  0.73037701  1  -1.233647  0  -0.333944  -0.258753  0  3.513246  0
N  N320  1  0.09617906  0.01502431  0.54488201  1  -1.232169  0  -0.325827  -0.320019  0  3.510449  0
N  N321  1  0.16141194  0.73006983  0.23037510  1  -1.233771  0  -0.333908  -0.258708  0  3.512936  0
N  N322  1  0.47014482  0.55129770  0.45512049  1  -1.233464  0  -0.325843  -0.319989  0  3.510405  0
N  N323  1  0.49969500  0.93103571  0.76962644  1  -1.222562  0  -0.333867  -0.258532  0  3.512952  0
N  N324  1  0.44870044  0.90381613  0.91884535  1  -1.257237  0  -0.325866  -0.320074  0  3.510544  0
N  N325  1  0.06895997  0.83858979  0.56866313  1  -1.229439  0  -0.333918  -0.258663  0  3.512889  0
N  N326  1  0.98497683  0.52986337  0.08115792  1  -1.24703  0  -0.325805  -0.319958  0  3.510301  0
N  N327  1  0.26993498  0.50031221  0.43134717  1  -1.225214  0  -0.333877  -0.258673  0  3.512992  0
O  O328  1  0.28615683  0.36964154  0.50457221  1  -1.15944  0  -0.35414  -0.522331  0  2.428808  0
O  O329  1  0.32002276  0.15610687  0.34300080  1  -1.177052  0  -0.341222  -0.574899  0  2.14778  0
O  O330  1  0.34582734  0.21336188  0.47886769  1  -1.157292  0  -0.332824  -0.539641  0  2.17508  0
O  O331  1  0.86506457  0.78158712  0.49542267  1  -1.161719  0  -0.354093  -0.522255  0  2.428856  0
O  O332  1  0.81309529  0.97701260  0.65699320  1  -1.180953  0  -0.341236  -0.574944  0  2.1478  0
O  O333  1  0.73448243  0.86695285  0.52112332  1  -1.16362  0  -0.332908  -0.539736  0  2.1749  0
O  O334  1  0.63036109  0.13493845  0.91652442  1  -1.162815  0  -0.35398  -0.522126  0  2.428806  0
O  O335  1  0.84388936  0.18689554  0.16391083  1  -1.170467  0  -0.341263  -0.574914  0  2.147836  0
O  O336  1  0.78663075  0.26550671  0.13246812  1  -1.156565  0  -0.332818  -0.539636  0  2.175179  0
O  O337  1  0.21841333  0.71383526  0.08347525  1  -1.169112  0  -0.353995  -0.522207  0  2.428749  0
O  O338  1  0.02298194  0.67997747  0.83608596  1  -1.170782  0  -0.341229  -0.57493  0  2.147786  0
O  O339  1  0.13304287  0.65416772  0.86752967  1  -1.161624  0  -0.33286  -0.539699  0  2.174956  0
O  O340  1  0.96383713  0.96842162  0.58347811  1  -1.169774  0  -0.354004  -0.522131  0  2.428879  0
O  O341  1  0.92996884  0.77298345  0.33608751  1  -1.171069  0  -0.34118  -0.574885  0  2.147658  0
O  O342  1  0.90415075  0.88303957  0.36751954  1  -1.161108  0  -0.332913  -0.539728  0  2.175066  0
O  O343  1  0.38495038  0.38035811  0.41652661  1  -1.162493  0  -0.354032  -0.522201  0  2.428932  0
O  O344  1  0.43688835  0.59387276  0.66390835  1  -1.170477  0  -0.341203  -0.574953  0  2.147748  0
O  O345  1  0.51552449  0.53664232  0.63247574  1  -1.156435  0  -0.332947  -0.539805  0  2.174865  0
O  O346  1  0.61963959  0.03616252  0.00458702  1  -1.159201  0  -0.353996  -0.522148  0  2.429045  0
O  O347  1  0.40611767  0.07003590  0.84301070  1  -1.176836  0  -0.341203  -0.574912  0  2.147717  0
O  O348  1  0.46336719  0.09584044  0.97887877  1  -1.157356  0  -0.332872  -0.539722  0  2.174923  0
O  O349  1  0.03157826  0.61505766  0.99541761  1  -1.161548  0  -0.35407  -0.522172  0  2.428968  0
O  O350  1  0.22702034  0.56310455  0.15698743  1  -1.181201  0  -0.341224  -0.574988  0  2.147697  0
O  O351  1  0.11695993  0.48448375  0.02111979  1  -1.163419  0  -0.332937  -0.539832  0  2.174786  0
