# generated using pymatgen
data_CuH15C18(NO2)2
_symmetry_space_group_name_H-M   'P 1'
_cell_length_a   12.30224550
_cell_length_b   18.04250254
_cell_length_c   18.17412492
_cell_angle_alpha   99.42150086
_cell_angle_beta   90.00018990
_cell_angle_gamma   89.99969653
_symmetry_Int_Tables_number   1
_chemical_formula_structural   CuH15C18(NO2)2
_chemical_formula_sum   'Cu8 H120 C144 N16 O32'
_cell_volume   3979.57339214
_cell_formula_units_Z   8
loop_
 _symmetry_equiv_pos_site_id
 _symmetry_equiv_pos_as_xyz
  1  'x, y, z'
loop_
 _atom_site_type_symbol
 _atom_site_label
 _atom_site_symmetry_multiplicity
 _atom_site_fract_x
 _atom_site_fract_y
 _atom_site_fract_z
 _atom_site_occupancy
 _atom_site_pbe_bader_charge
 _atom_site_pbe_bader_spin_density
 _atom_site_pbe_cm5_charge
 _atom_site_pbe_ddec_charge
 _atom_site_pbe_ddec_spin_density
 _atom_site_pbe_ddec_sum_bond_order
 _atom_site_pbe_magmom
Cu  Cu0  1  0.74263392  0.74723457  0.01112501  1  1.029187  0.538579  0.733614  0.732818  0.707052  2.202441  0.54
Cu  Cu1  1  0.25282171  0.75316281  0.01765317  1  1.029964  0.531733  0.736145  0.730948  0.697081  2.202653  0.533
Cu  Cu2  1  0.24261903  0.75276798  0.48887765  1  1.029428  0.53857  0.733639  0.732959  0.707032  2.202248  0.54
Cu  Cu3  1  0.75281451  0.74683975  0.48234841  1  1.030195  0.531704  0.736057  0.730833  0.697043  2.202531  0.533
Cu  Cu4  1  0.25738045  0.25276392  0.98887302  1  1.02941  0.538569  0.733612  0.732918  0.707032  2.202375  0.54
Cu  Cu5  1  0.74717966  0.24683171  0.98234517  1  1.030345  0.531705  0.736053  0.730663  0.697029  2.202519  0.533
Cu  Cu6  1  0.75736283  0.24724230  0.51112272  1  1.02914  0.538565  0.733577  0.732757  0.707042  2.202502  0.54
Cu  Cu7  1  0.24716816  0.25317035  0.51764146  1  1.030104  0.531732  0.736088  0.73079  0.697071  2.202544  0.533
H  H8  1  0.03807249  0.21979115  0.58716892  1  0.113613  0.001794  0.122318  0.093799  0.000758  0.983857  0.001
H  H9  1  0.88481981  0.12802701  0.55534658  1  0.161  0.000628  0.105341  0.125186  7.5e-05  1.069181  0.001
H  H10  1  0.06750630  0.03335657  0.35888327  1  0.093049  0.000953  0.112705  0.124481  0.000509  0.992686  0.0
H  H11  1  0.21492142  0.12452432  0.40225685  1  0.138027  0.001846  0.127305  0.1074  0.0008  0.980063  0.002
H  H12  1  0.79371448  0.05384892  0.43488898  1  0.058208  -0.000232  0.098913  0.10597  -0.000228  0.995632  0.0
H  H13  1  0.85967537  0.98572908  0.47625685  1  0.058453  -0.000207  0.097064  0.102575  -0.000166  1.016029  0.0
H  H14  1  0.95132194  0.93637076  0.35277371  1  0.021777  0.000113  0.088224  0.077812  0.000104  1.007486  0.0
H  H15  1  0.88182674  0.00542694  0.31237836  1  -0.008865  2.1e-05  0.08528  0.073361  1e-06  1.029785  0.0
H  H16  1  0.70224541  0.95151215  0.35501451  1  0.061607  2.7e-05  0.096806  0.099903  2.6e-05  0.983783  0.0
H  H17  1  0.77809288  0.87861907  0.38254645  1  0.029226  -0.000423  0.097735  0.102227  -0.000499  1.005164  0.0
H  H18  1  0.59927797  0.90036385  0.25079788  1  0.104551  0.001126  0.11589  0.128017  0.000607  0.977301  0.001
H  H19  1  0.59272220  0.83350529  0.11914813  1  0.143575  0.00177  0.12042  0.101238  0.000854  1.016806  0.002
H  H20  1  0.93583306  0.83307835  0.25681429  1  0.079239  0.001339  0.112529  0.123816  0.000706  0.983635  0.001
H  H21  1  0.91356554  0.76418762  0.12826163  1  0.173091  0.001766  0.120537  0.106326  0.000835  1.018476  0.001
H  H22  1  0.69427879  0.01814097  0.97309252  1  0.085322  0.000174  0.100986  0.101999  -2e-06  1.04182  0.0
H  H23  1  0.46556304  0.27160429  0.46077308  1  0.140092  0.001458  0.120074  0.096466  0.000583  1.001675  0.001
H  H24  1  0.61562476  0.36682071  0.48176992  1  0.171101  0.000559  0.104104  0.123844  4e-05  1.078555  0.001
H  H25  1  0.40964437  0.49786752  0.64697692  1  0.100685  0.000971  0.112376  0.124216  0.000529  0.988437  0.0
H  H26  1  0.26794941  0.39969566  0.61610637  1  0.140384  0.001679  0.125515  0.105956  0.000708  0.988903  0.002
H  H27  1  0.69374200  0.47035716  0.56134459  1  0.043014  -5.3e-05  0.098549  0.108029  -3.8e-05  0.992556  0.0
H  H28  1  0.60148211  0.54037301  0.54628624  1  0.058915  -0.000289  0.094968  0.097916  -0.000245  1.02434  0.0
H  H29  1  0.64952674  0.49379139  0.69733058  1  0.034442  -4e-06  0.085185  0.075898  -3.5e-05  1.028926  0.0
H  H30  1  0.55095744  0.56109925  0.68324378  1  0.008339  0.000149  0.088473  0.073319  0.000108  1.008958  0.0
H  H31  1  0.79533547  0.57437855  0.65155396  1  0.032099  4.6e-05  0.098213  0.106623  3.4e-05  0.978367  0.0
H  H32  1  0.69568833  0.63965384  0.63553225  1  0.061045  -0.000226  0.100401  0.110015  -0.000248  0.973105  0.0
H  H33  1  0.56086836  0.68215124  0.75776191  1  0.088193  0.001293  0.113772  0.123236  0.000685  0.978685  0.001
H  H34  1  0.57650626  0.73768088  0.89136305  1  0.150719  0.001591  0.121446  0.107198  0.000716  1.01202  0.001
H  H35  1  0.89063125  0.60202142  0.76786938  1  0.088118  0.001095  0.115261  0.125691  0.000585  0.977236  0.001
H  H36  1  0.89211645  0.65994074  0.90281386  1  0.14176  0.001609  0.120376  0.100587  0.000734  1.015399  0.002
H  H37  1  0.80895137  0.47329459  0.02846555  1  0.107058  0.00017  0.100039  0.10137  2.2e-05  1.042202  0.0
H  H38  1  0.53808664  0.28021467  0.91282622  1  0.113731  0.001794  0.122361  0.093856  0.000758  0.983744  0.001
H  H39  1  0.38483466  0.37198211  0.94465114  1  0.161134  0.000628  0.105356  0.125172  7.5e-05  1.069118  0.001
H  H40  1  0.56751689  0.46663323  0.14112779  1  0.093581  0.000953  0.112774  0.124462  0.000509  0.99253  0.0
H  H41  1  0.71493656  0.37546993  0.09774334  1  0.137946  0.001847  0.127304  0.10733  0.000801  0.979991  0.002
H  H42  1  0.29373424  0.44614952  0.06511333  1  0.057923  -0.000233  0.098953  0.105943  -0.000228  0.99557  0.0
H  H43  1  0.35968769  0.51427170  0.02375235  1  0.058487  -0.000207  0.097127  0.102704  -0.000166  1.015957  0.0
H  H44  1  0.45133530  0.56362471  0.14723355  1  0.021712  0.000113  0.088287  0.077879  0.000104  1.007676  0.0
H  H45  1  0.38184835  0.49456101  0.18762428  1  -0.008615  2.1e-05  0.085256  0.073354  1e-06  1.029737  0.0
H  H46  1  0.20225806  0.54847334  0.14499403  1  0.062462  2.7e-05  0.096726  0.099957  2.6e-05  0.983667  0.0
H  H47  1  0.27809996  0.62136903  0.11746114  1  0.029365  -0.000423  0.097748  0.102212  -0.000499  1.00518  0.0
H  H48  1  0.09928423  0.59963017  0.24920329  1  0.104545  0.001126  0.115885  0.128059  0.000607  0.977276  0.001
H  H49  1  0.09272207  0.66649337  0.38085065  1  0.143533  0.001769  0.120412  0.101197  0.000854  1.016828  0.002
H  H50  1  0.43583796  0.66691594  0.24319545  1  0.079384  0.001339  0.112582  0.123924  0.000706  0.983686  0.001
H  H51  1  0.41355915  0.73581375  0.37174230  1  0.173155  0.001766  0.120572  0.106337  0.000835  1.018489  0.001
H  H52  1  0.19427289  0.48185429  0.52689924  1  0.085166  0.000174  0.100984  0.102015  -2e-06  1.041905  0.0
H  H53  1  0.96556684  0.22839825  0.03922550  1  0.14008  0.001459  0.120098  0.096485  0.000584  1.001584  0.001
H  H54  1  0.11562720  0.13317816  0.01823645  1  0.171427  0.000559  0.104119  0.123842  4.1e-05  1.078586  0.001
H  H55  1  0.90965794  0.00213305  0.85302027  1  0.075905  0.000987  0.112379  0.12427  0.000529  0.988352  0.0
H  H56  1  0.76796237  0.10030682  0.88388259  1  0.140776  0.00168  0.125505  0.105994  0.000709  0.988713  0.002
H  H57  1  0.19375378  0.02964638  0.93865267  1  0.042951  -5.3e-05  0.098618  0.108182  -3.8e-05  0.992546  0.0
H  H58  1  0.10149878  0.95962933  0.95372067  1  0.058908  -0.000289  0.094984  0.097995  -0.000245  1.024322  0.0
H  H59  1  0.14953316  0.00620030  0.80266973  1  0.034142  -4e-06  0.085188  0.075907  -3.5e-05  1.029  0.0
H  H60  1  0.05096385  0.93889653  0.81676172  1  0.008054  0.000149  0.088465  0.073279  0.000108  1.008999  0.0
H  H61  1  0.29534050  0.92561705  0.84844988  1  0.03196  4.6e-05  0.098217  0.106614  3.4e-05  0.978291  0.0
H  H62  1  0.19569882  0.86034414  0.86447733  1  0.060983  -0.000226  0.10036  0.11001  -0.000248  0.972911  0.0
H  H63  1  0.06087127  0.81784328  0.74224611  1  0.088572  0.001292  0.113832  0.123343  0.000685  0.978819  0.001
H  H64  1  0.07650164  0.76231413  0.60864566  1  0.150876  0.001591  0.121485  0.107277  0.000716  1.011967  0.001
H  H65  1  0.39063838  0.89796301  0.73213742  1  0.087763  0.001096  0.115207  0.125614  0.000585  0.977265  0.001
H  H66  1  0.39211443  0.84005177  0.59718849  1  0.141458  0.00161  0.120384  0.100549  0.000734  1.015333  0.002
H  H67  1  0.30891782  0.02670975  0.47151374  1  0.106441  0.000171  0.100048  0.101331  2.2e-05  1.042241  0.0
H  H68  1  0.96191425  0.78021191  0.41282781  1  0.11367  0.001793  0.122314  0.093788  0.000757  0.983906  0.001
H  H69  1  0.11517262  0.87197495  0.44464939  1  0.161002  0.000628  0.105356  0.125153  7.5e-05  1.069158  0.001
H  H70  1  0.93249913  0.96663292  0.64112839  1  0.093253  0.000953  0.112793  0.124531  0.000509  0.992532  0.0
H  H71  1  0.78507345  0.87547572  0.59774479  1  0.137857  0.001846  0.12733  0.107375  0.0008  0.980022  0.002
H  H72  1  0.20628201  0.94614558  0.56510991  1  0.058106  -0.000233  0.098915  0.105895  -0.000228  0.995647  0.0
H  H73  1  0.14032031  0.01426677  0.52375112  1  0.058348  -0.000207  0.097104  0.102656  -0.000166  1.016023  0.0
H  H74  1  0.04868105  0.06362060  0.64723336  1  0.022025  0.000113  0.088244  0.07773  0.000104  1.007572  0.0
H  H75  1  0.11817463  0.99455782  0.68762356  1  -0.008903  2.1e-05  0.085257  0.073336  1e-06  1.029728  0.0
H  H76  1  0.29775921  0.04847029  0.64498915  1  0.062177  2.7e-05  0.096709  0.099882  2.6e-05  0.983759  0.0
H  H77  1  0.22191255  0.12136623  0.61745612  1  0.029751  -0.000423  0.097747  0.10227  -0.000498  1.005107  0.0
H  H78  1  0.40072746  0.09963052  0.74920429  1  0.104063  0.001126  0.115866  0.127895  0.000607  0.977409  0.001
H  H79  1  0.40728405  0.16649263  0.88084979  1  0.143411  0.001771  0.120392  0.101162  0.000855  1.016917  0.002
H  H80  1  0.06417887  0.16691389  0.74318415  1  0.0794  0.001338  0.112563  0.123908  0.000706  0.983675  0.001
H  H81  1  0.08644477  0.23580928  0.87173333  1  0.173325  0.001766  0.120465  0.106228  0.000835  1.018438  0.001
H  H82  1  0.30571689  0.98185412  0.02692080  1  0.08516  0.000174  0.101011  0.102081  -2e-06  1.041759  0.0
H  H83  1  0.53441313  0.72840430  0.53921209  1  0.140237  0.001458  0.120101  0.096369  0.000583  1.001761  0.001
H  H84  1  0.38436360  0.63317973  0.51822134  1  0.171332  0.000559  0.104043  0.123732  4.1e-05  1.078629  0.001
H  H85  1  0.59035537  0.50214042  0.35301032  1  0.10061  0.000971  0.112373  0.124185  0.000529  0.988391  0.0
H  H86  1  0.73204139  0.60032002  0.38388571  1  0.140243  0.001681  0.125499  0.106007  0.000708  0.988843  0.002
H  H87  1  0.30625774  0.52964087  0.43865060  1  0.04275  -5.3e-05  0.09854  0.108089  -3.8e-05  0.992633  0.0
H  H88  1  0.39852332  0.45962739  0.45370611  1  0.059076  -0.000289  0.09494  0.097947  -0.000245  1.024351  0.0
H  H89  1  0.35046407  0.50620614  0.30266285  1  0.033996  -4e-06  0.085232  0.075957  -3.5e-05  1.029018  0.0
H  H90  1  0.44903498  0.43890115  0.31674857  1  0.00853  0.000149  0.088539  0.073462  0.000108  1.00895  0.0
H  H91  1  0.20466265  0.42562001  0.34844188  1  0.031989  4.6e-05  0.098177  0.106601  3.4e-05  0.978355  0.0
H  H92  1  0.30430735  0.36034748  0.36446579  1  0.061121  -0.000226  0.100421  0.110018  -0.000248  0.973111  0.0
H  H93  1  0.43912570  0.31784378  0.24223818  1  0.088208  0.001293  0.113794  0.123303  0.000685  0.978617  0.001
H  H94  1  0.42349999  0.26231476  0.10863552  1  0.150826  0.001592  0.121434  0.107163  0.000716  1.012  0.001
H  H95  1  0.10936118  0.39796308  0.23212477  1  0.088193  0.001095  0.115227  0.125668  0.000585  0.977362  0.001
H  H96  1  0.10788654  0.34005398  0.09717901  1  0.14119  0.00161  0.120351  0.100539  0.000735  1.015491  0.002
H  H97  1  0.19108495  0.52670265  0.97150526  1  0.10642  0.000171  0.100035  0.101455  2.2e-05  1.042091  0.0
H  H98  1  0.46192530  0.71978766  0.08717478  1  0.113637  0.001794  0.122363  0.093822  0.000758  0.983859  0.001
H  H99  1  0.61518052  0.62802133  0.05535062  1  0.160963  0.000628  0.105338  0.125095  7.5e-05  1.069171  0.001
H  H100  1  0.43249586  0.53336499  0.85887734  1  0.093085  0.000953  0.112724  0.124496  0.000509  0.992504  0.0
H  H101  1  0.28507700  0.62452838  0.90225961  1  0.137979  0.001846  0.127302  0.107434  0.0008  0.980056  0.002
H  H102  1  0.70628257  0.55385119  0.93488569  1  0.058131  -0.000233  0.098899  0.105922  -0.000228  0.995629  0.0
H  H103  1  0.64032912  0.48573159  0.97625324  1  0.058676  -0.000207  0.097048  0.102566  -0.000166  1.016001  0.0
H  H104  1  0.54867827  0.43637524  0.85277083  1  0.021905  0.000113  0.088235  0.077836  0.000104  1.007565  0.0
H  H105  1  0.61817334  0.50543226  0.81237711  1  -0.008677  2.1e-05  0.08525  0.07332  1e-06  1.029686  0.0
H  H106  1  0.79775469  0.45151567  0.85501533  1  0.062008  2.7e-05  0.096791  0.099944  2.6e-05  0.983798  0.0
H  H107  1  0.72190466  0.37862180  0.88254473  1  0.029371  -0.000423  0.097704  0.102211  -0.000499  1.005182  0.0
H  H108  1  0.90072446  0.40036187  0.75080061  1  0.104256  0.001126  0.115873  0.127994  0.000607  0.977296  0.001
H  H109  1  0.90727848  0.33350786  0.61914958  1  0.143555  0.001771  0.120424  0.101234  0.000855  1.016803  0.002
H  H110  1  0.56416829  0.33308382  0.75681384  1  0.079282  0.001339  0.11255  0.12387  0.000706  0.983653  0.001
H  H111  1  0.58643491  0.26419474  0.62826046  1  0.172845  0.001766  0.120542  0.106404  0.000835  1.018307  0.001
H  H112  1  0.80570246  0.51815958  0.47309579  1  0.085401  0.000174  0.100929  0.102016  -2e-06  1.041852  0.0
H  H113  1  0.03443372  0.77160238  0.96077571  1  0.140089  0.001457  0.120049  0.09639  0.000583  1.001727  0.001
H  H114  1  0.88437498  0.86682289  0.98176869  1  0.171018  0.00056  0.104091  0.123816  4.1e-05  1.078561  0.001
H  H115  1  0.09034993  0.99785879  0.14698911  1  0.075758  0.000987  0.11238  0.124188  0.000529  0.988403  0.0
H  H116  1  0.23204225  0.89968485  0.11611628  1  0.140576  0.001679  0.125498  0.105999  0.000708  0.988889  0.002
H  H117  1  0.80625734  0.97035427  0.06134799  1  0.043003  -5.3e-05  0.098533  0.108069  -3.8e-05  0.992573  0.0
H  H118  1  0.89851478  0.04037139  0.04629321  1  0.059074  -0.000289  0.094927  0.097917  -0.000244  1.024383  0.0
H  H119  1  0.85046252  0.99378384  0.19733372  1  0.034114  -4e-06  0.085193  0.075928  -3.5e-05  1.029051  0.0
H  H120  1  0.94903752  0.06109003  0.18325267  1  0.008573  0.000149  0.088541  0.073483  0.000108  1.008771  0.0
H  H121  1  0.70466087  0.07437354  0.15156255  1  0.056965  4.6e-05  0.098191  0.106567  3.4e-05  0.978299  0.0
H  H122  1  0.80430661  0.13964666  0.13552963  1  0.061206  -0.000226  0.100409  0.110014  -0.000248  0.973016  0.0
H  H123  1  0.93912929  0.18215361  0.25776427  1  0.088185  0.001293  0.113814  0.123292  0.000685  0.978773  0.001
H  H124  1  0.92349892  0.23768397  0.39136275  1  0.150797  0.001591  0.121548  0.107402  0.000715  1.012093  0.001
H  H125  1  0.60936787  0.10203261  0.26787655  1  0.088223  0.001095  0.115239  0.12569  0.000584  0.977296  0.001
H  H126  1  0.60788938  0.15995203  0.40281885  1  0.141145  0.00161  0.120363  0.100561  0.000734  1.015477  0.002
H  H127  1  0.69104616  0.97330989  0.52849343  1  0.106268  0.00017  0.100128  0.101471  2.2e-05  1.042102  0.0
C  C128  1  0.04129065  0.17626414  0.53797527  1  0.393647  -0.000571  0.049705  0.104827  -0.001128  3.943491  0.0
C  C129  1  0.95640259  0.12616865  0.51921325  1  0.015864  0.0048  -0.088326  -0.205857  0.003122  3.933302  0.004
C  C130  1  0.96218044  0.07343096  0.45323459  1  -0.065731  -0.003473  0.016927  0.177408  -0.003877  3.921924  -0.002
C  C131  1  0.05651966  0.07323666  0.41016166  1  0.00317  0.005362  -0.083982  -0.187793  0.003719  3.942833  0.004
C  C132  1  0.13939057  0.12405966  0.43339248  1  0.440548  -0.00103  0.050684  0.097702  -0.001544  3.944736  -0.001
C  C133  1  0.86898054  0.02040957  0.43209003  1  -0.014784  9e-05  -0.159432  -0.20332  -1e-05  3.933287  0.0
C  C134  1  0.87643955  0.97020166  0.35626148  1  0.010324  -4e-06  -0.166991  -0.144967  -2e-05  3.969156  0.0
C  C135  1  0.77713265  0.91851328  0.34269274  1  -0.005066  0.00011  -0.157713  -0.200495  -4.8e-05  3.929117  0.0
C  C136  1  0.76927390  0.87464390  0.26520846  1  -0.000195  -0.003815  0.019928  0.179307  -0.004307  3.93231  -0.003
C  C137  1  0.67164367  0.87221755  0.22524682  1  0.010562  0.006099  -0.079281  -0.174299  0.004211  3.927826  0.005
C  C138  1  0.66633892  0.83393165  0.15257607  1  0.414561  -0.000438  0.043818  0.091862  -0.000974  3.936283  0.0
C  C139  1  0.85734732  0.83468712  0.22927232  1  -0.038986  0.005576  -0.081931  -0.181533  0.00384  3.91854  0.004
C  C140  1  0.84641352  0.79630095  0.15684651  1  0.432835  -0.000667  0.049294  0.103145  -0.001105  3.920356  0.0
C  C141  1  0.65035423  0.87472675  0.96852764  1  1.574351  -0.000539  0.19907  0.55938  -0.000781  4.222799  -0.003
C  C142  1  0.56923143  0.93769222  0.98160683  1  -0.083197  0.011867  -0.013912  -0.045389  0.008249  3.952782  0.009
C  C143  1  0.60837340  0.01090587  0.98471712  1  0.013231  0.003612  -0.085554  -0.130011  0.002379  3.96025  0.002
C  C144  1  0.45889311  0.92648013  0.99649889  1  -0.016997  0.012528  -0.008268  -0.019736  0.008927  3.929124  0.009
C  C145  1  0.40497233  0.85051587  0.98601262  1  1.598558  -0.00059  0.194072  0.573698  -0.000995  4.231968  -0.003
C  C146  1  0.45699377  0.32329353  0.50070739  1  0.402112  -0.00099  0.045608  0.098606  -0.001492  3.947869  -0.001
C  C147  1  0.54020768  0.37561465  0.51389121  1  -0.046137  0.004934  -0.088757  -0.200501  0.003264  3.935312  0.004
C  C148  1  0.52729203  0.44000870  0.56797131  1  -0.004059  -0.003707  0.017993  0.177925  -0.004133  3.91774  -0.002
C  C149  1  0.42747210  0.44859933  0.60554835  1  -0.009902  0.005611  -0.081681  -0.182092  0.003895  3.927646  0.005
C  C150  1  0.34713166  0.39423117  0.58894839  1  0.424232  -0.000747  0.048977  0.095874  -0.001176  3.941345  0.0
C  C151  1  0.61695027  0.49733325  0.58161068  1  -0.008014  0.000139  -0.159322  -0.200959  3.1e-05  3.924446  0.0
C  C152  1  0.62886278  0.53602935  0.66230026  1  -0.009007  -0.000159  -0.163142  -0.135255  -0.000201  3.956445  0.0
C  C153  1  0.71602226  0.59773191  0.67116870  1  -0.01122  0.000148  -0.156489  -0.204453  2.6e-05  3.931492  0.0
C  C154  1  0.72462236  0.63588391  0.75077359  1  -0.023554  -0.003638  0.021614  0.184365  -0.0041  3.930909  -0.002
C  C155  1  0.63661560  0.67553816  0.78720419  1  -0.028882  0.005219  -0.081373  -0.183363  0.003587  3.925777  0.004
C  C156  1  0.64410698  0.70685005  0.86201998  1  0.456607  -0.000661  0.048639  0.101029  -0.001057  3.929852  0.0
C  C157  1  0.81879066  0.63128527  0.79301772  1  -0.035083  0.006027  -0.081043  -0.182408  0.004092  3.932309  0.005
C  C158  1  0.82115695  0.66391768  0.86777992  1  0.459557  -0.000433  0.045027  0.091764  -0.00086  3.944413  0.0
C  C159  1  0.84672365  0.61937168  0.05393982  1  1.587622  2.8e-05  0.20171  0.568247  6.5e-05  4.219  -0.002
C  C160  1  0.92999318  0.55889500  0.03050577  1  -0.039588  0.013294  -0.012251  -0.038499  0.009195  3.938118  0.01
C  C161  1  0.89340499  0.48457715  0.01613947  1  0.026466  0.003639  -0.08594  -0.127816  0.002493  3.959093  0.002
C  C162  1  0.03876960  0.57452046  0.01489717  1  -0.106562  0.013603  -0.011432  -0.031358  0.009548  3.930215  0.01
C  C163  1  0.08912114  0.65105412  0.03726382  1  1.60647  -0.00031  0.195486  0.569433  -0.00048  4.238629  -0.003
C  C164  1  0.54130551  0.32373983  0.96202391  1  0.39375  -0.000574  0.049537  0.104604  -0.00113  3.943392  0.0
C  C165  1  0.45642086  0.37383621  0.98078600  1  0.015456  0.004798  -0.088289  -0.205755  0.003121  3.932947  0.004
C  C166  1  0.46219051  0.42656685  0.04676965  1  -0.065213  -0.003473  0.016975  0.177483  -0.003877  3.92151  -0.002
C  C167  1  0.55652868  0.42675854  0.08984220  1  0.002726  0.005363  -0.083979  -0.187599  0.00372  3.942571  0.004
C  C168  1  0.63940393  0.37593545  0.06660660  1  0.440964  -0.00103  0.050701  0.097602  -0.001544  3.944765  -0.001
C  C169  1  0.36899355  0.47958963  0.06791536  1  -0.0145  9e-05  -0.159615  -0.203553  -1.1e-05  3.933327  0.0
C  C170  1  0.37645641  0.52979011  0.14374541  1  0.009769  -4e-06  -0.166973  -0.145026  -2e-05  3.969409  0.0
C  C171  1  0.27714266  0.58147589  0.15731671  1  -0.005252  0.00011  -0.157698  -0.200496  -4.8e-05  3.928906  0.0
C  C172  1  0.26928152  0.62534701  0.23480076  1  0.000245  -0.003815  0.020008  0.179434  -0.004308  3.931949  -0.003
C  C173  1  0.17164658  0.62777496  0.27475808  1  0.010203  0.006096  -0.079371  -0.174526  0.00421  3.927934  0.005
C  C174  1  0.16633864  0.66606610  0.34742546  1  0.41374  -0.000435  0.04386  0.092036  -0.000974  3.936306  0.0
C  C175  1  0.35735399  0.66530634  0.27073652  1  -0.03868  0.005576  -0.082134  -0.181944  0.00384  3.91872  0.004
C  C176  1  0.34641292  0.70369724  0.34315773  1  0.432755  -0.000665  0.04943  0.103481  -0.001104  3.92047  0.0
C  C177  1  0.15035110  0.62526948  0.53147212  1  1.573845  -0.000537  0.199091  0.559567  -0.000783  4.222618  -0.003
C  C178  1  0.06922060  0.56230913  0.51839926  1  -0.082625  0.011868  -0.013903  -0.045343  0.008252  3.952555  0.009
C  C179  1  0.10836413  0.48909554  0.51528391  1  0.013601  0.003611  -0.085533  -0.130155  0.002379  3.960394  0.002
C  C180  1  0.95888005  0.57352645  0.50351468  1  -0.017477  0.012536  -0.008341  -0.019909  0.008932  3.929166  0.009
C  C181  1  0.90496117  0.64949565  0.51400951  1  1.59952  -0.000589  0.194385  0.574277  -0.000995  4.231542  -0.003
C  C182  1  0.95699858  0.17670459  0.99929052  1  0.401811  -0.000988  0.045576  0.098608  -0.001491  3.947862  -0.001
C  C183  1  0.04021327  0.12438521  0.98611211  1  -0.04621  0.004935  -0.08878  -0.200542  0.003265  3.935383  0.004
C  C184  1  0.02729705  0.05999072  0.93202969  1  -0.003548  -0.003707  0.017921  0.177893  -0.004133  3.91773  -0.002
C  C185  1  0.92747818  0.05140057  0.89444985  1  0.014773  0.005596  -0.081687  -0.182183  0.003895  3.927572  0.005
C  C186  1  0.84714552  0.10577478  0.91104641  1  0.423963  -0.000749  0.049067  0.095973  -0.001178  3.941353  0.0
C  C187  1  0.11696054  0.00266811  0.91839092  1  -0.008436  0.000139  -0.159371  -0.201224  3.1e-05  3.924521  0.0
C  C188  1  0.12887072  0.96396290  0.83770197  1  -0.008073  -0.000159  -0.163035  -0.135118  -0.000201  3.956582  0.0
C  C189  1  0.21602738  0.90226268  0.82883861  1  -0.011284  0.000148  -0.156471  -0.204421  2.6e-05  3.931276  0.0
C  C190  1  0.22462414  0.86410718  0.74923579  1  -0.0231  -0.003638  0.021568  0.184246  -0.004101  3.930881  -0.002
C  C191  1  0.13661507  0.82445554  0.71280385  1  -0.029572  0.005219  -0.081426  -0.183443  0.003587  3.926103  0.004
C  C192  1  0.14409982  0.79314414  0.63798928  1  0.457227  -0.00066  0.048467  0.100813  -0.001056  3.929878  0.0
C  C193  1  0.31878976  0.86870224  0.70698843  1  -0.035157  0.006027  -0.080969  -0.182292  0.004092  3.932148  0.005
C  C194  1  0.32115187  0.83607278  0.63222297  1  0.459215  -0.000433  0.04503  0.091813  -0.000861  3.94416  0.0
C  C195  1  0.34669049  0.88063475  0.44604073  1  1.587889  2.9e-05  0.202033  0.568482  6.5e-05  4.218644  -0.002
C  C196  1  0.42996860  0.94110829  0.46947601  1  -0.039995  0.013296  -0.01222  -0.038575  0.009198  3.938037  0.01
C  C197  1  0.39337483  0.01542867  0.48383811  1  0.026787  0.003642  -0.086192  -0.1281  0.002496  3.959173  0.002
C  C198  1  0.53875047  0.92548671  0.48509050  1  -0.107769  0.013608  -0.011328  -0.03123  0.009551  3.930232  0.01
C  C199  1  0.58909274  0.84895497  0.46272876  1  1.606637  -0.000309  0.195619  0.56971  -0.00048  4.238556  -0.003
C  C200  1  0.95869853  0.82373950  0.46202103  1  0.393642  -0.000573  0.049538  0.104656  -0.001129  3.943371  0.0
C  C201  1  0.04359065  0.87383198  0.48078796  1  0.01548  0.004799  -0.088282  -0.205767  0.003121  3.933089  0.004
C  C202  1  0.03782093  0.92656900  0.54676924  1  -0.065252  -0.003472  0.016965  0.177537  -0.003876  3.921901  -0.002
C  C203  1  0.94348333  0.92675817  0.58984336  1  0.003048  0.005363  -0.084043  -0.187874  0.00372  3.94262  0.004
C  C204  1  0.86060267  0.87593985  0.56660851  1  0.4408  -0.001029  0.050584  0.097621  -0.001544  3.944578  -0.001
C  C205  1  0.13101758  0.97958365  0.56791246  1  -0.014789  9e-05  -0.159471  -0.203321  -1.1e-05  3.933368  0.0
C  C206  1  0.12355938  0.02978361  0.64374218  1  0.010062  -4e-06  -0.166924  -0.144815  -2e-05  3.969008  0.0
C  C207  1  0.22287197  0.08147197  0.65731148  1  -0.00565  0.00011  -0.157656  -0.20044  -4.8e-05  3.928895  0.0
C  C208  1  0.23073641  0.12534482  0.73479368  1  -0.001001  -0.003815  0.019912  0.179108  -0.004308  3.932425  -0.003
C  C209  1  0.32837315  0.12777285  0.77475566  1  0.011925  0.006096  -0.079406  -0.174258  0.004211  3.92807  0.005
C  C210  1  0.33366814  0.16606455  0.84742261  1  0.4148  -0.00044  0.043925  0.092028  -0.000973  3.936533  0.0
C  C211  1  0.14265649  0.16530505  0.77072831  1  -0.032346  0.005559  -0.081906  -0.181594  0.00384  3.918527  0.004
C  C212  1  0.15360005  0.20369296  0.84315281  1  0.426572  -0.000649  0.049415  0.103415  -0.001105  3.920367  0.0
C  C213  1  0.34964470  0.12526559  0.03148348  1  1.574327  -0.00054  0.199086  0.559539  -0.000783  4.222714  -0.003
C  C214  1  0.43077238  0.06230282  0.01840758  1  -0.082404  0.011867  -0.013899  -0.045245  0.00825  3.952697  0.009
C  C215  1  0.39162391  0.98909078  0.01529981  1  0.013311  0.003611  -0.085603  -0.13023  0.002379  3.960078  0.002
C  C216  1  0.54110663  0.07351489  0.00351607  1  -0.016975  0.012526  -0.008369  -0.019989  0.008927  3.929506  0.009
C  C217  1  0.59502416  0.14947770  0.01401087  1  1.598742  -0.000588  0.194341  0.574266  -0.000994  4.231739  -0.003
C  C218  1  0.54299297  0.67671493  0.49928105  1  0.401668  -0.000989  0.045603  0.098984  -0.001492  3.947477  -0.001
C  C219  1  0.45978150  0.62439149  0.48609897  1  -0.0461  0.004934  -0.088763  -0.200564  0.003265  3.935171  0.004
C  C220  1  0.47270365  0.55999796  0.43202008  1  -0.004113  -0.003707  0.01802  0.177796  -0.004133  3.917518  -0.002
C  C221  1  0.57252358  0.55140907  0.39444174  1  -0.009172  0.00561  -0.081593  -0.181835  0.003895  3.927116  0.005
C  C222  1  0.65285427  0.60578517  0.41104107  1  0.423652  -0.000751  0.048962  0.095831  -0.001177  3.94129  0.0
C  C223  1  0.38304703  0.50266771  0.41838179  1  -0.008017  0.000139  -0.159355  -0.201125  3.1e-05  3.924515  0.0
C  C224  1  0.37113127  0.46396884  0.33769055  1  -0.008769  -0.000159  -0.163163  -0.135437  -0.000201  3.956629  0.0
C  C225  1  0.28397342  0.40226659  0.32882878  1  -0.011293  0.000148  -0.156491  -0.204327  2.5e-05  3.931571  0.0
C  C226  1  0.27536356  0.36411222  0.24922672  1  -0.023899  -0.003638  0.021666  0.184316  -0.004101  3.930897  -0.002
C  C227  1  0.36337927  0.32446132  0.21279734  1  -0.028305  0.00522  -0.081422  -0.183511  0.003588  3.925774  0.004
C  C228  1  0.35589602  0.29314775  0.13798122  1  0.456865  -0.000661  0.048641  0.101159  -0.001057  3.929555  0.0
C  C229  1  0.18120014  0.36870608  0.20697449  1  -0.035443  0.006027  -0.081123  -0.182417  0.004092  3.932186  0.005
C  C230  1  0.17884523  0.33607538  0.13221208  1  0.459355  -0.000433  0.04506  0.091855  -0.000861  3.944617  0.0
C  C231  1  0.15331918  0.38062045  0.94603162  1  1.587249  2.6e-05  0.201745  0.568108  6.3e-05  4.218411  -0.002
C  C232  1  0.07003258  0.44109510  0.96945976  1  -0.040255  0.013297  -0.012217  -0.038262  0.009199  3.938  0.01
C  C233  1  0.10662483  0.51541633  0.98382618  1  0.026255  0.003642  -0.086103  -0.128237  0.002495  3.959074  0.002
C  C234  1  0.96125128  0.42547356  0.98506914  1  -0.10814  0.013609  -0.011219  -0.0315  0.009551  3.93076  0.01
C  C235  1  0.91091355  0.34893945  0.96271451  1  1.606279  -0.00031  0.195517  0.56965  -0.000479  4.238664  -0.003
C  C236  1  0.45870805  0.67626070  0.03798002  1  0.394042  -0.000572  0.049689  0.104933  -0.001128  3.943182  0.0
C  C237  1  0.54359433  0.62616450  0.01921302  1  0.015632  0.0048  -0.088327  -0.205795  0.003122  3.933197  0.004
C  C238  1  0.53781980  0.57343085  0.95323428  1  -0.065675  -0.003473  0.016935  0.177431  -0.003877  3.922066  -0.002
C  C239  1  0.44348326  0.57324142  0.91016163  1  0.00321  0.005362  -0.083964  -0.187732  0.003719  3.942702  0.004
C  C240  1  0.36060882  0.62406236  0.93339460  1  0.440617  -0.001031  0.050693  0.097633  -0.001545  3.944788  -0.001
C  C241  1  0.63102001  0.52041096  0.93208694  1  -0.015028  9e-05  -0.159362  -0.203173  -1e-05  3.933224  0.0
C  C242  1  0.62355878  0.47020644  0.85625884  1  0.010075  -4e-06  -0.166992  -0.145071  -2e-05  3.969178  0.0
C  C243  1  0.72286765  0.41851600  0.84269102  1  -0.005538  0.00011  -0.157615  -0.200449  -4.8e-05  3.929143  0.0
C  C244  1  0.73073042  0.37464718  0.76520633  1  -0.000198  -0.003814  0.019841  0.179241  -0.004307  3.932441  -0.003
C  C245  1  0.82836210  0.37221987  0.72524693  1  0.011295  0.006098  -0.079308  -0.174309  0.004211  3.927939  0.005
C  C246  1  0.83366273  0.33393499  0.65257859  1  0.414102  -0.000434  0.0438  0.091891  -0.000972  3.936405  0.0
C  C247  1  0.64265389  0.33469342  0.72927278  1  -0.032701  0.005558  -0.081905  -0.181575  0.00384  3.918709  0.004
C  C248  1  0.65358926  0.29630838  0.65684612  1  0.426887  -0.00065  0.049299  0.103116  -0.001106  3.920426  0.0
C  C249  1  0.84962751  0.37474183  0.46851578  1  1.575069  -0.000539  0.198958  0.559192  -0.000783  4.222413  -0.003
C  C250  1  0.93075314  0.43770327  0.48160483  1  -0.082903  0.011869  -0.013934  -0.045352  0.00825  3.952652  0.009
C  C251  1  0.89161123  0.51091866  0.48471723  1  0.013322  0.003613  -0.085544  -0.130099  0.00238  3.960331  0.002
C  C252  1  0.04109124  0.42648806  0.49649369  1  -0.016726  0.012523  -0.00828  -0.019639  0.008924  3.928981  0.009
C  C253  1  0.09501337  0.35052659  0.48600369  1  1.598088  -0.00059  0.194272  0.573956  -0.000993  4.232114  -0.003
C  C254  1  0.04300767  0.82328978  0.00071165  1  0.402122  -0.00099  0.045632  0.098678  -0.001493  3.947763  -0.001
C  C255  1  0.95979460  0.87561303  0.01389248  1  -0.045817  0.004933  -0.088805  -0.200484  0.003264  3.935219  0.004
C  C256  1  0.97270839  0.94000633  0.06797632  1  -0.004092  -0.003707  0.018032  0.177788  -0.004133  3.917513  -0.002
C  C257  1  0.07252644  0.94859484  0.10555473  1  0.015123  0.005596  -0.08161  -0.181827  0.003895  3.927258  0.005
C  C258  1  0.15285991  0.89422107  0.08896156  1  0.423812  -0.000749  0.048937  0.095745  -0.001175  3.941319  0.0
C  C259  1  0.88304652  0.99733223  0.08161794  1  -0.008412  0.000139  -0.159339  -0.201054  3.1e-05  3.924433  0.0
C  C260  1  0.87112821  0.03602601  0.16231013  1  -0.008915  -0.000159  -0.163149  -0.135499  -0.000201  3.956502  0.0
C  C261  1  0.78397399  0.09773071  0.17117438  1  -0.03617  0.000148  -0.156427  -0.204206  2.5e-05  3.931312  0.0
C  C262  1  0.77537723  0.13588341  0.25077664  1  -0.023673  -0.003638  0.021591  0.184229  -0.004101  3.930742  -0.002
C  C263  1  0.86338711  0.17554137  0.28720598  1  -0.028247  0.005219  -0.081391  -0.183369  0.003587  3.925818  0.004
C  C264  1  0.85590155  0.20685788  0.36201991  1  0.456523  -0.000659  0.048445  0.100769  -0.001055  3.929907  0.0
C  C265  1  0.68120592  0.13129394  0.29302566  1  -0.035705  0.006026  -0.081095  -0.182406  0.004092  3.932015  0.005
C  C266  1  0.67884543  0.16392866  0.36778666  1  0.459468  -0.000433  0.045061  0.091791  -0.000862  3.944384  0.0
C  C267  1  0.65327349  0.11938995  0.55395204  1  1.587493  2.6e-05  0.201965  0.568531  6.4e-05  4.218526  -0.002
C  C268  1  0.56999863  0.05891294  0.53051882  1  -0.039986  0.013293  -0.012331  -0.038447  0.009195  3.938186  0.01
C  C269  1  0.60659321  0.98459342  0.51616405  1  0.027339  0.003639  -0.086066  -0.128172  0.002493  3.959171  0.002
C  C270  1  0.46122408  0.07453338  0.51490466  1  -0.10783  0.013604  -0.011295  -0.031254  0.009546  3.930445  0.01
C  C271  1  0.41086961  0.15106761  0.53726028  1  1.606809  -0.000313  0.19525  0.569089  -0.000479  4.239223  -0.003
N  N272  1  0.13183418  0.17503324  0.49608709  1  -1.227476  0.084613  -0.355189  -0.234317  0.057612  3.647554  0.074
N  N273  1  0.75266631  0.79699383  0.11839661  1  -1.225664  0.08979  -0.348033  -0.237494  0.060968  3.613313  0.079
N  N274  1  0.73492954  0.70059366  0.90218384  1  -1.223958  0.08611  -0.348969  -0.240343  0.058557  3.616494  0.075
N  N275  1  0.36150882  0.33222472  0.53747047  1  -1.235211  0.08276  -0.354245  -0.240909  0.056228  3.649403  0.072
N  N276  1  0.63185251  0.32496476  0.00391089  1  -1.228698  0.08461  -0.355141  -0.23413  0.057608  3.647484  0.074
N  N277  1  0.25266428  0.70300413  0.38160681  1  -1.225536  0.089791  -0.348095  -0.237703  0.06097  3.613372  0.079
N  N278  1  0.23491889  0.79939815  0.59782076  1  -1.223682  0.086107  -0.348893  -0.240242  0.058555  3.616289  0.075
N  N279  1  0.86152327  0.16777734  0.96252139  1  -1.235337  0.082753  -0.354289  -0.24095  0.056223  3.649575  0.072
N  N280  1  0.86814930  0.82497092  0.50391041  1  -1.227974  0.084613  -0.355022  -0.234128  0.05761  3.647251  0.074
N  N281  1  0.24734482  0.20299956  0.88160151  1  -1.226846  0.089795  -0.348083  -0.237657  0.060966  3.613465  0.079
N  N282  1  0.26507589  0.29940033  0.09781330  1  -1.2234  0.086117  -0.348922  -0.240461  0.058562  3.616761  0.075
N  N283  1  0.63847385  0.66779002  0.46251647  1  -1.234783  0.082755  -0.354278  -0.241132  0.056224  3.649491  0.072
N  N284  1  0.36815943  0.67503182  0.99609282  1  -1.227892  0.084616  -0.355303  -0.234587  0.057614  3.647617  0.074
N  N285  1  0.74733709  0.29700143  0.61839868  1  -1.22575  0.089792  -0.347954  -0.237465  0.06097  3.613452  0.079
N  N286  1  0.76507923  0.20060055  0.40218667  1  -1.22333  0.086111  -0.348881  -0.240275  0.058558  3.616439  0.075
N  N287  1  0.13849192  0.83221996  0.03747805  1  -1.23491  0.082758  -0.354288  -0.240936  0.056226  3.649398  0.072
O  O288  1  0.62337327  0.81606136  0.99793818  1  -1.112631  0.114697  -0.327002  -0.551311  0.074259  2.412445  0.103
O  O289  1  0.73779019  0.88234577  0.93576068  1  -1.177045  0.003965  -0.33035  -0.552726  0.002011  2.139371  0.004
O  O290  1  0.39350205  0.81428642  0.92191128  1  -1.162806  0.004938  -0.331961  -0.559525  0.002553  2.085439  0.005
O  O291  1  0.36434258  0.83194737  0.04663306  1  -1.113934  0.121425  -0.338782  -0.559908  0.078608  2.303797  0.109
O  O292  1  0.86194414  0.67882585  0.02264078  1  -1.11922  0.112715  -0.333193  -0.564928  0.07283  2.421624  0.102
O  O293  1  0.76845596  0.60841052  0.09416638  1  -1.173212  0.005137  -0.332407  -0.545364  0.002866  2.109936  0.005
O  O294  1  0.14554151  0.67339041  0.98413555  1  -1.120918  0.116223  -0.343006  -0.573103  0.075427  2.34603  0.105
O  O295  1  0.08134780  0.68456986  0.10259487  1  -1.16767  0.005669  -0.329083  -0.552449  0.003066  2.096602  0.005
O  O296  1  0.12336792  0.68393438  0.50206197  1  -1.112617  0.114711  -0.327028  -0.551472  0.074269  2.412568  0.103
O  O297  1  0.23779053  0.61764861  0.56423562  1  -1.177092  0.003965  -0.330289  -0.552736  0.002011  2.139272  0.004
O  O298  1  0.89352750  0.68572674  0.57811334  1  -1.163773  0.004939  -0.332122  -0.559863  0.002555  2.085245  0.005
O  O299  1  0.86432609  0.66805855  0.45338983  1  -1.113882  0.121428  -0.33892  -0.560147  0.078612  2.304127  0.109
O  O300  1  0.36190834  0.82119336  0.47735941  1  -1.119961  0.112701  -0.33339  -0.565022  0.072819  2.421492  0.102
O  O301  1  0.26843472  0.89159101  0.40580090  1  -1.172961  0.005136  -0.33256  -0.545535  0.002865  2.109673  0.005
O  O302  1  0.64551761  0.82662658  0.51585400  1  -1.120595  0.116218  -0.343074  -0.573245  0.075426  2.34592  0.105
O  O303  1  0.58130795  0.81543005  0.39740192  1  -1.167841  0.005673  -0.329086  -0.552484  0.003069  2.096675  0.005
O  O304  1  0.37662647  0.18392625  0.00206319  1  -1.112638  0.1147  -0.327013  -0.551449  0.074261  2.412609  0.103
O  O305  1  0.26220549  0.11765115  0.06424915  1  -1.177346  0.003963  -0.330284  -0.552748  0.00201  2.139182  0.004
O  O306  1  0.60646599  0.18571686  0.07810972  1  -1.163523  0.004934  -0.332054  -0.559718  0.002551  2.085205  0.005
O  O307  1  0.63567179  0.16804560  0.95339141  1  -1.113679  0.121456  -0.338888  -0.560154  0.078626  2.304195  0.109
O  O308  1  0.13808893  0.32118180  0.97735411  1  -1.119279  0.112709  -0.333216  -0.56483  0.072826  2.421513  0.102
O  O309  1  0.23158117  0.39158190  0.90579741  1  -1.172777  0.005135  -0.332463  -0.545375  0.002865  2.109541  0.005
O  O310  1  0.85447693  0.32662198  0.01583880  1  -1.120182  0.116209  -0.342974  -0.573052  0.075421  2.345952  0.105
O  O311  1  0.91869666  0.31540991  0.89738953  1  -1.167739  0.005674  -0.329242  -0.552637  0.00307  2.09648  0.005
O  O312  1  0.87661068  0.31607985  0.49793863  1  -1.112664  0.114721  -0.327062  -0.551384  0.074272  2.412519  0.103
O  O313  1  0.76219295  0.38235787  0.43574527  1  -1.177705  0.003962  -0.330138  -0.552513  0.002009  2.138789  0.004
O  O314  1  0.10646980  0.31428913  0.42190355  1  -1.163075  0.004935  -0.331973  -0.559627  0.002551  2.085499  0.005
O  O315  1  0.13564683  0.33195465  0.54662323  1  -1.113736  0.12142  -0.338944  -0.560078  0.078603  2.304005  0.109
O  O316  1  0.63804832  0.17883943  0.52264377  1  -1.118973  0.112707  -0.333268  -0.565041  0.072826  2.421605  0.102
O  O317  1  0.73154227  0.10843180  0.59418213  1  -1.173124  0.005136  -0.33254  -0.545503  0.002866  2.109602  0.005
O  O318  1  0.35445856  0.17339697  0.48412422  1  -1.120645  0.116231  -0.342785  -0.572799  0.075432  2.346128  0.105
O  O319  1  0.41862839  0.18459307  0.60258778  1  -1.167758  0.00567  -0.329096  -0.552409  0.003066  2.096561  0.005
