# generated using pymatgen
data_CuH28C20(N4Cl)2
_symmetry_space_group_name_H-M   'P 1'
_cell_length_a   7.56556028
_cell_length_b   8.82876591
_cell_length_c   17.60470000
_cell_angle_alpha   90.00000000
_cell_angle_beta   90.00000000
_cell_angle_gamma   115.07271157
_symmetry_Int_Tables_number   1
_chemical_formula_structural   CuH28C20(N4Cl)2
_chemical_formula_sum   'Cu2 H56 C40 N16 Cl4'
_cell_volume   1065.09417412
_cell_formula_units_Z   2
loop_
 _symmetry_equiv_pos_site_id
 _symmetry_equiv_pos_as_xyz
  1  'x, y, z'
loop_
 _atom_site_type_symbol
 _atom_site_label
 _atom_site_symmetry_multiplicity
 _atom_site_fract_x
 _atom_site_fract_y
 _atom_site_fract_z
 _atom_site_occupancy
 _atom_site_hle17_ddec_charge
 _atom_site_hle17_ddec_spin_density
 _atom_site_hle17_ddec_sum_bond_order
 _atom_site_hle17_magmom
 _atom_site_hse06_10hf_ddec_charge
 _atom_site_hse06_10hf_ddec_spin_density
 _atom_site_hse06_10hf_ddec_sum_bond_order
 _atom_site_hse06_10hf_magmom
 _atom_site_hse06_ddec_charge
 _atom_site_hse06_ddec_spin_density
 _atom_site_hse06_ddec_sum_bond_order
 _atom_site_hse06_magmom
 _atom_site_pbe_bader_charge
 _atom_site_pbe_bader_spin_density
 _atom_site_pbe_cm5_charge
 _atom_site_pbe_ddec_charge
 _atom_site_pbe_ddec_spin_density
 _atom_site_pbe_ddec_sum_bond_order
 _atom_site_pbe_magmom
Cu  Cu0  1  0.99999993  0.50000139  0.50000057  1  0.78182  0.71155  1.896035  0.542  0.735398  0.78073  2.269023  0.635  0.81145  0.836351  2.218233  0.706  1.031414  0.588779  0.747055  0.688902  0.742068  2.303393  0.588
Cu  Cu1  1  0.00000000  0.00000000  0.99999943  1  0.781831  0.711557  1.896025  0.542  0.735399  0.780714  2.269015  0.635  0.811444  0.836342  2.218198  0.706  1.031476  0.58878  0.74705  0.688923  0.74207  2.303359  0.588
H  H2  1  0.67904065  0.62697783  0.43914352  1  0.098749  0.000122  0.980521  0.001  0.100713  0.000187  1.054451  0.0  0.103042  0.000121  1.051075  0.0  0.185358  0.000686  0.11802  0.098788  0.000248  1.057083  0.001
H  H3  1  0.32096001  0.87302259  0.93914352  1  0.098752  0.000123  0.98048  0.001  0.100717  0.000187  1.054406  0.0  0.103045  0.000121  1.051032  0.0  0.185353  0.000686  0.118025  0.098791  0.000248  1.057038  0.001
H  H4  1  0.32096066  0.37302245  0.56085704  1  0.098754  0.000123  0.980505  0.001  0.100715  0.000187  1.054441  0.0  0.103044  0.000121  1.051064  0.0  0.185348  0.000686  0.118019  0.098791  0.000248  1.057071  0.001
H  H5  1  0.67903804  0.12697644  0.06085648  1  0.098781  0.000123  0.980464  0.001  0.100734  0.000187  1.054403  0.0  0.103062  0.000121  1.051028  0.0  0.185333  0.000686  0.118016  0.098798  0.000248  1.057046  0.001
H  H6  1  0.29193669  0.86820944  0.45617193  1  0.114099  0.000205  0.976095  0.001  0.120173  0.000325  1.040277  0.001  0.122721  0.00022  1.038204  0.001  0.161206  0.001017  0.107245  0.118141  0.000429  1.042101  0.001
H  H7  1  0.70806397  0.63179099  0.95617193  1  0.114118  0.000207  0.976028  0.001  0.120191  0.000325  1.040213  0.001  0.122738  0.000221  1.038145  0.001  0.161224  0.001017  0.10724  0.11816  0.000429  1.042034  0.001
H  H8  1  0.70806515  0.13179460  0.54382807  1  0.114113  0.000205  0.976045  0.001  0.120201  0.000325  1.040213  0.001  0.122745  0.000221  1.038151  0.001  0.161279  0.001017  0.107237  0.118169  0.000429  1.042037  0.001
H  H9  1  0.29193478  0.36820680  0.04382864  1  0.114117  0.000206  0.976031  0.001  0.120204  0.000325  1.040197  0.001  0.122743  0.000221  1.038149  0.001  0.161232  0.001017  0.107235  0.118172  0.000429  1.042021  0.001
H  H10  1  0.15688708  0.09818881  0.40271575  1  0.112624  0.000479  0.985103  0.001  0.118071  0.000359  1.0553  0.001  0.120417  0.000254  1.0542  0.0  0.132608  0.000997  0.115565  0.116187  0.000439  1.05639  0.001
H  H11  1  0.84311356  0.40181133  0.90271689  1  0.11261  0.000478  0.985097  0.001  0.118059  0.000359  1.055285  0.001  0.120402  0.000254  1.054194  0.0  0.132596  0.000997  0.115557  0.116159  0.000439  1.056392  0.001
H  H12  1  0.84311089  0.90181272  0.59728311  1  0.112618  0.000479  0.98506  0.001  0.118065  0.000359  1.055261  0.001  0.120411  0.000254  1.05416  0.0  0.132707  0.000997  0.115562  0.116165  0.000439  1.056369  0.001
H  H13  1  0.15688651  0.59818645  0.09728368  1  0.112594  0.000479  0.985067  0.001  0.118037  0.000359  1.05527  0.001  0.120384  0.000254  1.054165  0.0  0.132641  0.000997  0.115563  0.11613  0.000439  1.056385  0.001
H  H14  1  0.83479498  0.07604256  0.36116208  1  0.075513  0.000209  0.939272  0.0  0.09104  0.000134  1.001081  0.0  0.091284  8e-05  1.00245  0.0  0.068904  0.000397  0.1063  0.090817  0.000186  1.000351  0.0
H  H15  1  0.16520239  0.42395633  0.86116208  1  0.075549  0.000209  0.939277  0.0  0.091044  0.000134  1.00111  0.0  0.091284  8e-05  1.002477  0.0  0.068915  0.000396  0.106304  0.090822  0.000185  1.000378  0.0
H  H16  1  0.16520175  0.92395647  0.63883792  1  0.075526  0.00021  0.939288  0.0  0.09105  0.000134  1.001097  0.0  0.09129  8e-05  1.002464  0.0  0.068925  0.000396  0.106303  0.090827  0.000186  1.000364  0.0
H  H17  1  0.83479760  0.57604395  0.13883792  1  0.075557  0.000209  0.939255  0.0  0.091053  0.000134  1.001089  0.0  0.091295  8e-05  1.002459  0.0  0.068922  0.000396  0.106305  0.090831  0.000185  1.000356  0.0
H  H18  1  0.66547691  0.96924813  0.43385687  1  0.083575  -0.000151  0.943124  0.0  0.094345  -7.4e-05  1.012293  0.0  0.094736  -6e-05  1.012322  0.0  0.108996  -0.000101  0.103691  0.093934  -7.5e-05  1.012458  0.0
H  H19  1  0.33452182  0.53075105  0.93385687  1  0.083584  -0.000151  0.943131  0.0  0.094341  -7.4e-05  1.012293  0.0  0.09473  -6e-05  1.012321  0.0  0.109025  -0.000101  0.103694  0.093929  -7.4e-05  1.01246  0.0
H  H20  1  0.33451991  0.03074840  0.56614256  1  0.083581  -0.000149  0.943129  0.0  0.094354  -7.4e-05  1.012288  0.0  0.094744  -6e-05  1.012314  0.0  0.109014  -0.000102  0.103697  0.093942  -7.5e-05  1.012454  0.0
H  H21  1  0.66548020  0.46924799  0.06614313  1  0.083588  -0.000151  0.943138  0.0  0.094344  -7.4e-05  1.012304  0.0  0.094736  -6e-05  1.012334  0.0  0.109031  -0.000101  0.103698  0.093933  -7.4e-05  1.01247  0.0
H  H22  1  0.49879791  0.72460642  0.35448886  1  0.071469  -8.2e-05  0.946754  0.0  0.087353  -3.1e-05  1.012893  0.0  0.087753  -3.8e-05  1.013894  0.0  0.02654  7e-06  0.090398  0.086869  -2e-05  1.012482  0.0
H  H23  1  0.50120082  0.77539275  0.85448886  1  0.07147  -8.2e-05  0.946748  0.0  0.087358  -3.1e-05  1.012891  0.0  0.087759  -3.8e-05  1.013893  0.0  0.026545  7e-06  0.090405  0.086874  -2e-05  1.012477  0.0
H  H24  1  0.50120279  0.27539261  0.64551001  1  0.0715  -8.2e-05  0.946739  0.0  0.087398  -3.1e-05  1.012864  0.0  0.087799  -3.8e-05  1.013864  0.0  0.026527  7e-06  0.090423  0.086913  -2e-05  1.012455  0.0
H  H25  1  0.49879723  0.22460628  0.14551057  1  0.071505  -8.1e-05  0.946743  0.0  0.087402  -3.1e-05  1.01287  0.0  0.087803  -3.8e-05  1.01387  0.0  0.026527  7e-06  0.090414  0.086917  -2e-05  1.01246  0.0
H  H26  1  0.68347604  0.79922217  0.28441837  1  0.056926  6e-06  0.962231  0.0  0.07667  -0.0  1.025892  0.0  0.076936  3e-06  1.026998  0.0  0.020537  2e-06  0.088681  0.076361  -5e-06  1.025359  0.0
H  H27  1  0.31652462  0.70077825  0.78441893  1  0.056908  6e-06  0.962284  0.0  0.076683  -0.0  1.025905  0.0  0.076949  3e-06  1.027014  0.0  0.02052  2e-06  0.088686  0.076356  -5e-06  1.025393  0.0
H  H28  1  0.31652730  0.20077686  0.71557993  1  0.056895  6e-06  0.962305  0.0  0.076634  -0.0  1.025989  0.0  0.076899  3e-06  1.027097  0.0  0.020492  3e-06  0.088649  0.076321  -5e-06  1.025462  0.0
H  H29  1  0.68347342  0.29922078  0.21558050  1  0.056919  6e-06  0.962268  0.0  0.07667  -0.0  1.025926  0.0  0.076935  3e-06  1.027034  0.0  0.020574  2e-06  0.088674  0.076353  -5e-06  1.025404  0.0
H  H30  1  0.40587831  0.95918790  0.32525405  1  0.075147  4e-06  0.951314  0.0  0.092605  2e-06  1.01458  0.0  0.093042  6e-06  1.015968  0.0  0.058042  0.0  0.092762  0.092117  -0.0  1.013846  0.0
H  H31  1  0.59412103  0.54081252  0.82525405  1  0.075158  4e-06  0.951311  0.0  0.092616  1e-06  1.014574  0.0  0.093052  6e-06  1.015962  0.0  0.058053  0.0  0.092759  0.092128  -0.0  1.013841  0.0
H  H32  1  0.59412106  0.04081113  0.67474595  1  0.075133  3e-06  0.951343  0.0  0.092594  1e-06  1.014607  0.0  0.093028  6e-06  1.015995  0.0  0.058036  0.0  0.092781  0.092105  -0.0  1.013874  0.0
H  H33  1  0.40587764  0.45918776  0.17474595  1  0.075149  3e-06  0.951309  0.0  0.092604  2e-06  1.014571  0.0  0.09304  6e-06  1.015958  0.0  0.058041  0.0  0.092756  0.092115  -0.0  1.013837  0.0
H  H34  1  0.59137555  0.03575913  0.25551074  1  0.065644  4e-06  0.94252  0.0  0.084439  4e-06  1.003746  0.0  0.084874  5e-06  1.004701  0.0  0.036865  4e-06  0.089417  0.083915  2e-06  1.003596  0.0
H  H35  1  0.40862376  0.46424101  0.75551074  1  0.065652  4e-06  0.942513  0.0  0.084446  4e-06  1.003734  0.0  0.08488  4e-06  1.00469  0.0  0.036855  4e-06  0.089418  0.083922  2e-06  1.003585  0.0
H  H36  1  0.40862514  0.96423990  0.74448869  1  0.065662  3e-06  0.942492  0.0  0.084457  4e-06  1.003711  0.0  0.08489  5e-06  1.004668  0.0  0.036853  4e-06  0.089435  0.083934  2e-06  1.003561  0.0
H  H37  1  0.59137623  0.53575928  0.24448869  1  0.065661  4e-06  0.942511  0.0  0.084451  4e-06  1.003734  0.0  0.084885  4e-06  1.004689  0.0  0.036861  4e-06  0.089422  0.083927  2e-06  1.003586  0.0
H  H38  1  0.43738778  0.77637063  0.18019904  1  0.080624  -1.6e-05  0.951987  0.0  0.092763  1.2e-05  1.01933  0.0  0.094227  1.3e-05  1.018048  0.0  0.12401  1e-05  0.101414  0.091527  1.3e-05  1.020459  0.0
H  H39  1  0.56261086  0.72363104  0.68019961  1  0.080621  -1.8e-05  0.95198  0.0  0.092776  1.2e-05  1.019297  0.0  0.094238  1.3e-05  1.018014  0.0  0.124007  1e-05  0.101427  0.09154  1.3e-05  1.020427  0.0
H  H40  1  0.56261159  0.22362840  0.81980039  1  0.080626  -1.6e-05  0.952038  0.0  0.09278  1.2e-05  1.019343  0.0  0.094242  1.3e-05  1.018061  0.0  0.124026  1e-05  0.101436  0.091548  1.3e-05  1.020465  0.0
H  H41  1  0.43738905  0.27637174  0.31980096  1  0.080587  -1.8e-05  0.952024  0.0  0.092743  1.2e-05  1.019349  0.0  0.094209  1.3e-05  1.018067  0.0  0.124011  1e-05  0.101411  0.091507  1.3e-05  1.020478  0.0
H  H42  1  0.26495495  0.67885209  0.25388675  1  0.069804  0.000117  0.94617  0.0  0.083148  7.7e-05  1.012621  0.0  0.083448  4.6e-05  1.014011  0.0  0.0759  0.000213  0.103292  0.082683  9.8e-05  1.012249  0.0
H  H43  1  0.73504509  0.82114708  0.75388675  1  0.069813  0.000116  0.946182  0.0  0.083148  7.7e-05  1.012632  0.0  0.083447  4.6e-05  1.01402  0.0  0.075905  0.000213  0.103295  0.082685  9.8e-05  1.012259  0.0
H  H44  1  0.73504636  0.32114819  0.74611325  1  0.069804  0.000116  0.946193  0.0  0.083134  7.6e-05  1.012653  0.0  0.083433  4.6e-05  1.014042  0.0  0.075946  0.000213  0.103303  0.08267  9.8e-05  1.012283  0.0
H  H45  1  0.26495428  0.17885195  0.24611439  1  0.069779  0.000116  0.946165  0.0  0.083123  7.7e-05  1.012626  0.0  0.083426  4.6e-05  1.014017  0.0  0.075906  0.000213  0.103282  0.082659  9.8e-05  1.012254  0.0
H  H46  1  0.01543841  0.82131340  0.28187813  1  0.114517  0.000504  0.985111  0.001  0.120593  0.000429  1.052271  0.001  0.12294  0.000315  1.051976  0.0  0.135874  0.00112  0.118561  0.118741  0.000532  1.052917  0.001
H  H47  1  0.98455767  0.67868577  0.78187927  1  0.114531  0.000504  0.985106  0.001  0.120625  0.000429  1.052241  0.001  0.122969  0.000314  1.051949  0.0  0.135744  0.00112  0.118563  0.118772  0.000532  1.052887  0.001
H  H48  1  0.98456026  0.17868688  0.71812073  1  0.114535  0.000505  0.985087  0.001  0.120624  0.000429  1.05223  0.001  0.122984  0.000314  1.051919  0.0  0.135858  0.00112  0.118566  0.118771  0.000532  1.052876  0.001
H  H49  1  0.01543967  0.32131451  0.21812243  1  0.114494  0.000504  0.985144  0.001  0.120581  0.000429  1.052289  0.001  0.122914  0.000315  1.052009  0.0  0.135872  0.00112  0.118571  0.118728  0.000532  1.052935  0.001
H  H50  1  0.82962408  0.92612608  0.16820338  1  0.108144  8.8e-05  0.966936  0.0  0.114573  0.000271  1.031463  0.001  0.116688  0.000175  1.030254  0.0  0.102988  0.00095  0.111027  0.112893  0.000373  1.032563  0.001
H  H51  1  0.17037402  0.57387184  0.66820451  1  0.108139  8.9e-05  0.966927  0.0  0.114572  0.000271  1.031454  0.001  0.116685  0.000175  1.030246  0.0  0.103004  0.00095  0.11105  0.112892  0.000374  1.032552  0.001
H  H52  1  0.17037661  0.07387295  0.83179492  1  0.108133  8.8e-05  0.966928  0.0  0.114565  0.000271  1.031452  0.001  0.116681  0.000175  1.03024  0.0  0.102972  0.00095  0.111043  0.112885  0.000373  1.032552  0.001
H  H53  1  0.82962667  0.42612719  0.33179662  1  0.108174  8.8e-05  0.966913  0.0  0.114605  0.000271  1.031435  0.001  0.11672  0.000175  1.030225  0.0  0.103001  0.00095  0.11104  0.112925  0.000373  1.032534  0.001
H  H54  1  0.34179757  0.91444021  0.07818310  1  0.101809  3.6e-05  0.98892  0.0  0.103396  9.5e-05  1.064269  0.0  0.106257  4.3e-05  1.060044  0.0  0.197736  0.000443  0.117866  0.101071  9e-05  1.067565  0.0
H  H55  1  0.65820177  0.58556021  0.57818310  1  0.101816  3.7e-05  0.988932  0.001  0.103399  9.4e-05  1.064279  0.0  0.10626  4.3e-05  1.060051  0.0  0.197735  0.000443  0.117864  0.101074  9e-05  1.067576  0.0
H  H56  1  0.65820506  0.08556007  0.92181633  1  0.101848  3.6e-05  0.988938  0.0  0.103423  9.4e-05  1.064289  0.0  0.106285  4.3e-05  1.060058  0.0  0.197771  0.000443  0.117876  0.101096  9e-05  1.067587  0.0
H  H57  1  0.34179883  0.41444132  0.42181747  1  0.101798  3.6e-05  0.988935  0.0  0.103381  9.4e-05  1.064282  0.0  0.106242  4.3e-05  1.060056  0.0  0.197726  0.000443  0.11786  0.101056  9e-05  1.067579  0.0
C  C58  1  0.82737245  0.72269817  0.43485830  1  0.15022  -0.009515  3.635087  -0.005  0.094888  -0.002287  3.902857  0.0  0.109473  -0.003776  3.916796  -0.002  0.942554  -0.001008  0.132742  0.085496  -0.001292  3.893641  0.0
C  C59  1  0.17262821  0.77730225  0.93485830  1  0.150203  -0.009537  3.635012  -0.005  0.094889  -0.002286  3.902793  0.0  0.109474  -0.00378  3.916733  -0.002  0.942834  -0.001008  0.132741  0.085494  -0.001292  3.893578  0.0
C  C60  1  0.17262948  0.27730336  0.56514226  1  0.150197  -0.009535  3.635063  -0.005  0.094878  -0.002287  3.902849  0.0  0.109464  -0.003778  3.916787  -0.002  0.94281  -0.001008  0.132724  0.085483  -0.001292  3.893634  0.0
C  C61  1  0.82737054  0.22269553  0.06514170  1  0.150113  -0.009526  3.635015  -0.005  0.094829  -0.002286  3.902782  0.0  0.109411  -0.00378  3.91672  -0.002  0.942816  -0.001008  0.132727  0.085443  -0.001292  3.893575  0.0
C  C62  1  0.14561953  0.85374372  0.44276074  1  -0.006715  -0.002716  3.729065  -0.001  -0.038462  -0.000411  4.002502  0.0  -0.034559  -0.00149  4.021109  -0.001  0.348614  0.000867  -0.00877  -0.040832  0.000349  3.989978  0.001
C  C63  1  0.85438245  0.64625670  0.94276017  1  -0.006802  -0.002752  3.729108  -0.001  -0.038545  -0.000412  4.002568  0.0  -0.034643  -0.001492  4.021172  -0.001  0.348842  0.000866  -0.008802  -0.040912  0.000348  3.990036  0.001
C  C64  1  0.85438240  0.14625781  0.55724040  1  -0.006776  -0.002721  3.729095  -0.001  -0.038531  -0.000412  4.002547  0.0  -0.034628  -0.001491  4.021149  -0.001  0.348935  0.000867  -0.008809  -0.040894  0.000349  3.990008  0.001
C  C65  1  0.14561692  0.35374233  0.05723983  1  -0.006794  -0.002737  3.729112  -0.001  -0.038546  -0.000411  4.002568  0.0  -0.034648  -0.001493  4.021171  -0.001  0.348982  0.000867  -0.008801  -0.040909  0.000348  3.990025  0.001
C  C66  1  0.07953237  0.96671462  0.41607412  1  -0.067066  0.004658  3.682106  0.005  -0.109941  0.00225  3.948123  0.003  -0.107745  0.001906  3.965324  0.002  0.331377  0.003993  -0.004612  -0.111102  0.002538  3.93636  0.003
C  C67  1  0.92046697  0.53328580  0.91607525  1  -0.067033  0.004685  3.682195  0.005  -0.109902  0.00225  3.948193  0.003  -0.107705  0.001908  3.965393  0.002  0.331147  0.003992  -0.004598  -0.111051  0.002538  3.936443  0.003
C  C68  1  0.92046886  0.03328816  0.58392532  1  -0.067094  0.004661  3.6822  0.005  -0.109962  0.002251  3.948187  0.003  -0.107765  0.001907  3.965391  0.002  0.33095  0.003992  -0.004638  -0.11111  0.002538  3.936437  0.003
C  C69  1  0.07953178  0.46671198  0.08392588  1  -0.067009  0.004673  3.68211  0.005  -0.109854  0.00225  3.948081  0.003  -0.107656  0.001908  3.965277  0.002  0.331007  0.003992  -0.004562  -0.110995  0.002538  3.936339  0.003
C  C70  1  0.74503959  0.95206884  0.38489665  1  0.003593  0.001102  3.612077  0.001  -0.056064  0.000808  3.863317  0.001  -0.052046  0.000605  3.875219  0.001  0.27474  0.001375  -0.05502  -0.058825  0.000967  3.85535  0.001
C  C71  1  0.25495852  0.54792909  0.88489608  1  0.003521  0.001102  3.61209  0.001  -0.056073  0.000807  3.863294  0.001  -0.052037  0.000605  3.875176  0.001  0.274686  0.001375  -0.055023  -0.058832  0.000967  3.855325  0.001
C  C72  1  0.25495846  0.04793020  0.61510335  1  0.00352  0.001093  3.612104  0.001  -0.056114  0.000808  3.863311  0.001  -0.05208  0.000605  3.875193  0.001  0.274697  0.001375  -0.055023  -0.058871  0.000967  3.855338  0.001
C  C73  1  0.74504086  0.45206994  0.11510392  1  0.003479  0.001101  3.612094  0.001  -0.056103  0.000808  3.863278  0.001  -0.052087  0.000605  3.875182  0.001  0.274681  0.001375  -0.055025  -0.058861  0.000967  3.855308  0.001
C  C74  1  0.60273365  0.83869152  0.32601067  1  -0.122001  -0.000148  3.682919  0.0  -0.162938  -5.4e-05  3.941505  0.0  -0.164296  -8.1e-05  3.955354  0.0  -0.007722  1.4e-05  -0.163404  -0.161517  -1.5e-05  3.931753  0.0
C  C75  1  0.39726436  0.66130890  0.82601124  1  -0.121937  -0.000148  3.682908  0.0  -0.162924  -5.3e-05  3.9415  0.0  -0.164289  -8.2e-05  3.955348  0.0  -0.007712  1.5e-05  -0.163402  -0.161492  -1.4e-05  3.931751  0.0
C  C76  1  0.39726766  0.16130876  0.67398820  1  -0.121944  -0.000143  3.6829  0.0  -0.162914  -5.4e-05  3.941496  0.0  -0.164275  -8.1e-05  3.955334  0.0  -0.007698  1.5e-05  -0.163386  -0.161491  -1.4e-05  3.931745  0.0
C  C77  1  0.60273298  0.33869138  0.17398820  1  -0.121996  -0.000151  3.682973  0.0  -0.162978  -5.2e-05  3.941565  0.0  -0.164334  -8.3e-05  3.955408  0.0  -0.007759  1.5e-05  -0.163403  -0.161552  -1.4e-05  3.931816  0.0
C  C78  1  0.48979430  0.92148800  0.28447346  1  -0.117714  4e-06  3.666992  0.0  -0.157629  2.9e-05  3.922977  0.0  -0.159  1e-06  3.936721  0.0  -0.049476  9.8e-05  -0.164684  -0.156391  6.4e-05  3.91348  0.0
C  C79  1  0.51020442  0.57851117  0.78447290  1  -0.117761  2e-06  3.666955  0.0  -0.157666  2.9e-05  3.922907  0.0  -0.15904  1e-06  3.936659  0.0  -0.049453  9.7e-05  -0.164692  -0.156427  6.4e-05  3.913407  0.0
C  C80  1  0.51020577  0.07850978  0.71552710  1  -0.117736  7e-06  3.666925  0.0  -0.157652  2.9e-05  3.922892  0.0  -0.159025  2e-06  3.936639  0.0  -0.049431  9.7e-05  -0.164733  -0.156415  6.3e-05  3.913396  0.0
C  C81  1  0.48979557  0.42148911  0.21552654  1  -0.117784  2e-06  3.666987  0.0  -0.15767  2.8e-05  3.92295  0.0  -0.159039  2e-06  3.936699  0.0  -0.049451  9.7e-05  -0.164696  -0.156432  6.4e-05  3.913452  0.0
C  C82  1  0.35359544  0.79926719  0.22642079  1  -0.005923  0.001017  3.622519  0.001  -0.064904  0.000768  3.876701  0.001  -0.061134  0.000576  3.888124  0.001  0.233445  0.001305  -0.058207  -0.067241  0.000934  3.869082  0.001
C  C83  1  0.64640593  0.70073199  0.72642022  1  -0.005993  0.001024  3.622616  0.001  -0.064954  0.000767  3.876745  0.001  -0.061175  0.000577  3.888152  0.001  0.23328  0.001305  -0.058243  -0.067291  0.000934  3.869124  0.001
C  C84  1  0.64640790  0.20073185  0.77357978  1  -0.006  0.001019  3.622597  0.001  -0.064957  0.000768  3.876717  0.001  -0.061179  0.000576  3.888122  0.001  0.233289  0.001305  -0.058288  -0.067295  0.000934  3.869099  0.001
C  C85  1  0.35359609  0.29926704  0.27357921  1  -0.00581  0.001023  3.622443  0.001  -0.064807  0.000768  3.876632  0.001  -0.061046  0.000576  3.888064  0.001  0.233272  0.001305  -0.058172  -0.067145  0.000934  3.869013  0.001
C  C86  1  0.05281921  0.85756148  0.22320119  1  -0.089216  0.004034  3.696083  0.004  -0.127313  0.002052  3.957123  0.002  -0.125456  0.001759  3.973549  0.002  0.266798  0.003906  -0.008855  -0.128502  0.002479  3.946595  0.003
C  C87  1  0.94718146  0.64243894  0.72320119  1  -0.089269  0.004039  3.696128  0.004  -0.127392  0.002052  3.957183  0.002  -0.125532  0.001759  3.973606  0.002  0.266906  0.003906  -0.008865  -0.128579  0.002479  3.946653  0.003
C  C88  1  0.94718404  0.14244005  0.77679881  1  -0.089278  0.004032  3.696115  0.004  -0.127396  0.002053  3.957169  0.002  -0.12555  0.00176  3.973583  0.002  0.26676  0.003906  -0.008866  -0.128584  0.002479  3.946641  0.003
C  C89  1  0.05281986  0.35756134  0.27679881  1  -0.089157  0.004031  3.69605  0.004  -0.127258  0.002052  3.957091  0.002  -0.125391  0.001759  3.973522  0.002  0.266807  0.003906  -0.008861  -0.128447  0.002479  3.946562  0.003
C  C90  1  0.96507083  0.91192547  0.16767738  1  -0.005645  -0.002271  3.751541  -0.001  -0.037658  -6.8e-05  4.02571  0.0  -0.033281  -0.001122  4.044071  0.0  0.412286  0.00097  -0.006286  -0.040438  0.000491  4.01348  0.001
C  C91  1  0.03492657  0.58807370  0.66767738  1  -0.005624  -0.002279  3.751508  -0.001  -0.037641  -6.9e-05  4.02569  0.0  -0.033261  -0.001122  4.044049  0.0  0.412327  0.00097  -0.006286  -0.04042  0.000491  4.013458  0.001
C  C92  1  0.03493110  0.08807606  0.83232262  1  -0.005645  -0.002268  3.751548  -0.001  -0.037666  -6.9e-05  4.025727  0.0  -0.033286  -0.001123  4.044091  0.0  0.412328  0.00097  -0.006325  -0.040446  0.000491  4.013496  0.001
C  C93  1  0.96507210  0.41192658  0.33232319  1  -0.005777  -0.002264  3.75146  -0.001  -0.037798  -6.9e-05  4.025667  0.0  -0.033418  -0.001123  4.044023  0.0  0.412306  0.00097  -0.006325  -0.040575  0.000491  4.013434  0.001
C  C94  1  0.22757082  0.90881674  0.11730958  1  0.150839  -0.009875  3.634322  -0.005  0.094577  -0.002787  3.904504  -0.001  0.109428  -0.00419  3.91745  -0.002  0.934599  -0.001076  0.13757  0.085434  -0.001484  3.895916  0.0
C  C95  1  0.77242853  0.59118368  0.61731015  1  0.150781  -0.009904  3.634383  -0.005  0.094537  -0.002785  3.904548  -0.001  0.109392  -0.00419  3.917493  -0.002  0.934579  -0.001075  0.137574  0.085394  -0.001483  3.895962  0.0
C  C96  1  0.77242988  0.09118229  0.88268928  1  0.150784  -0.009884  3.634418  -0.005  0.094554  -0.002784  3.904562  -0.001  0.109409  -0.004191  3.917506  -0.002  0.934594  -0.001076  0.137572  0.085411  -0.001484  3.895975  0.0
C  C97  1  0.22757208  0.40881785  0.38269042  1  0.150824  -0.009878  3.634292  -0.005  0.094592  -0.002784  3.90445  -0.001  0.109445  -0.004192  3.917394  -0.002  0.934576  -0.001075  0.137573  0.085449  -0.001483  3.895865  0.0
N  N98  1  0.98679110  0.70275654  0.45419462  1  -0.338399  0.078697  3.34806  0.105  -0.294898  0.053769  3.656669  0.075  -0.325816  0.043826  3.680484  0.065  -1.183258  0.092675  -0.375371  -0.275456  0.060251  3.641374  0.081
N  N99  1  0.01320956  0.79724389  0.95419462  1  -0.338322  0.078705  3.347946  0.105  -0.29485  0.053772  3.656577  0.075  -0.325765  0.043828  3.680382  0.065  -1.183369  0.092675  -0.375346  -0.275411  0.060251  3.641279  0.081
N  N100  1  0.01321145  0.29724625  0.54580595  1  -0.338327  0.078702  3.347963  0.105  -0.294856  0.05377  3.656602  0.075  -0.325774  0.043826  3.680415  0.065  -1.18338  0.092675  -0.375325  -0.275413  0.060251  3.64131  0.081
N  N101  1  0.98678981  0.20275515  0.04580538  1  -0.338329  0.078701  3.348008  0.105  -0.294874  0.053772  3.656654  0.075  -0.325787  0.043828  3.68046  0.065  -1.183383  0.092676  -0.375343  -0.275434  0.060251  3.641353  0.081
N  N102  1  0.87875556  0.88227750  0.41112203  1  -0.069939  0.001281  3.577149  0.003  0.026611  0.001141  3.789335  0.002  0.011781  0.000676  3.815715  0.001  -1.268659  0.002937  -0.246258  0.036202  0.001456  3.771521  0.002
N  N103  1  0.12124378  0.61772292  0.91112260  1  -0.069938  0.00128  3.577125  0.003  0.026592  0.001141  3.789308  0.002  0.011756  0.000677  3.815687  0.001  -1.268882  0.002937  -0.246275  0.036185  0.001456  3.771491  0.002
N  N104  1  0.12124505  0.11772403  0.58887740  1  -0.069896  0.001288  3.577151  0.003  0.02665  0.001141  3.789314  0.002  0.011813  0.000677  3.815697  0.001  -1.268908  0.002937  -0.246226  0.036243  0.001457  3.771496  0.002
N  N105  1  0.87875559  0.38227611  0.08887740  1  -0.069847  0.00128  3.57707  0.003  0.026658  0.001141  3.789263  0.002  0.011835  0.000677  3.815632  0.001  -1.268874  0.002937  -0.24629  0.036249  0.001457  3.771444  0.002
N  N106  1  0.21832637  0.85633849  0.19042812  1  -0.067596  0.001362  3.570528  0.002  0.028563  0.001174  3.785707  0.002  0.013993  0.000723  3.811207  0.001  -1.223196  0.002996  -0.248524  0.038073  0.001546  3.768316  0.002
N  N107  1  0.78167430  0.64366193  0.69042812  1  -0.067498  0.001367  3.570548  0.002  0.028645  0.001173  3.785713  0.002  0.014073  0.000724  3.811208  0.001  -1.223038  0.002996  -0.248505  0.038154  0.001545  3.768322  0.002
N  N108  1  0.78167627  0.14366179  0.80957188  1  -0.067488  0.001364  3.570499  0.002  0.028664  0.001172  3.785641  0.002  0.01409  0.000724  3.811141  0.001  -1.223034  0.002996  -0.248447  0.038173  0.001545  3.768252  0.002
N  N109  1  0.21832569  0.35633835  0.30957244  1  -0.067627  0.001362  3.570471  0.002  0.028522  0.001173  3.785665  0.002  0.013956  0.000724  3.811162  0.001  -1.223001  0.002996  -0.248532  0.038032  0.001545  3.768276  0.002
N  N110  1  0.07517826  0.94234874  0.10226871  1  -0.329698  0.07604  3.337448  0.102  -0.288452  0.053643  3.647942  0.075  -0.319032  0.043696  3.670774  0.065  -1.187394  0.091812  -0.369323  -0.269362  0.059981  3.633189  0.08
N  N111  1  0.92481852  0.55764918  0.60226871  1  -0.329629  0.076049  3.337421  0.102  -0.288395  0.053641  3.647916  0.075  -0.318984  0.043694  3.67076  0.065  -1.187413  0.091809  -0.369317  -0.269302  0.059979  3.63317  0.08
N  N112  1  0.92482243  0.05765029  0.89773129  1  -0.329634  0.076042  3.337446  0.102  -0.28839  0.053642  3.647919  0.075  -0.318977  0.043695  3.670756  0.065  -1.187436  0.091811  -0.369301  -0.2693  0.05998  3.633167  0.08
N  N113  1  0.07518015  0.44235110  0.39773186  1  -0.329597  0.07604  3.337289  0.102  -0.288375  0.05364  3.647787  0.075  -0.318959  0.043695  3.67063  0.065  -1.187413  0.091811  -0.369299  -0.269282  0.05998  3.633039  0.08
Cl  Cl114  1  0.41892157  0.69708179  0.54044034  1  -0.704305  -0.000955  0.596702  0.001  -0.653978  -0.002176  0.803346  0.0  -0.666406  -0.002464  0.785273  -0.001  -0.77596  -0.000996  -0.398771  -0.644055  -0.001612  0.816187  0.0
Cl  Cl115  1  0.58107777  0.80291863  0.04044034  1  -0.704318  -0.000957  0.596712  0.001  -0.653982  -0.002176  0.80335  0.0  -0.666414  -0.002463  0.785281  -0.001  -0.775964  -0.000996  -0.398773  -0.64406  -0.001611  0.816186  0.0
Cl  Cl116  1  0.58107834  0.30292099  0.45956023  1  -0.704312  -0.000955  0.596714  0.001  -0.653979  -0.002177  0.803352  0.0  -0.666426  -0.002464  0.785313  -0.001  -0.775964  -0.000996  -0.398775  -0.644057  -0.001612  0.816194  0.0
Cl  Cl117  1  0.41892354  0.19708165  0.95956023  1  -0.704318  -0.000956  0.596706  0.001  -0.653988  -0.002175  0.80335  0.0  -0.666416  -0.002463  0.785281  -0.001  -0.775968  -0.000996  -0.398771  -0.644069  -0.001611  0.816189  0.0
