# generated using pymatgen
data_ZnH22C15NO6
_symmetry_space_group_name_H-M   'P 1'
_cell_length_a   9.39091790
_cell_length_b   10.84242999
_cell_length_c   10.84230101
_cell_angle_alpha   88.49663296
_cell_angle_beta   88.58397066
_cell_angle_gamma   88.58207583
_symmetry_Int_Tables_number   1
_chemical_formula_structural   ZnH22C15NO6
_chemical_formula_sum   'Zn2 H44 C30 N2 O12'
_cell_volume   1102.92931678
_cell_formula_units_Z   2
loop_
 _symmetry_equiv_pos_site_id
 _symmetry_equiv_pos_as_xyz
  1  'x, y, z'
loop_
 _atom_site_type_symbol
 _atom_site_label
 _atom_site_symmetry_multiplicity
 _atom_site_fract_x
 _atom_site_fract_y
 _atom_site_fract_z
 _atom_site_occupancy
 _atom_site_pbe_bader_charge
 _atom_site_pbe_bader_spin_density
 _atom_site_pbe_cm5_charge
 _atom_site_pbe_ddec_charge
 _atom_site_pbe_ddec_spin_density
 _atom_site_pbe_ddec_sum_bond_order
 _atom_site_pbe_magmom
Zn  Zn0  1  0.35574130  0.50332094  0.50252378  1  1.272933  0  0.672787  0.802457  0  2.384403  0
Zn  Zn1  1  0.64426073  0.49747346  0.49666053  1  1.257194  0  0.672734  0.802562  0  2.384628  0
H  H2  1  0.47505306  0.30162092  0.11922512  1  0.010186  0  0.097344  0.033108  0  0.974023  0
H  H3  1  0.70230009  0.39023457  0.88951288  1  0.020184  0  0.087786  0.091443  0  0.985277  0
H  H4  1  0.54097721  0.09581119  0.70591757  1  0.03366  0  0.088609  0.092045  0  0.986507  0
H  H5  1  0.29800422  0.11037045  0.61027784  1  0.018198  0  0.087898  0.091537  0  0.985054  0
H  H6  1  0.45969377  0.29402862  0.90426697  1  0.031634  0  0.088473  0.091837  0  0.986635  0
H  H7  1  0.30445671  0.38990745  0.91083289  1  0.083434  0  0.096102  0.103906  0  1.001213  0
H  H8  1  0.71575803  0.55254108  0.88319365  1  0.060295  0  0.095451  0.0993  0  1.017727  0
H  H9  1  0.69587703  0.08907709  0.60964195  1  0.081465  0  0.095998  0.103758  0  1.000582  0
H  H10  1  0.70448036  0.39559474  0.10599029  1  0.03266  0  0.093667  0.028258  0  0.991448  0
H  H11  1  0.28402867  0.11682034  0.44800699  1  0.064177  0  0.09563  0.100007  0  1.017019  0
H  H12  1  0.32886622  0.62815630  0.10807309  1  0.053585  0  0.093955  0.099228  0  0.993369  0
H  H13  1  0.49737792  0.69669081  0.09637386  1  0.041159  0  0.094026  0.097848  0  0.979824  0
H  H14  1  0.67097109  0.89198851  0.37174471  1  0.053466  0  0.094045  0.099172  0  0.993502  0
H  H15  1  0.50235219  0.90353818  0.30337432  1  0.043787  0  0.094035  0.097959  0  0.979577  0
H  H16  1  0.52518294  0.88087147  0.69842843  1  0.01161  0  0.09744  0.032961  0  0.97384  0
H  H17  1  0.32350411  0.62098765  0.89200376  1  0.039991  0  0.089249  0.087733  0  0.981207  0
H  H18  1  0.49279462  0.68897402  0.88141978  1  0.035537  0  0.087464  0.08168  0  0.997418  0
H  H19  1  0.67610657  0.10808372  0.37866343  1  0.041647  0  0.089391  0.087797  0  0.981475  0
H  H20  1  0.50658124  0.11849498  0.31108162  1  0.03604  0  0.087178  0.081253  0  0.997457  0
H  H21  1  0.29570302  0.89391758  0.60471120  1  0.032395  0  0.093486  0.02869  0  0.991105  0
H  H22  1  0.89585696  0.37276267  0.35957967  1  0.042528  0  0.110158  0.095513  0  0.97913  0
H  H23  1  0.14448061  0.34028485  0.39465463  1  0.09592  0  0.11278  0.101734  0  0.991142  0
H  H24  1  0.10414331  0.64031264  0.62736956  1  0.043274  0  0.110281  0.095625  0  0.979207  0
H  H25  1  0.85551987  0.60520376  0.65982694  1  0.096507  0  0.112863  0.102067  0  0.991033  0
H  H26  1  0.86865600  0.30745811  0.50925699  1  0.089879  0  0.109688  0.102358  0  0.99231  0
H  H27  1  0.11569594  0.31659722  0.55495237  1  0.057381  0  0.111471  0.097656  0  0.965344  0
H  H28  1  0.13136438  0.49058795  0.69254504  1  0.088699  0  0.109739  0.102521  0  0.991925  0
H  H29  1  0.88432884  0.44489241  0.68337224  1  0.057059  0  0.111571  0.097916  0  0.964966  0
H  H30  1  0.86410769  0.59529038  0.32536680  1  0.095211  0  0.113124  0.104523  0  0.998418  0
H  H31  1  0.11522551  0.54637068  0.31034191  1  0.080489  0  0.112419  0.101432  0  0.98659  0
H  H32  1  0.13588279  0.67471577  0.40484588  1  0.094719  0  0.113239  0.10478  0  0.998733  0
H  H33  1  0.88474972  0.68970004  0.45378664  1  0.081564  0  0.11239  0.10115  0  0.986839  0
H  H34  1  0.26931894  0.20925207  0.19884548  1  0.030946  0  0.090081  0.084389  0  1.007713  0
H  H35  1  0.20921798  0.23643353  0.04422523  1  0.006783  0  0.088385  0.081098  0  1.003477  0
H  H36  1  0.10368153  0.29083822  0.17188888  1  0.014785  0  0.096255  0.094353  0  1.005867  0
H  H37  1  0.91832735  0.54216591  0.98462483  1  0.014558  0  0.087432  0.080621  0  1.004434  0
H  H38  1  0.92513780  0.47324228  0.13625774  1  0.010842  0  0.085877  0.071517  0  1.026408  0
H  H39  1  0.94821945  0.63631824  0.11404641  1  0.062857  0  0.103173  0.108488  0  0.977054  0
H  H40  1  0.73104679  0.80139569  0.79078098  1  0.033576  0  0.090004  0.084175  0  1.00737  0
H  H41  1  0.79132921  0.95590017  0.76321860  1  0.008489  0  0.088315  0.081071  0  1.003245  0
H  H42  1  0.89659075  0.82801826  0.70893398  1  0.012297  0  0.095972  0.094242  0  1.005735  0
H  H43  1  0.08159869  0.01530812  0.45871101  1  0.012884  0  0.08724  0.080586  0  1.004794  0
H  H44  1  0.07500486  0.86355745  0.52737258  1  0.007038  0  0.086223  0.072021  0  1.026267  0
H  H45  1  0.05149753  0.88605901  0.36437767  1  0.022243  0  0.103281  0.108934  0  0.976468  0
C  C46  1  0.50580559  0.26039347  0.50927007  1  1.556448  0  0.216651  0.58425  0  4.110788  0
C  C47  1  0.49255008  0.73736690  0.49998520  1  1.538675  0  0.219652  0.597744  0  4.099749  0
C  C48  1  0.50745224  0.50006450  0.26261933  1  1.538747  0  0.219589  0.597281  0  4.100466  0
C  C49  1  0.42085331  0.38574267  0.08141318  1  0.474332  0  0.011486  0.162258  0  3.768821  0
C  C50  1  0.65777504  0.48169703  0.06577913  1  0.424479  0  0.001244  0.155507  0  3.798771  0
C  C51  1  0.57933627  0.91858334  0.61423563  1  0.474082  0  0.011203  0.162329  0  3.767799  0
C  C52  1  0.34226901  0.93418504  0.51859053  1  0.467635  0  0.002114  0.154961  0  3.798716  0
C  C53  1  0.49415705  0.49073479  0.73959113  1  1.55687  0  0.216835  0.58441  0  4.11084  0
C  C54  1  0.41605024  0.38211756  0.93872146  1  -0.088138  0  -0.167967  -0.263562  0  3.885656  0
C  C55  1  0.65359685  0.47655082  0.92369397  1  -0.035979  0  -0.170131  -0.266285  0  3.8956  0
C  C56  1  0.58427433  0.06127180  0.61774733  1  -0.087716  0  -0.168068  -0.263967  0  3.884894  0
C  C57  1  0.34644258  0.07626522  0.52382433  1  -0.083233  0  -0.1706  -0.267066  0  3.89574  0
C  C58  1  0.43624275  0.61798522  0.06726342  1  -0.010745  0  -0.162577  -0.167657  0  3.862058  0
C  C59  1  0.56356675  0.93272560  0.38201171  1  -0.012434  0  -0.162753  -0.167731  0  3.862774  0
C  C60  1  0.50581266  0.49899437  0.12121296  1  0.065979  0  -0.013516  -0.083515  0  3.752148  0
C  C61  1  0.49421045  0.87877206  0.50108724  1  0.065705  0  -0.013758  -0.083451  0  3.752431  0
C  C62  1  0.49984382  0.48908768  0.88011700  1  0.06401  0  -0.018275  0.043641  0  3.818367  0
C  C63  1  0.50016420  0.11987036  0.51096484  1  0.064748  0  -0.017956  0.044201  0  3.817981  0
C  C64  1  0.43321162  0.61263705  0.92501497  1  -0.063907  0  -0.157079  -0.167269  0  3.845469  0
C  C65  1  0.56645494  0.07498431  0.38728526  1  -0.06768  0  -0.156871  -0.166953  0  3.845265  0
C  C66  1  0.92362659  0.38076384  0.45682844  1  0.246457  0  -0.071515  -0.097027  0  3.834645  0
C  C67  1  0.08570368  0.37551778  0.47543037  1  0.216627  0  -0.06985  -0.089614  0  3.833278  0
C  C68  1  0.07638263  0.54307415  0.61928452  1  0.246438  0  -0.071803  -0.09756  0  3.834873  0
C  C69  1  0.91430260  0.52446935  0.62451823  1  0.217032  0  -0.069993  -0.090189  0  3.83338  0
C  C70  1  0.91826907  0.60151896  0.41337294  1  0.217834  0  -0.071016  -0.097794  0  3.806837  0
C  C71  1  0.21338601  0.27610075  0.13694026  1  0.463218  0  -0.145515  -0.170464  0  3.993586  0
C  C72  1  0.89019435  0.55665953  0.08292657  1  0.433922  0  -0.144439  -0.16456  0  3.993073  0
C  C73  1  0.78694506  0.86311188  0.72373820  1  0.46123  0  -0.144964  -0.170041  0  3.992057  0
C  C74  1  0.10971962  0.91704177  0.44398311  1  0.479173  0  -0.144693  -0.165626  0  3.992986  0
C  C75  1  0.08172157  0.58671805  0.39855639  1  0.177505  0  -0.071156  -0.098828  0  3.807557  0
N  N76  1  0.86388979  0.50183672  0.49819508  1  -0.986425  0  -0.344932  -0.102319  0  3.453319  0
N  N77  1  0.13611098  0.50181802  0.49817369  1  -0.987022  0  -0.344939  -0.101774  0  3.453528  0
O  O78  1  0.39568772  0.31923162  0.47143575  1  -1.176973  0  -0.314871  -0.547671  0  2.376242  0
O  O79  1  0.61727799  0.45431250  0.31542251  1  -1.166496  0  -0.319186  -0.55298  0  2.344353  0
O  O80  1  0.60233064  0.68226491  0.45574940  1  -1.162876  0  -0.307392  -0.534412  0  2.354816  0
O  O81  1  0.38275347  0.68454983  0.54571158  1  -1.166889  0  -0.318951  -0.55292  0  2.344837  0
O  O82  1  0.39768162  0.54424065  0.31773080  1  -1.163079  0  -0.30722  -0.533963  0  2.355759  0
O  O83  1  0.27957853  0.39245453  0.13469216  1  -1.047092  0  -0.234315  -0.213262  0  2.498193  0
O  O84  1  0.74270210  0.58240497  0.10260011  1  -1.041135  0  -0.236157  -0.216679  0  2.479328  0
O  O85  1  0.72056804  0.86520074  0.60747671  1  -1.04762  0  -0.234292  -0.21319  0  2.497765  0
O  O86  1  0.62043534  0.30906124  0.54171067  1  -1.177783  0  -0.31759  -0.548502  0  2.319505  0
O  O87  1  0.25715607  0.89745106  0.41795887  1  -1.03852  0  -0.236605  -0.216823  0  2.478529  0
O  O88  1  0.60430094  0.52857116  0.68072778  1  -1.176792  0  -0.31499  -0.547828  0  2.375638  0
O  O89  1  0.37956412  0.45827770  0.69094200  1  -1.178384  0  -0.317548  -0.548409  0  2.320367  0
