# generated using pymatgen
data_CdH14C16(N2O)4
_symmetry_space_group_name_H-M   'P 1'
_cell_length_a   8.13414510
_cell_length_b   10.65235404
_cell_length_c   10.65903181
_cell_angle_alpha   73.43602170
_cell_angle_beta   78.75466520
_cell_angle_gamma   83.06956060
_symmetry_Int_Tables_number   1
_chemical_formula_structural   CdH14C16(N2O)4
_chemical_formula_sum   'Cd2 H28 C32 N16 O8'
_cell_volume   866.17661061
_cell_formula_units_Z   2
loop_
 _symmetry_equiv_pos_site_id
 _symmetry_equiv_pos_as_xyz
  1  'x, y, z'
loop_
 _atom_site_type_symbol
 _atom_site_label
 _atom_site_symmetry_multiplicity
 _atom_site_fract_x
 _atom_site_fract_y
 _atom_site_fract_z
 _atom_site_occupancy
 _atom_site_hle17_bader_spin_density
 _atom_site_hle17_ddec_charge
 _atom_site_hle17_ddec_spin_density
 _atom_site_hle17_ddec_sum_bond_order
 _atom_site_hle17_magmom
 _atom_site_hse06_10hf_bader_spin_density
 _atom_site_hse06_10hf_ddec_charge
 _atom_site_hse06_10hf_ddec_spin_density
 _atom_site_hse06_10hf_ddec_sum_bond_order
 _atom_site_hse06_10hf_magmom
 _atom_site_hse06_bader_spin_density
 _atom_site_hse06_ddec_charge
 _atom_site_hse06_ddec_spin_density
 _atom_site_hse06_ddec_sum_bond_order
 _atom_site_hse06_magmom
 _atom_site_pbe_bader_spin_density
 _atom_site_pbe_cm5_charge
 _atom_site_pbe_ddec_charge
 _atom_site_pbe_ddec_spin_density
 _atom_site_pbe_ddec_sum_bond_order
 _atom_site_pbe_magmom
Cd  Cd0  1  0.71779695  0.77337022  0.78734611  1  0  1.087656  0  1.765183  0  0  0.87775  0  2.220604  0  0  0.932882  0  2.17287  0  0  0.789081  0.838641  0  2.25351  0
Cd  Cd1  1  0.28220429  0.22663067  0.21265314  1  0  1.087633  0  1.765195  0  0  0.877735  0  2.220603  0  0  0.932865  0  2.172869  0  0  0.789059  0.838626  0  2.253509  0
H  H2  1  0.28663650  0.90702107  0.45379489  1  0  0.320374  0  0.927513  0  0  0.298595  0  0.991531  0  0  0.308246  0  0.983486  0  0  0.307717  0.291702  0  0.997384  0
H  H3  1  0.71336374  0.09297688  0.54620534  1  0  0.320336  0  0.927543  0  0  0.298554  0  0.991566  0  0  0.308204  0  0.983525  0  0  0.307694  0.291661  0  0.997419  0
H  H4  1  0.32943336  0.67760722  0.86114028  1  0  0.317432  0  0.922863  0  0  0.293338  0  0.991202  0  0  0.302981  0  0.983342  0  0  0.308369  0.286452  0  0.996922  0
H  H5  1  0.67056411  0.32239368  0.13886047  1  0  0.317408  0  0.922928  0  0  0.293306  0  0.991267  0  0  0.302947  0  0.983411  0  0  0.308378  0.286419  0  0.996987  0
H  H6  1  0.81623874  0.02063922  0.94478399  1  0  0.106269  0  0.959143  0  0  0.114762  0  1.022892  0  0  0.11761  0  1.021207  0  0  0.118026  0.113012  0  1.023232  0
H  H7  1  0.18376803  0.97935578  0.05521892  1  0  0.106247  0  0.959069  0  0  0.114743  0  1.022831  0  0  0.117566  0  1.021187  0  0  0.118032  0.112999  0  1.023153  0
H  H8  1  0.11308116  0.14942564  0.83636947  1  0  0.111104  0  0.957315  0  0  0.120926  0  1.01961  0  0  0.12306  0  1.019534  0  0  0.12364  0.119487  0  1.01923  0
H  H9  1  0.88692276  0.85057329  0.16362993  1  0  0.111055  0  0.957379  0  0  0.120889  0  1.019639  0  0  0.123026  0  1.019563  0  0  0.123618  0.119453  0  1.019247  0
H  H10  1  0.31876858  0.16366178  0.61541236  1  0  0.11975  0  0.943574  0  0  0.129226  0  1.011221  0  0  0.131959  0  1.009352  0  0  0.117695  0.12737  0  1.012481  0
H  H11  1  0.68122739  0.83634207  0.38458965  1  0  0.119849  0  0.94342  0  0  0.129294  0  1.01112  0  0  0.132026  0  1.009252  0  0  0.117725  0.127438  0  1.012382  0
H  H12  1  0.33020017  0.03890993  0.53791051  1  0  0.122494  0  0.971276  0  0  0.130097  0  1.037447  0  0  0.133722  0  1.034751  0  0  0.117421  0.127509  0  1.039444  0
H  H13  1  0.66979955  0.96109391  0.46209094  1  0  0.122454  0  0.971263  0  0  0.130074  0  1.037411  0  0  0.133697  0  1.034715  0  0  0.117415  0.127487  0  1.039404  0
H  H14  1  0.91673989  0.64097753  0.50194162  1  0  0.109988  0  0.953405  0  0  0.118771  0  1.013931  0  0  0.122203  0  1.01143  0  0  0.117017  0.116277  0  1.015864  0
H  H15  1  0.08325901  0.35902140  0.49805947  1  0  0.109988  0  0.953433  0  0  0.118776  0  1.013947  0  0  0.122206  0  1.011452  0  0  0.117016  0.116283  0  1.015881  0
H  H16  1  0.35182588  0.50269683  0.58792131  1  0  0.116378  0  0.958828  0  0  0.124117  0  1.026358  0  0  0.127395  0  1.023633  0  0  0.113482  0.121776  0  1.028329  0
H  H17  1  0.64817083  0.49731290  0.41207798  1  0  0.116342  0  0.958857  0  0  0.124098  0  1.026368  0  0  0.127377  0  1.023649  0  0  0.113462  0.121759  0  1.028339  0
H  H18  1  0.23729308  0.58988483  0.70301858  1  0  0.106874  0  0.931743  0  0  0.116418  0  0.99837  0  0  0.118068  0  0.998383  0  0  0.114257  0.115221  0  0.998515  0
H  H19  1  0.76270674  0.41011803  0.29698220  1  0  0.106884  0  0.931684  0  0  0.116404  0  0.998342  0  0  0.118079  0  0.998334  0  0  0.114231  0.115208  0  0.998487  0
H  H20  1  0.04011159  0.56773161  0.24811926  1  0  0.093892  0  0.949038  0  0  0.10729  0  1.003905  0  0  0.109664  0  1.003211  0  0  0.112102  0.105764  0  1.004188  0
H  H21  1  0.95988515  0.43226341  0.75188045  1  0  0.093899  0  0.949071  0  0  0.107294  0  1.003939  0  0  0.109669  0  1.00324  0  0  0.112113  0.105769  0  1.004221  0
H  H22  1  0.14632470  0.78286329  0.03553334  1  0  0.105399  0  0.980822  0  0  0.1152  0  1.044999  0  0  0.117617  0  1.043937  0  0  0.119062  0.113243  0  1.046174  0
H  H23  1  0.85367061  0.21713369  0.96446790  1  0  0.105389  0  0.980819  0  0  0.115203  0  1.044988  0  0  0.117619  0  1.043929  0  0  0.119063  0.113248  0  1.04616  0
H  H24  1  0.22317192  0.73531251  0.35434690  1  0  0.100204  0  0.971501  0  0  0.108278  0  1.037511  0  0  0.110414  0  1.03769  0  0  0.119303  0.106806  0  1.037104  0
H  H25  1  0.77682723  0.26468348  0.64565499  1  0  0.100136  0  0.971571  0  0  0.108212  0  1.03758  0  0  0.110348  0  1.037758  0  0  0.11929  0.106742  0  1.037172  0
H  H26  1  0.48839430  0.28828394  0.66621900  1  0  0.122119  0  0.977203  0  0  0.129917  0  1.039725  0  0  0.133341  0  1.037745  0  0  0.12208  0.127514  0  1.041171  0
H  H27  1  0.51160460  0.71171499  0.33377740  1  0  0.122101  0  0.977205  0  0  0.129889  0  1.039745  0  0  0.133314  0  1.037763  0  0  0.122082  0.127487  0  1.041189  0
H  H28  1  0.48823250  0.11067933  0.91815066  1  0  0.110883  0  0.950414  0  0  0.12118  0  1.009337  0  0  0.123886  0  1.007818  0  0  0.119479  0.119157  0  1.01064  0
H  H29  1  0.51177367  0.88932255  0.08184663  1  0  0.110841  0  0.950462  0  0  0.121153  0  1.009368  0  0  0.123848  0  1.007861  0  0  0.119469  0.119127  0  1.010676  0
C  C30  1  0.91287197  0.01056874  0.86150414  1  0  0.00554  0  3.769153  0  0  -0.030006  0  4.044257  0  0  -0.028163  0  4.062944  0  0  -0.000373  -0.030837  0  4.02939  0
C  C31  1  0.08712650  0.98943510  0.13849374  1  0  0.005566  0  3.769088  0  0  -0.029985  0  4.044181  0  0  -0.02813  0  4.062876  0  0  -0.000351  -0.030814  0  4.029313  0
C  C32  1  0.05714890  0.07609961  0.80867754  1  0  -0.055126  0  3.686914  0  0  -0.100585  0  3.957735  0  0  -0.098127  0  3.97571  0  0  0.004948  -0.102556  0  3.943762  0
C  C33  1  0.94285134  0.92389835  0.19132269  1  0  -0.055074  0  3.686847  0  0  -0.100521  0  3.957662  0  0  -0.098065  0  3.975638  0  0  0.004962  -0.102487  0  3.943684  0
C  C34  1  0.30560980  0.05791937  0.63582929  1  0  -0.178725  0  3.624724  0  0  -0.236573  0  3.87223  0  0  -0.237835  0  3.87775  0  0  -0.064343  -0.235779  0  3.868748  0
C  C35  1  0.69438993  0.94208448  0.36417122  1  0  -0.178781  0  3.624537  0  0  -0.236607  0  3.872079  0  0  -0.237869  0  3.877593  0  0  -0.064378  -0.235829  0  3.868625  0
C  C36  1  0.43669041  0.97891361  0.71884563  1  0  0.669566  0  3.901461  0  0  0.621521  0  4.205923  0  0  0.653827  0  4.19955  0  0  0.194887  0.599757  0  4.209211  0
C  C37  1  0.56331442  0.02108924  0.28115253  1  0  0.669693  0  3.901462  0  0  0.62159  0  4.206011  0  0  0.653899  0  4.199642  0  0  0.194895  0.599825  0  4.209292  0
C  C38  1  0.04167656  0.93358105  0.69634186  1  0  0.210986  0  3.743728  0  0  0.176439  0  4.014959  0  0  0.188433  0  4.029169  0  0  0.210779  0.168382  0  4.004735  0
C  C39  1  0.95832610  0.06641788  0.30365961  1  0  0.211018  0  3.743779  0  0  0.176419  0  4.015062  0  0  0.188412  0  4.029275  0  0  0.210752  0.168363  0  4.004833  0
C  C40  1  0.06324036  0.85419821  0.60328476  1  0  0.257706  0  3.768727  0  0  0.226482  0  4.043251  0  0  0.238138  0  4.058004  0  0  0.209289  0.219217  0  4.032381  0
C  C41  1  0.93676088  0.14580269  0.39671261  1  0  0.257707  0  3.768703  0  0  0.226529  0  4.043199  0  0  0.238184  0  4.057952  0  0  0.209304  0.219266  0  4.032324  0
C  C42  1  0.99531667  0.70996669  0.51519302  1  0  0.004942  0  3.756391  0  0  -0.030787  0  4.029897  0  0  -0.028945  0  4.04782  0  0  -0.000127  -0.032637  0  4.018184  0
C  C43  1  0.00468474  0.29003225  0.48480769  1  0  0.004928  0  3.756309  0  0  -0.030797  0  4.029813  0  0  -0.028958  0  4.047737  0  0  -0.000115  -0.032647  0  4.018103  0
C  C44  1  0.35644392  0.53584942  0.67547360  1  0  -0.172268  0  3.605342  0  0  -0.232708  0  3.854622  0  0  -0.233211  0  3.859754  0  0  -0.063413  -0.232431  0  3.851344  0
C  C45  1  0.64355464  0.46415344  0.32452830  1  0  -0.172182  0  3.6053  0  0  -0.232627  0  3.854593  0  0  -0.233161  0  3.859737  0  0  -0.063369  -0.232358  0  3.851322  0
C  C46  1  0.50389932  0.62484694  0.64681516  1  0  0.683644  0  3.87118  0  0  0.632594  0  4.181597  0  0  0.665722  0  4.17412  0  0  0.204231  0.610295  0  4.185738  0
C  C47  1  0.49609405  0.37515789  0.35319164  1  0  0.683645  0  3.871161  0  0  0.632633  0  4.181521  0  0  0.665762  0  4.174051  0  0  0.204325  0.610337  0  4.185657  0
C  C48  1  0.33403296  0.40277978  0.91802333  1  0  0.213662  0  3.772851  0  0  0.180153  0  4.037457  0  0  0.193469  0  4.051115  0  0  0.215872  0.171334  0  4.027933  0
C  C49  1  0.66596693  0.59722210  0.08197208  1  0  0.213753  0  3.772783  0  0  0.180223  0  4.037389  0  0  0.193542  0  4.051037  0  0  0.215934  0.1714  0  4.027865  0
C  C50  1  0.25098552  0.49634238  0.98837721  1  0  0.259799  0  3.810365  0  0  0.231552  0  4.079753  0  0  0.242395  0  4.094045  0  0  0.2069  0.224396  0  4.069845  0
C  C51  1  0.74901096  0.50365558  0.01162076  1  0  0.259863  0  3.810421  0  0  0.231655  0  4.079734  0  0  0.242503  0  4.094014  0  0  0.206968  0.224499  0  4.069824  0
C  C52  1  0.11229897  0.57055630  0.15039994  1  0  -0.003644  0  3.760466  0  0  -0.036006  0  4.034535  0  0  -0.035585  0  4.054556  0  0  -0.009506  -0.036378  0  4.020964  0
C  C53  1  0.88770018  0.42943969  0.84959913  1  0  -0.00362  0  3.76071  0  0  -0.035979  0  4.034773  0  0  -0.035556  0  4.054795  0  0  -0.009528  -0.036351  0  4.021203  0
C  C54  1  0.16169839  0.67830059  0.04682389  1  0  0.012985  0  3.673142  0  0  -0.029124  0  3.940155  0  0  -0.026133  0  3.958561  0  0  0.005067  -0.031244  0  3.928356  0
C  C55  1  0.83829701  0.32169541  0.95317668  1  0  0.0129  0  3.673215  0  0  -0.029247  0  3.940219  0  0  -0.02626  0  3.958631  0  0  0.005072  -0.031367  0  3.928414  0
C  C56  1  0.14564630  0.75598348  0.44201821  1  0  -0.001099  0  3.68915  0  0  -0.041034  0  3.958872  0  0  -0.03876  0  3.977434  0  0  0.002637  -0.042192  0  3.945667  0
C  C57  1  0.85435035  0.24401251  0.55798593  1  0  -0.000982  0  3.68902  0  0  -0.04092  0  3.958735  0  0  -0.038643  0  3.977296  0  0  0.002676  -0.042081  0  3.945534  0
C  C58  1  0.44806231  0.29881727  0.76595626  1  0  -0.080009  0  3.663372  0  0  -0.121307  0  3.926001  0  0  -0.120422  0  3.943907  0  0  -0.005069  -0.122049  0  3.914188  0
C  C59  1  0.55193750  0.70118560  0.23403889  1  0  -0.079989  0  3.663372  0  0  -0.12128  0  3.926005  0  0  -0.120394  0  3.943912  0  0  -0.005049  -0.122022  0  3.914186  0
C  C60  1  0.44438312  0.21337843  0.89068977  1  0  0.023714  0  3.75143  0  0  -0.012661  0  4.024207  0  0  -0.00965  0  4.04269  0  0  0.001523  -0.014774  0  4.011995  0
C  C61  1  0.55562046  0.78662443  0.10930670  1  0  0.023691  0  3.751482  0  0  -0.012698  0  4.024264  0  0  -0.009681  0  4.042755  0  0  0.001453  -0.01481  0  4.012047  0
N  N62  1  0.90518356  0.92243733  0.79166191  1  0  -0.39749  0  3.222415  0  0  -0.333665  0  3.503828  0  0  -0.351607  0  3.519213  0  0  -0.352422  -0.321088  0  3.492983  0
N  N63  1  0.09482044  0.07756062  0.20833964  1  0  -0.397561  0  3.222449  0  0  -0.33372  0  3.503878  0  0  -0.35166  0  3.519254  0  0  -0.35246  -0.321142  0  3.493031  0
N  N64  1  0.94520416  0.77175470  0.61415538  1  0  -0.40459  0  3.196411  0  0  -0.33885  0  3.479486  0  0  -0.356732  0  3.494247  0  0  -0.351488  -0.326863  0  3.469517  0
N  N65  1  0.05479474  0.22824424  0.38584571  1  0  -0.404628  0  3.196481  0  0  -0.338898  0  3.479545  0  0  -0.356779  0  3.494306  0  0  -0.351501  -0.326911  0  3.469575  0
N  N66  1  0.13655587  0.02819700  0.70355959  1  0  -0.052688  0  3.577235  0  0  0.035358  0  3.791401  0  0  0.02199  0  3.817554  0  0  -0.234824  0.044251  0  3.773785  0
N  N67  1  0.86344813  0.97180095  0.29644102  1  0  -0.052691  0  3.577183  0  0  0.035369  0  3.791341  0  0  0.022001  0  3.817494  0  0  -0.234804  0.044259  0  3.773725  0
N  N68  1  0.18754515  0.84632521  0.49877272  1  0  -0.312849  0  3.390883  0  0  -0.250352  0  3.627827  0  0  -0.266103  0  3.641675  0  0  -0.374445  -0.239903  0  3.618416  0
N  N69  1  0.81245500  0.15367372  0.50122724  1  0  -0.312813  0  3.390739  0  0  -0.250329  0  3.627687  0  0  -0.266082  0  3.641536  0  0  -0.374444  -0.23988  0  3.618274  0
N  N70  1  0.37336283  0.27887154  0.98390569  1  0  -0.399586  0  3.216534  0  0  -0.330493  0  3.492829  0  0  -0.349689  0  3.508024  0  0  -0.349932  -0.317436  0  3.482332  0
N  N71  1  0.62663966  0.72112936  0.01609149  1  0  -0.399585  0  3.21651  0  0  -0.330496  0  3.492823  0  0  -0.349691  0  3.508007  0  0  -0.349945  -0.317442  0  3.482331  0
N  N72  1  0.16871538  0.45720943  0.11328939  1  0  -0.414971  0  3.118577  0  0  -0.36059  0  3.39602  0  0  -0.377032  0  3.412018  0  0  -0.349273  -0.349051  0  3.384818  0
N  N73  1  0.83128252  0.54278657  0.88670893  1  0  -0.415006  0  3.118786  0  0  -0.360642  0  3.396198  0  0  -0.377088  0  3.412195  0  0  -0.349275  -0.349102  0  3.384997  0
N  N74  1  0.24899075  0.62945237  0.94534490  1  0  -0.3031  0  3.417662  0  0  -0.241045  0  3.653532  0  0  -0.2563  0  3.666572  0  0  -0.374979  -0.230821  0  3.644807  0
N  N75  1  0.75100439  0.37054657  0.05465487  1  0  -0.30304  0  3.417724  0  0  -0.240947  0  3.653527  0  0  -0.256208  0  3.666576  0  0  -0.375036  -0.230731  0  3.644821  0
N  N76  1  0.37729498  0.41847073  0.78421048  1  0  -0.053543  0  3.536596  0  0  0.036839  0  3.749164  0  0  0.023413  0  3.773706  0  0  -0.232622  0.04587  0  3.732368  0
N  N77  1  0.62270124  0.58153017  0.21578575  1  0  -0.053618  0  3.536506  0  0  0.03676  0  3.749108  0  0  0.023334  0  3.773659  0  0  -0.232628  0.045796  0  3.73231  0
O  O78  1  0.39199855  0.91778555  0.83720070  1  0  -0.614841  0  1.916213  0  0  -0.567976  0  2.147188  0  0  -0.590996  0  2.14  0  0  -0.324268  -0.551906  0  2.151502  0
O  O79  1  0.60800886  0.08221632  0.16279641  1  0  -0.614915  0  1.916245  0  0  -0.568059  0  2.147312  0  0  -0.59106  0  2.140085  0  0  -0.324297  -0.551987  0  2.151629  0
O  O80  1  0.58918422  0.98076948  0.65599143  1  0  -0.672561  0  2.027494  0  0  -0.602718  0  2.267004  0  0  -0.631238  0  2.257345  0  0  -0.33704  -0.58259  0  2.27279  0
O  O81  1  0.41081953  0.01923142  0.34400462  1  0  -0.672576  0  2.027427  0  0  -0.602717  0  2.266974  0  0  -0.63124  0  2.257316  0  0  -0.337023  -0.5826  0  2.272787  0
O  O82  1  0.60683788  0.63592922  0.54144140  1  0  -0.616279  0  1.916129  0  0  -0.565759  0  2.135952  0  0  -0.589022  0  2.127598  0  0  -0.321129  -0.549289  0  2.140719  0
O  O83  1  0.39315874  0.36408149  0.45856231  1  0  -0.61625  0  1.916269  0  0  -0.565787  0  2.136123  0  0  -0.589048  0  2.127769  0  0  -0.321165  -0.549321  0  2.140887  0
O  O84  1  0.50551602  0.67998874  0.73938865  1  0  -0.65999  0  2.078666  0  0  -0.584543  0  2.334676  0  0  -0.614858  0  2.324824  0  0  -0.329579  -0.563578  0  2.340736  0
O  O85  1  0.49448824  0.32000626  0.26061745  1  0  -0.660016  0  2.078407  0  0  -0.584567  0  2.3344  0  0  -0.614879  0  2.324547  0  0  -0.32965  -0.563599  0  2.340459  0
