# generated using pymatgen
data_Zn2H16C31N9
_symmetry_space_group_name_H-M   'P 1'
_cell_length_a   18.81755891
_cell_length_b   18.70373494
_cell_length_c   18.62678683
_cell_angle_alpha   103.35592875
_cell_angle_beta   108.56761319
_cell_angle_gamma   110.76781384
_symmetry_Int_Tables_number   1
_chemical_formula_structural   Zn2H16C31N9
_chemical_formula_sum   'Zn4 H32 C62 N18'
_cell_volume   5355.59628841
_cell_formula_units_Z   2
loop_
 _symmetry_equiv_pos_site_id
 _symmetry_equiv_pos_as_xyz
  1  'x, y, z'
loop_
 _atom_site_type_symbol
 _atom_site_label
 _atom_site_symmetry_multiplicity
 _atom_site_fract_x
 _atom_site_fract_y
 _atom_site_fract_z
 _atom_site_occupancy
 _atom_site_pbe_bader_charge
 _atom_site_pbe_bader_spin_density
 _atom_site_pbe_cm5_charge
 _atom_site_pbe_ddec_charge
 _atom_site_pbe_ddec_spin_density
 _atom_site_pbe_ddec_sum_bond_order
 _atom_site_pbe_magmom
Zn  Zn0  1  0.87299818  0.00696151  0.38718602  1  1.188451  0  0.751555  0.61758  0  2.474269  0
Zn  Zn1  1  0.11740241  0.99817439  0.61407540  1  1.196135  0  0.741944  0.628152  0  2.419157  0
Zn  Zn2  1  0.07034534  0.12604544  0.48715544  1  1.181009  0  0.794276  0.723423  0  2.236486  0
Zn  Zn3  1  0.89885165  0.90130237  0.50792425  1  1.190924  0  0.74582  0.620441  0  2.456453  0
H  H4  1  0.86860195  0.88049357  0.23278438  1  0.102329  0  0.123427  0.114444  0  1.010554  0
H  H5  1  0.85490131  0.99232541  0.64150946  1  0.103776  0  0.12692  0.119678  0  0.998678  0
H  H6  1  0.74531043  0.71657824  0.37193224  1  0.109948  0  0.131956  0.124399  0  0.972705  0
H  H7  1  0.25482190  0.27704662  0.59918406  1  0.104575  0  0.130252  0.122924  0  0.976201  0
H  H8  1  0.32618723  0.02771666  0.71658101  1  0.106137  0  0.120384  0.11511  0  0.992148  0
H  H9  1  0.84559580  0.14213064  0.49585396  1  0.12456  0  0.124772  0.118675  0  0.991845  0
H  H10  1  0.87382865  0.73986534  0.37287998  1  0.086767  0  0.117228  0.103991  0  1.032952  0
H  H11  1  0.07748759  0.30336285  0.49628403  1  0.093269  0  0.129748  0.121871  0  0.976164  0
H  H12  1  0.66975887  0.58409608  0.96775824  1  0.073318  0  0.104727  0.093862  0  0.987032  0
H  H13  1  0.43215976  0.38715569  0.99105128  1  0.097494  0  0.105078  0.095599  0  0.982443  0
H  H14  1  0.26705407  0.17524910  0.29587295  1  0.002522  0  0.086292  0.110574  0  1.003407  0
H  H15  1  0.12754253  0.00870071  0.79356579  1  0.149107  0  0.122943  0.12361  0  1.02055  0
H  H16  1  0.32317876  0.17515842  0.39265516  1  0.02936  0  0.082921  0.104907  0  1.009612  0
H  H17  1  0.31861404  0.11223516  0.30221595  1  0.022175  0  0.092385  0.121853  0  0.994282  0
H  H18  1  0.21592767  0.02377383  0.34417090  1  0.038154  0  0.09288  0.08509  0  0.972719  0
H  H19  1  0.16195048  0.02594566  0.24871002  1  0.032012  0  0.092179  0.08752  0  0.994512  0
H  H20  1  0.14035325  0.14248428  0.32319616  1  0.06143  0  0.101843  0.104165  0  0.960577  0
H  H21  1  0.18609873  0.13089076  0.41611192  1  0.026671  0  0.093371  0.0858  0  0.998781  0
H  H22  1  0.69624723  0.71440405  0.65580139  1  0.027823  0  0.088084  0.113776  0  0.999109  0
H  H23  1  0.68527488  0.67369433  0.55467179  1  0.033472  0  0.082232  0.10411  0  1.007521  0
H  H24  1  0.71192481  0.62631805  0.62431743  1  0.026284  0  0.090427  0.117788  0  0.997461  0
H  H25  1  0.84182629  0.71368629  0.61290652  1  0.013969  0  0.089442  0.079259  0  0.969633  0
H  H26  1  0.62914349  0.41629233  0.94064060  1  0.080504  0  0.105712  0.095554  0  0.985779  0
H  H27  1  0.85225017  0.75329971  0.71329363  1  0.049541  0  0.093677  0.086396  0  0.978845  0
H  H28  1  0.80739442  0.85739793  0.68049155  1  0.052355  0  0.103625  0.108267  0  0.963245  0
H  H29  1  0.79712007  0.81888480  0.57976024  1  0.023462  0  0.09058  0.081845  0  0.997121  0
H  H30  1  0.47265898  0.55631883  0.01851999  1  0.059933  0  0.104063  0.092661  0  0.985687  0
H  H31  1  0.49636257  0.53491631  0.87304019  1  0.068196  0  0.102766  0.090121  0  0.986625  0
H  H32  1  0.60608903  0.43727633  0.08539085  1  0.063584  0  0.104409  0.093426  0  0.986956  0
H  H33  1  0.14572840  0.86092813  0.51915003  1  0.138881  0  0.1306  0.126804  0  0.983314  0
H  H34  1  0.82285892  0.14240905  0.30195196  1  0.126706  0  0.136106  0.130484  0  0.967435  0
H  H35  1  0.31198048  0.07838236  0.49777210  1  0.093229  0  0.113823  0.10316  0  1.005226  0
C  C36  1  0.93096261  0.93195963  0.27364741  1  0.481529  0  0.02701  -0.014968  0  3.923806  0
C  C37  1  0.50609247  0.52398675  0.99988149  1  -0.014835  0  -0.067722  -0.072906  0  3.631682  0
C  C38  1  0.61630700  0.54020383  0.97240296  1  -0.034141  0  -0.067104  -0.076107  0  3.623822  0
C  C39  1  0.48534703  0.43226506  0.98717294  1  -0.034747  0  -0.06723  -0.071467  0  3.62533  0
C  C40  1  0.67659788  0.68173068  0.19270776  1  -0.160978  0  -0.066415  -0.13175  0  4.199058  0
C  C41  1  0.36349460  0.30465154  0.77147171  1  0.102863  0  -0.06255  -0.12561  0  4.180424  0
C  C42  1  0.58075869  0.45844851  0.03783472  1  -0.021906  0  -0.068947  -0.078259  0  3.631159  0
C  C43  1  0.52099582  0.51423296  0.92129011  1  -0.014082  0  -0.070266  -0.074642  0  3.636926  0
C  C44  1  0.60304707  0.55245814  0.05366450  1  0.115212  0  0.00558  0.124215  0  3.793891  0
C  C45  1  0.49692059  0.42000426  0.90528288  1  0.087048  0  0.007359  0.127224  0  3.786826  0
C  C46  1  0.64867169  0.62186210  0.12951932  1  -0.173664  0  -0.038168  -0.089712  0  4.097677  0
C  C47  1  0.06307312  0.96887381  0.74621007  1  0.417105  0  0.027285  -0.019326  0  3.92607  0
C  C48  1  0.43123816  0.35436915  0.83058330  1  -0.367704  0  -0.037841  -0.092185  0  4.086668  0
C  C49  1  0.00628930  0.68814031  0.40780736  1  0.100243  0  -0.019893  -0.043699  0  4.060317  0
C  C50  1  0.94832317  0.32522498  0.38087921  1  0.120456  0  -0.032591  -0.075321  0  4.077903  0
C  C51  1  0.07901146  0.84387816  0.48920623  1  0.448134  0  0.029967  -0.021102  0  3.887125  0
C  C52  1  0.88596327  0.16974245  0.35156593  1  0.448989  0  0.03442  -0.024507  0  3.906763  0
C  C53  1  0.99619205  0.61665518  0.39312495  1  -0.21548  0  -0.048629  -0.07013  0  4.33218  0
C  C54  1  0.95795495  0.39300921  0.37821327  1  -0.274328  0  -0.042909  -0.047499  0  4.337871  0
C  C55  1  0.98348468  0.53917208  0.38326816  1  -0.096327  0  -0.023403  -0.007331  0  4.252072  0
C  C56  1  0.97008245  0.46812281  0.37842914  1  -0.038121  0  -0.031181  -0.02938  0  4.253673  0
C  C57  1  0.77776015  0.10272259  0.61383130  1  0.123573  0  -0.042064  -0.093169  0  4.07523  0
C  C58  1  0.00976648  0.76637675  0.43208605  1  0.101293  0  -0.025536  0.027623  0  4.197548  0
C  C59  1  0.44127266  0.07921265  0.63570877  1  -0.353964  0  -0.020693  -0.03476  0  4.075875  0
C  C60  1  0.72086250  0.10920943  0.62939518  1  -0.330588  0  -0.045184  -0.04001  0  4.342083  0
C  C61  1  0.51287613  0.09359266  0.64240549  1  0.192169  0  -0.059695  -0.089885  0  4.334739  0
C  C62  1  0.65411893  0.11034840  0.64037099  1  0.091218  0  -0.042292  -0.050365  0  4.258275  0
C  C63  1  0.58770245  0.10410767  0.64408639  1  -0.207881  0  -0.026211  -0.000878  0  4.261174  0
C  C64  1  0.99821759  0.94656016  0.17783876  1  -0.064011  0  -0.022859  -0.050079  0  4.083939  0
C  C65  1  0.98514395  0.92032283  0.82679674  1  -0.269613  0  -0.021443  -0.038512  0  4.085509  0
C  C66  1  0.99299614  0.93421456  0.10810271  1  -0.148163  0  -0.042908  -0.058852  0  4.332071  0
C  C67  1  0.98376663  0.91913252  0.89214192  1  0.115336  0  -0.047258  -0.070326  0  4.335168  0
C  C68  1  0.98820324  0.92508735  0.03302956  1  0.169129  0  -0.029217  -0.024991  0  4.262625  0
C  C69  1  0.94843112  0.25392938  0.39247642  1  0.116206  0  -0.022466  0.035979  0  4.20386  0
C  C70  1  0.98485486  0.92069477  0.96467995  1  -0.257264  0  -0.026994  -0.015218  0  4.265407  0
C  C71  1  0.29986569  0.06293192  0.54690608  1  0.458646  0  0.006173  -0.047018  0  4.014969  0
C  C72  1  0.85966077  0.02303670  0.59918485  1  0.440928  0  0.025269  -0.025323  0  3.889668  0
C  C73  1  0.74818363  0.76401144  0.34699471  1  0.449246  0  0.024663  -0.047938  0  3.943296  0
C  C74  1  0.23621807  0.23731820  0.63102454  1  0.423935  0  0.026883  -0.044944  0  3.926915  0
C  C75  1  0.30827751  0.03656706  0.65911235  1  0.412889  0  0.008158  -0.055038  0  3.964041  0
C  C76  1  0.85518351  0.10018390  0.52502104  1  0.378296  0  0.018079  -0.035979  0  3.909033  0
C  C77  1  0.73490407  0.83593281  0.26933846  1  0.508353  0  0.103511  0.084999  0  4.087001  0
C  C78  1  0.22543646  0.17586811  0.71772960  1  0.572159  0  0.108056  0.094346  0  4.07133  0
C  C79  1  0.93960878  0.78233262  0.41475278  1  0.452414  0  0.016452  -0.040855  0  3.935823  0
C  C80  1  0.35752315  0.06172429  0.61760296  1  0.099342  0  -0.040264  0.006055  0  4.228654  0
C  C81  1  0.01633370  0.25214006  0.45117319  1  0.411663  0  0.024477  -0.035729  0  3.94641  0
C  C82  1  0.06457795  0.03256105  0.33052851  1  0.437519  0  0.113694  0.189883  0  3.917893  0
C  C83  1  0.92409661  0.88428085  0.67331949  1  0.44202  0  0.103517  0.163887  0  3.979818  0
C  C84  1  0.99957554  0.96648242  0.25553226  1  0.107911  0  -0.021169  -0.019922  0  4.154722  0
C  C85  1  0.99020782  0.92401648  0.75448298  1  0.168442  0  -0.028587  -0.033584  0  4.185731  0
C  C86  1  0.71628079  0.86534517  0.20592964  1  0.807504  0  0.171947  0.202325  0  4.067842  0
C  C87  1  0.24093599  0.15261894  0.78579574  1  0.819356  0  0.185441  0.223113  0  4.038007  0
C  C88  1  0.14955481  0.09697493  0.34883942  1  -0.015628  0  -0.15017  -0.206355  0  3.9829  0
C  C89  1  0.20118503  0.06461626  0.31461783  1  0.002989  0  -0.161977  -0.087414  0  3.947577  0
C  C90  1  0.28199221  0.13560444  0.32712835  1  -0.046626  0  -0.243224  -0.355484  0  3.985589  0
C  C91  1  0.83046396  0.08078832  0.58486471  1  0.128817  0  -0.021523  0.047272  0  4.185675  0
C  C92  1  0.83260554  0.82777393  0.64382678  1  -0.021126  0  -0.152639  -0.211746  0  3.996064  0
C  C93  1  0.81615624  0.74298521  0.64911148  1  -0.000825  0  -0.160753  -0.084329  0  3.95452  0
C  C94  1  0.72229900  0.68619598  0.61934167  1  -0.080876  0  -0.242466  -0.352444  0  3.984541  0
C  C95  1  0.71432373  0.75364089  0.26396260  1  0.119543  0  -0.007013  0.038943  0  4.152885  0
C  C96  1  0.28230215  0.24471238  0.71061001  1  0.120784  0  -0.001329  0.053308  0  4.130193  0
C  C97  1  0.59421199  0.44747511  0.95800279  1  -0.019879  0  -0.066699  -0.077339  0  3.61486  0
N  N98  1  0.95191440  0.97427822  0.35239300  1  -0.807308  0  -0.289166  -0.206914  0  3.609662  0
N  N99  1  0.89337911  0.05528478  0.50406627  1  -0.795157  0  -0.292453  -0.220191  0  3.639171  0
N  N100  1  0.78047617  0.88998891  0.34946836  1  -0.718271  0  -0.252357  -0.199332  0  3.475461  0
N  N101  1  0.15219477  0.12970711  0.64703094  1  -0.683593  0  -0.242822  -0.221683  0  3.383409  0
N  N102  1  0.96527432  0.86192586  0.45986186  1  -0.805283  0  -0.28301  -0.18762  0  3.621307  0
N  N103  1  0.99566418  0.17377047  0.44490433  1  -0.80648  0  -0.287074  -0.212085  0  3.647696  0
N  N104  1  0.03418760  0.03478328  0.38695548  1  -0.797389  0  -0.288478  -0.247644  0  3.614858  0
N  N105  1  0.95672282  0.90402899  0.62194321  1  -0.794031  0  -0.272846  -0.236668  0  3.511073  0
N  N106  1  0.70300520  0.89192739  0.15488607  1  -1.078611  0  -0.304315  -0.334267  0  2.659804  0
N  N107  1  0.25512517  0.13389618  0.84250966  1  -1.106526  0  -0.298647  -0.342633  0  2.698367  0
N  N108  1  0.04249503  0.95686715  0.66697242  1  -0.822066  0  -0.275793  -0.180107  0  3.592013  0
N  N109  1  0.05092939  0.89962539  0.50547987  1  -0.779848  0  -0.270591  -0.167172  0  3.577579  0
N  N110  1  0.91508523  0.12249784  0.38309304  1  -0.785718  0  -0.265401  -0.172269  0  3.539266  0
N  N111  1  0.22401067  0.04088782  0.54592850  1  -0.726365  0  -0.276414  -0.251922  0  3.311895  0
N  N112  1  0.89595924  0.00798628  0.54980066  1  -0.804912  0  -0.286938  -0.190384  0  3.630863  0
N  N113  1  0.78871791  0.84504374  0.39687033  1  -0.764531  0  -0.251216  -0.158654  0  3.500069  0
N  N114  1  0.16007494  0.16924423  0.59519851  1  -0.8027  0  -0.27231  -0.160978  0  3.713157  0
N  N115  1  0.22945259  0.02422077  0.61519921  1  -0.829774  0  -0.289077  -0.201579  0  3.668897  0
