# generated using pymatgen
data_CdH9C4N(ClO)2
_symmetry_space_group_name_H-M   'P 1'
_cell_length_a   8.15112521
_cell_length_b   8.15112968
_cell_length_c   14.00054749
_cell_angle_alpha   76.62855239
_cell_angle_beta   76.62855444
_cell_angle_gamma   64.43728199
_symmetry_Int_Tables_number   1
_chemical_formula_structural   CdH9C4N(ClO)2
_chemical_formula_sum   'Cd4 H36 C16 N4 Cl8 O8'
_cell_volume   807.19331073
_cell_formula_units_Z   4
loop_
 _symmetry_equiv_pos_site_id
 _symmetry_equiv_pos_as_xyz
  1  'x, y, z'
loop_
 _atom_site_type_symbol
 _atom_site_label
 _atom_site_symmetry_multiplicity
 _atom_site_fract_x
 _atom_site_fract_y
 _atom_site_fract_z
 _atom_site_occupancy
 _atom_site_hle17_bader_spin_density
 _atom_site_hle17_ddec_charge
 _atom_site_hle17_ddec_spin_density
 _atom_site_hle17_ddec_sum_bond_order
 _atom_site_hle17_magmom
 _atom_site_hse06_10hf_bader_spin_density
 _atom_site_hse06_10hf_ddec_charge
 _atom_site_hse06_10hf_ddec_spin_density
 _atom_site_hse06_10hf_ddec_sum_bond_order
 _atom_site_hse06_10hf_magmom
 _atom_site_hse06_bader_spin_density
 _atom_site_hse06_ddec_charge
 _atom_site_hse06_ddec_spin_density
 _atom_site_hse06_ddec_sum_bond_order
 _atom_site_hse06_magmom
 _atom_site_pbe_bader_spin_density
 _atom_site_pbe_cm5_charge
 _atom_site_pbe_ddec_charge
 _atom_site_pbe_ddec_spin_density
 _atom_site_pbe_ddec_sum_bond_order
 _atom_site_pbe_magmom
Cd  Cd0  1  0.00000106  0.99999877  0.49999831  1  0  1.031069  0  1.955403  0  0  0.87806  0  2.420624  0  0  0.926894  0  2.371704  0  0  0.594425  0.843374  0  2.45403  0
Cd  Cd1  1  0.00000127  1.00000000  0.00000126  1  0  1.031078  0  1.955414  0  0  0.878071  0  2.420633  0  0  0.926906  0  2.371712  0  0  0.594425  0.843383  0  2.454035  0
Cd  Cd2  1  0.97471373  0.02528603  0.25000029  1  0  1.008007  0  1.927544  0  0  0.855279  0  2.390656  0  0  0.905875  0  2.341548  0  0  0.569284  0.819398  0  2.424081  0
Cd  Cd3  1  0.02528677  0.97471297  0.74999998  1  0  1.008038  0  1.927529  0  0  0.855316  0  2.390642  0  0  0.905908  0  2.34153  0  0  0.569291  0.819435  0  2.424067  0
H  H4  1  0.34848153  0.38108366  0.57609175  1  0  0.10656  0  0.943257  0  0  0.120217  0  1.006555  0  0  0.122686  0  1.005407  0  0  0.089856  0.118409  0  1.007525  0
H  H5  1  0.61891714  0.65151911  0.92390798  1  0  0.106559  0  0.943265  0  0  0.120216  0  1.006562  0  0  0.122683  0  1.005415  0  0  0.089854  0.118406  0  1.007531  0
H  H6  1  0.65151699  0.61891397  0.42390825  1  0  0.106548  0  0.943234  0  0  0.120208  0  1.006529  0  0  0.122676  0  1.00538  0  0  0.089848  0.118399  0  1.007501  0
H  H7  1  0.38108732  0.34848261  0.07609138  1  0  0.106535  0  0.943247  0  0  0.120185  0  1.006556  0  0  0.122655  0  1.005407  0  0  0.08984  0.118375  0  1.007528  0
H  H8  1  0.49034337  0.19098912  0.51613501  1  0  0.110175  0  0.933679  0  0  0.124071  0  0.997185  0  0  0.12595  0  0.997052  0  0  0.092924  0.122709  0  0.997375  0
H  H9  1  0.80901111  0.50965684  0.98386559  1  0  0.110177  0  0.933688  0  0  0.124073  0  0.997194  0  0  0.125952  0  0.997062  0  0  0.09292  0.12271  0  0.997382  0
H  H10  1  0.50965207  0.80900990  0.48386523  1  0  0.110136  0  0.93369  0  0  0.124044  0  0.997185  0  0  0.125924  0  0.997051  0  0  0.092915  0.122682  0  0.997374  0
H  H11  1  0.19099101  0.49034765  0.01613514  1  0  0.110134  0  0.933691  0  0  0.12404  0  0.997185  0  0  0.12592  0  0.997052  0  0  0.092913  0.122678  0  0.997373  0
H  H12  1  0.19243203  0.54449804  0.42612934  1  0  0.079851  0  0.945508  0  0  0.095744  0  1.007769  0  0  0.096462  0  1.008707  0  0  0.087558  0.095146  0  1.007234  0
H  H13  1  0.45550215  0.80756876  0.07387027  1  0  0.07985  0  0.94554  0  0  0.095756  0  1.007774  0  0  0.096474  0  1.00871  0  0  0.087553  0.095158  0  1.007239  0
H  H14  1  0.80756721  0.45550097  0.57387110  1  0  0.079841  0  0.945515  0  0  0.095725  0  1.007769  0  0  0.096441  0  1.008709  0  0  0.087555  0.095128  0  1.007232  0
H  H15  1  0.54449671  0.19243436  0.92612895  1  0  0.07989  0  0.945497  0  0  0.095746  0  1.00778  0  0  0.096463  0  1.008721  0  0  0.08756  0.095148  0  1.007244  0
H  H16  1  0.42770845  0.49054998  0.40630683  1  0  0.082943  0  0.948128  0  0  0.097033  0  1.013297  0  0  0.098164  0  1.013242  0  0  0.084944  0.096131  0  1.013514  0
H  H17  1  0.50944834  0.57229453  0.09369274  1  0  0.082936  0  0.948123  0  0  0.097014  0  1.013297  0  0  0.098143  0  1.013242  0  0  0.08494  0.096112  0  1.013515  0
H  H18  1  0.57229133  0.50944765  0.59369372  1  0  0.082973  0  0.948184  0  0  0.097059  0  1.013338  0  0  0.098189  0  1.013284  0  0  0.084963  0.096157  0  1.013556  0
H  H19  1  0.49055178  0.42770858  0.90630559  1  0  0.082995  0  0.948173  0  0  0.097086  0  1.013319  0  0  0.098217  0  1.013264  0  0  0.084977  0.096184  0  1.013536  0
H  H20  1  0.43670577  0.18700016  0.34452707  1  0  0.075842  0  0.914659  0  0  0.091177  0  0.977355  0  0  0.091941  0  0.977517  0  0  0.104676  0.090475  0  0.977476  0
H  H21  1  0.81299588  0.56329629  0.15547367  1  0  0.075818  0  0.914698  0  0  0.091209  0  0.977348  0  0  0.091974  0  0.977506  0  0  0.104684  0.090506  0  0.977468  0
H  H22  1  0.56329599  0.81299883  0.65547231  1  0  0.075833  0  0.914698  0  0  0.091208  0  0.977346  0  0  0.091972  0  0.977507  0  0  0.104674  0.090505  0  0.977468  0
H  H23  1  0.18700155  0.43670409  0.84452682  1  0  0.075793  0  0.914733  0  0  0.09117  0  0.977386  0  0  0.091934  0  0.977547  0  0  0.104661  0.090467  0  0.977507  0
H  H24  1  0.42619156  0.39303695  0.26465161  1  0  0.066346  0  0.939604  0  0  0.079599  0  1.007463  0  0  0.080305  0  1.007406  0  0  0.099224  0.07897  0  1.007694  0
H  H25  1  0.60696153  0.57381070  0.23534805  1  0  0.066293  0  0.93965  0  0  0.079582  0  1.007494  0  0  0.080285  0  1.007442  0  0  0.099231  0.078953  0  1.007724  0
H  H26  1  0.57380839  0.60696342  0.73534783  1  0  0.066359  0  0.939599  0  0  0.079605  0  1.007456  0  0  0.080309  0  1.007401  0  0  0.099228  0.078976  0  1.007687  0
H  H27  1  0.39303481  0.42619244  0.76465151  1  0  0.066303  0  0.939648  0  0  0.079604  0  1.007452  0  0  0.080308  0  1.007398  0  0  0.099236  0.078975  0  1.007684  0
H  H28  1  0.18479848  0.29439798  0.25018738  1  0  0.333573  0  0.884874  0  0  0.311862  0  0.950696  0  0  0.320551  0  0.94367  0  0  0.299062  0.305676  0  0.955714  0
H  H29  1  0.70560049  0.81520297  0.24981238  1  0  0.333471  0  0.885009  0  0  0.311812  0  0.950756  0  0  0.320501  0  0.943731  0  0  0.299047  0.305626  0  0.955772  0
H  H30  1  0.81520454  0.70560101  0.74981183  1  0  0.333482  0  0.885005  0  0  0.31178  0  0.950798  0  0  0.320468  0  0.943778  0  0  0.299034  0.305593  0  0.955814  0
H  H31  1  0.29439930  0.18479466  0.75018817  1  0  0.333459  0  0.885031  0  0  0.311755  0  0.950828  0  0  0.320443  0  0.943808  0  0  0.29902  0.305568  0  0.955845  0
H  H32  1  0.10295322  0.31936332  0.37154172  1  0  0.330559  0  0.887196  0  0  0.307985  0  0.954709  0  0  0.316112  0  0.948148  0  0  0.298874  0.302176  0  0.959445  0
H  H33  1  0.68063511  0.89704779  0.12845881  1  0  0.330538  0  0.887214  0  0  0.307956  0  0.95474  0  0  0.316085  0  0.948177  0  0  0.298863  0.302146  0  0.959482  0
H  H34  1  0.89704656  0.68063431  0.62845811  1  0  0.330551  0  0.887232  0  0  0.307972  0  0.954749  0  0  0.316099  0  0.948189  0  0  0.298876  0.302163  0  0.959487  0
H  H35  1  0.31936611  0.10295258  0.87154189  1  0  0.330551  0  0.887227  0  0  0.307974  0  0.95474  0  0  0.316101  0  0.948181  0  0  0.298878  0.302165  0  0.959476  0
H  H36  1  0.10327653  0.50199626  0.28297424  1  0  0.320971  0  0.861608  0  0  0.306893  0  0.917357  0  0  0.313676  0  0.91236  0  0  0.298743  0.30201  0  0.921089  0
H  H37  1  0.49800198  0.89672491  0.21702554  1  0  0.320975  0  0.861599  0  0  0.306894  0  0.917352  0  0  0.313676  0  0.912357  0  0  0.298727  0.302011  0  0.921084  0
H  H38  1  0.89672397  0.49800274  0.71702531  1  0  0.32098  0  0.861597  0  0  0.306893  0  0.917357  0  0  0.313676  0  0.912361  0  0  0.298724  0.30201  0  0.92109  0
H  H39  1  0.50199743  0.10327684  0.78297450  1  0  0.320969  0  0.861605  0  0  0.306884  0  0.917363  0  0  0.313666  0  0.912367  0  0  0.298723  0.302001  0  0.921095  0
C  C40  1  0.21616221  0.21332251  0.56285723  1  0  0.723368  0  3.803611  0  0  0.673253  0  4.103734  0  0  0.708226  0  4.09549  0  0  0.210275  0.649466  0  4.108474  0
C  C41  1  0.78667907  0.78383503  0.93713786  1  0  0.723517  0  3.803497  0  0  0.673343  0  4.103686  0  0  0.708315  0  4.095439  0  0  0.210285  0.649554  0  4.108425  0
C  C42  1  0.78383522  0.78667788  0.43714255  1  0  0.723369  0  3.80372  0  0  0.673283  0  4.1038  0  0  0.708235  0  4.095587  0  0  0.210291  0.649492  0  4.108542  0
C  C43  1  0.21332089  0.21616534  0.06286229  1  0  0.723463  0  3.803611  0  0  0.673347  0  4.10372  0  0  0.708299  0  4.09551  0  0  0.210301  0.649554  0  4.108461  0
C  C44  1  0.35181761  0.30313990  0.52072312  1  0  -0.272751  0  3.676476  0  0  -0.310405  0  3.926263  0  0  -0.316722  0  3.934671  0  0  -0.174315  -0.30602  0  3.920438  0
C  C45  1  0.69685971  0.64818256  0.97927684  1  0  -0.272789  0  3.676482  0  0  -0.310435  0  3.926282  0  0  -0.316753  0  3.93469  0  0  -0.174302  -0.306044  0  3.920446  0
C  C46  1  0.64818163  0.69685911  0.47927803  1  0  -0.272721  0  3.676476  0  0  -0.310404  0  3.926259  0  0  -0.316714  0  3.93467  0  0  -0.174334  -0.306022  0  3.920437  0
C  C47  1  0.30313971  0.35181919  0.02072248  1  0  -0.272704  0  3.67648  0  0  -0.310357  0  3.926247  0  0  -0.316669  0  3.934661  0  0  -0.174294  -0.305972  0  3.920418  0
C  C48  1  0.32746207  0.42821898  0.42074929  1  0  -0.118792  0  3.666345  0  0  -0.156837  0  3.921077  0  0  -0.157794  0  3.934534  0  0  -0.17318  -0.156025  0  3.911831  0
C  C49  1  0.57177997  0.67253962  0.07924966  1  0  -0.118809  0  3.666361  0  0  -0.156836  0  3.921085  0  0  -0.157784  0  3.93453  0  0  -0.173171  -0.156026  0  3.911835  0
C  C50  1  0.67253772  0.57177865  0.57925198  1  0  -0.118781  0  3.666383  0  0  -0.156805  0  3.921071  0  0  -0.15776  0  3.934526  0  0  -0.173177  -0.155992  0  3.911826  0
C  C51  1  0.42822016  0.32746350  0.92074795  1  0  -0.118869  0  3.666445  0  0  -0.156886  0  3.921156  0  0  -0.157841  0  3.934609  0  0  -0.173213  -0.156073  0  3.911907  0
C  C52  1  0.35555243  0.33583099  0.33119916  1  0  0.083568  0  3.524485  0  0  0.020624  0  3.793901  0  0  0.025151  0  3.803356  0  0  -0.06566  0.017631  0  3.787494  0
C  C53  1  0.66416899  0.64444913  0.16880110  1  0  0.083693  0  3.524368  0  0  0.020644  0  3.793854  0  0  0.025171  0  3.803306  0  0  -0.065666  0.017655  0  3.787441  0
C  C54  1  0.64444934  0.66416800  0.66880165  1  0  0.08351  0  3.524554  0  0  0.020545  0  3.793928  0  0  0.025071  0  3.803386  0  0  -0.06569  0.017551  0  3.787523  0
C  C55  1  0.33582862  0.35555401  0.83119899  1  0  0.083649  0  3.524465  0  0  0.020632  0  3.793878  0  0  0.025158  0  3.803338  0  0  -0.065662  0.017638  0  3.787473  0
N  N56  1  0.17501346  0.36400423  0.30707292  1  0  -0.505373  0  3.230731  0  0  -0.458629  0  3.439566  0  0  -0.473271  0  3.435644  0  0  -0.620641  -0.448563  0  3.442541  0
N  N57  1  0.63599623  0.82498884  0.19292717  1  0  -0.505277  0  3.230693  0  0  -0.458564  0  3.439535  0  0  -0.473205  0  3.435611  0  0  -0.620606  -0.448505  0  3.442525  0
N  N58  1  0.82498776  0.63599613  0.69292564  1  0  -0.505266  0  3.230836  0  0  -0.458516  0  3.439657  0  0  -0.473161  0  3.435739  0  0  -0.620587  -0.448452  0  3.442636  0
N  N59  1  0.36400373  0.17501154  0.80707370  1  0  -0.505254  0  3.230744  0  0  -0.458499  0  3.439579  0  0  -0.473145  0  3.435662  0  0  -0.620588  -0.448434  0  3.442557  0
Cl  Cl60  1  0.25803497  0.89548523  0.34471143  1  0  -0.563528  0  1.012047  0  0  -0.504164  0  1.297262  0  0  -0.523279  0  1.275797  0  0  -0.280899  -0.490486  0  1.31178  0
Cl  Cl61  1  0.10451391  0.74196541  0.15528907  1  0  -0.563524  0  1.012039  0  0  -0.504165  0  1.297256  0  0  -0.52328  0  1.275792  0  0  -0.2809  -0.490488  0  1.311773  0
Cl  Cl62  1  0.74196536  0.10451102  0.65528995  1  0  -0.563562  0  1.012025  0  0  -0.5042  0  1.297237  0  0  -0.523309  0  1.275758  0  0  -0.280919  -0.490523  0  1.311754  0
Cl  Cl63  1  0.89548857  0.25803495  0.84471002  1  0  -0.563551  0  1.012012  0  0  -0.50419  0  1.297224  0  0  -0.5233  0  1.275744  0  0  -0.28092  -0.490515  0  1.311741  0
Cl  Cl64  1  0.19465639  0.73710717  0.62633086  1  0  -0.541649  0  1.006665  0  0  -0.471578  0  1.284581  0  0  -0.491855  0  1.263808  0  0  -0.271214  -0.457078  0  1.298502  0
Cl  Cl65  1  0.26289241  0.80534477  0.87366823  1  0  -0.541651  0  1.00666  0  0  -0.471576  0  1.284579  0  0  -0.491852  0  1.263802  0  0  -0.271225  -0.457079  0  1.298504  0
Cl  Cl66  1  0.80534394  0.26288909  0.37367052  1  0  -0.541633  0  1.006709  0  0  -0.471551  0  1.284606  0  0  -0.491827  0  1.263835  0  0  -0.271198  -0.457049  0  1.298524  0
Cl  Cl67  1  0.73711079  0.19465696  0.12632916  1  0  -0.541643  0  1.006712  0  0  -0.471561  0  1.284609  0  0  -0.491841  0  1.263847  0  0  -0.271207  -0.457058  0  1.298526  0
O  O68  1  0.11871209  0.20937355  0.50467208  1  0  -0.662596  0  2.08663  0  0  -0.587684  0  2.337433  0  0  -0.617345  0  2.327424  0  0  -0.329938  -0.566885  0  2.343457  0
O  O69  1  0.79062801  0.88128581  0.99532649  1  0  -0.662737  0  2.086515  0  0  -0.587771  0  2.337296  0  0  -0.617447  0  2.327308  0  0  -0.32998  -0.566968  0  2.343316  0
O  O70  1  0.88129493  0.79061856  0.49533180  1  0  -0.662622  0  2.086509  0  0  -0.587725  0  2.337314  0  0  -0.617374  0  2.327301  0  0  -0.329924  -0.566913  0  2.343329  0
O  O71  1  0.20938026  0.11870628  0.00466938  1  0  -0.662689  0  2.086344  0  0  -0.587797  0  2.337195  0  0  -0.617436  0  2.327155  0  0  -0.329953  -0.566981  0  2.343206  0
O  O72  1  0.79133594  0.85586672  0.34539028  1  0  -0.668573  0  2.052587  0  0  -0.605834  0  2.305037  0  0  -0.635347  0  2.295446  0  0  -0.332143  -0.585134  0  2.310825  0
O  O73  1  0.14413275  0.20866325  0.15461108  1  0  -0.668595  0  2.052664  0  0  -0.605832  0  2.305136  0  0  -0.63534  0  2.295537  0  0  -0.332133  -0.585133  0  2.310925  0
O  O74  1  0.20865337  0.14413508  0.65461327  1  0  -0.668582  0  2.052338  0  0  -0.60582  0  2.30482  0  0  -0.635333  0  2.295204  0  0  -0.332137  -0.585115  0  2.310601  0
O  O75  1  0.85586773  0.79134536  0.84538717  1  0  -0.668577  0  2.05244  0  0  -0.605807  0  2.30496  0  0  -0.63531  0  2.295327  0  0  -0.332106  -0.585103  0  2.310739  0
