# generated using pymatgen
data_Zn2H24C27N2O9
_symmetry_space_group_name_H-M   'P 1'
_cell_length_a   9.72546362
_cell_length_b   10.95948265
_cell_length_c   11.10065274
_cell_angle_alpha   88.99920027
_cell_angle_beta   90.28037424
_cell_angle_gamma   89.28611685
_symmetry_Int_Tables_number   1
_chemical_formula_structural   Zn2H24C27N2O9
_chemical_formula_sum   'Zn2 H24 C27 N2 O9'
_cell_volume   1182.88695256
_cell_formula_units_Z   1
loop_
 _symmetry_equiv_pos_site_id
 _symmetry_equiv_pos_as_xyz
  1  'x, y, z'
loop_
 _atom_site_type_symbol
 _atom_site_label
 _atom_site_symmetry_multiplicity
 _atom_site_fract_x
 _atom_site_fract_y
 _atom_site_fract_z
 _atom_site_occupancy
 _atom_site_pbe_bader_charge
 _atom_site_pbe_bader_spin_density
 _atom_site_pbe_cm5_charge
 _atom_site_pbe_ddec_charge
 _atom_site_pbe_ddec_spin_density
 _atom_site_pbe_ddec_sum_bond_order
 _atom_site_pbe_magmom
Zn  Zn0  1  0.36267979  0.50311818  0.50480609  1  1.270616  0  0.661454  0.805357  0  2.461276  0
Zn  Zn1  1  0.64499989  0.49781800  0.50579370  1  1.269779  0  0.660699  0.806346  0  2.428068  0
H  H2  1  0.53000876  0.89604633  0.30768739  1  0.036572  0  0.092611  0.090086  0  0.973904  0
H  H3  1  0.87859197  0.34130849  0.61656732  1  0.148804  0  0.138501  0.122332  0  0.967348  0
H  H4  1  0.68229080  0.89856908  0.39436762  1  0.016031  0  0.0878  0.0806  0  1.012717  0
H  H5  1  0.13875296  0.34339622  0.61484584  1  0.146832  0  0.136298  0.119074  0  0.972448  0
H  H6  1  0.12489785  0.77661225  0.42003150  1  0.090004  0  0.110262  0.132911  0  0.996284  0
H  H7  1  0.12844056  0.68748279  0.28702184  1  0.087609  0  0.109027  0.127557  0  1.002611  0
H  H8  1  0.86383824  0.77281628  0.41852422  1  0.085356  0  0.108796  0.130513  0  0.992853  0
H  H9  1  0.86643997  0.68299084  0.28589785  1  0.089561  0  0.115704  0.140802  0  0.9594  0
H  H10  1  0.67273885  0.11268903  0.38264592  1  0.045275  0  0.092244  0.093185  0  0.989255  0
H  H11  1  0.51113792  0.10858038  0.30974397  1  0.037101  0  0.095292  0.095684  0  0.968042  0
H  H12  1  0.29991492  0.90508124  0.41299456  1  0.02507  0  0.087591  0.082031  0  0.998708  0
H  H13  1  0.29070485  0.89202040  0.57117255  1  0.025681  0  0.087252  0.084173  0  0.994212  0
H  H14  1  0.29456053  0.11698845  0.42968508  1  0.035031  0  0.090919  0.093224  0  0.981619  0
H  H15  1  0.50624595  0.89728667  0.69440102  1  0.015709  0  0.09285  0.088546  0  0.980856  0
H  H16  1  0.66945464  0.88158655  0.62684250  1  0.065533  0  0.097146  0.103852  0  0.981007  0
H  H17  1  0.69160919  0.09294206  0.59937998  1  0.037135  0  0.103195  0.087783  0  0.968765  0
H  H18  1  0.42916142  0.10069638  0.75564486  1  0.032354  0  0.094705  0.018319  0  0.961486  0
H  H19  1  0.29811488  0.10467806  0.58714848  1  0.011558  0  0.083862  0.075172  0  1.011287  0
H  H20  1  0.71485417  0.43202454  0.11992817  1  0.08658  0  0.099755  0.104853  0  1.003798  0
H  H21  1  0.71481787  0.42753941  0.89607906  1  0.097654  0  0.102515  0.109111  0  0.9984  0
H  H22  1  0.22828914  0.65952702  0.88359928  1  0.051367  0  0.092614  0.100795  0  0.986282  0
H  H23  1  0.17067336  0.50574049  0.88934751  1  0.064304  0  0.092337  0.100663  0  0.990017  0
H  H24  1  0.22980287  0.66527970  0.10920821  1  0.043171  0  0.089878  0.092251  0  1.003909  0
H  H25  1  0.16952779  0.51178281  0.11657623  1  0.02069  0  0.092867  0.101984  0  0.987154  0
C  C26  1  0.50579851  0.49956665  0.26905664  1  1.529232  0  0.21114  0.593821  0  4.183912  0
C  C27  1  0.39000724  0.52538905  0.94039219  1  0.000325  0  -0.008666  0.055597  0  3.896064  0
C  C28  1  0.24238720  0.57046268  0.92938236  1  -0.093574  0  -0.153863  -0.195923  0  3.894543  0
C  C29  1  0.49943690  0.74160899  0.50134131  1  1.564932  0  0.220795  0.585819  0  4.104358  0
C  C30  1  0.24218325  0.57351009  0.07182634  1  0.023763  0  -0.154692  -0.197387  0  3.895775  0
C  C31  1  0.92930897  0.58238753  0.45133144  1  0.543661  0  0.147863  0.198601  0  3.86263  0
C  C32  1  0.93461230  0.41206344  0.56797910  1  0.537508  0  0.068347  0.04515  0  3.864246  0
C  C33  1  0.07814742  0.41349031  0.56742433  1  0.409243  0  0.066399  0.042644  0  3.873278  0
C  C34  1  0.07262955  0.58419413  0.45138402  1  0.631242  0  0.147596  0.199784  0  3.859891  0
C  C35  1  0.07879845  0.69900438  0.37459842  1  -0.051437  0  -0.139324  -0.22898  0  3.820456  0
C  C36  1  0.91524342  0.69648257  0.37389900  1  -0.027155  0  -0.137427  -0.227107  0  3.819207  0
C  C37  1  0.49901598  0.12062388  0.50350998  1  0.083232  0  -0.011767  0.00944  0  3.776476  0
C  C38  1  0.50651253  0.49404536  0.74088207  1  1.482031  0  0.213998  0.598225  0  4.175595  0
C  C39  1  0.50390752  0.26016885  0.50498616  1  1.527605  0  0.217709  0.582683  0  4.118112  0
C  C40  1  0.57551536  0.93223296  0.39043200  1  -0.027534  0  -0.157075  -0.169307  0  3.85952  0
C  C41  1  0.56947688  0.07371312  0.38852715  1  -0.051242  0  -0.156897  -0.172256  0  3.855816  0
C  C42  1  0.34959522  0.93325333  0.49703805  1  -0.023147  0  -0.166833  -0.182479  0  3.900257  0
C  C43  1  0.56822573  0.92591873  0.61606730  1  -0.054643  0  -0.150764  -0.1938  0  3.829953  0
C  C44  1  0.49712067  0.88154138  0.50068551  1  0.034389  0  -0.017557  0.030341  0  3.801084  0
C  C45  1  0.53926050  0.11777834  0.73137666  1  0.955738  0  0.102668  0.313787  0  3.925698  0
C  C46  1  0.35067280  0.07383773  0.50557618  1  -0.039485  0  -0.168313  -0.182868  0  3.902191  0
C  C47  1  0.58381072  0.06709689  0.61221835  1  -0.000455  0  -0.086321  -0.097729  0  3.823226  0
C  C48  1  0.38963752  0.52723358  0.06608274  1  -0.068836  0  -0.009888  0.054911  0  3.895818  0
C  C49  1  0.50531422  0.49547414  0.13483715  1  0.081313  0  -0.017105  -0.075831  0  3.983522  0
C  C50  1  0.62276824  0.45946162  0.06942567  1  -0.021053  0  -0.089657  -0.109473  0  3.995798  0
C  C51  1  0.62302135  0.45732344  0.94377748  1  -0.078969  0  -0.084278  -0.093136  0  3.983154  0
C  C52  1  0.50593826  0.49168082  0.87509441  1  0.044716  0  -0.014277  -0.069055  0  3.968168  0
N  N53  1  0.85683296  0.49787273  0.50846034  1  -1.233189  0  -0.286017  -0.172754  0  3.461481  0
N  N54  1  0.15053513  0.50093017  0.50791607  1  -1.208586  0  -0.285744  -0.175518  0  3.461029  0
O  O55  1  0.38865247  0.50205276  0.32031394  1  -1.15973  0  -0.318472  -0.544099  0  2.299491  0
O  O56  1  0.62234880  0.50085027  0.32224398  1  -1.160803  0  -0.321112  -0.550393  0  2.322652  0
O  O57  1  0.38370743  0.68880601  0.49840593  1  -1.172236  0  -0.315047  -0.542257  0  2.35363  0
O  O58  1  0.61652216  0.68835099  0.50533163  1  -1.170664  0  -0.317367  -0.554631  0  2.308684  0
O  O59  1  0.38938570  0.50289692  0.68881667  1  -1.160394  0  -0.319717  -0.549811  0  2.30983  0
O  O60  1  0.62259705  0.48903637  0.68820836  1  -1.160221  0  -0.319571  -0.547823  0  2.32649  0
O  O61  1  0.38921959  0.31709194  0.51004761  1  -1.161779  0  -0.317379  -0.550791  0  2.358006  0
O  O62  1  0.62189878  0.30858098  0.50157683  1  -1.166992  0  -0.317681  -0.549303  0  2.315432  0
O  O63  1  0.61404002  0.17105331  0.80106438  1  -1.092184  0  -0.269879  -0.3653  0  2.106907  0
