# generated using pymatgen
data_MnP2H25C25O9
_symmetry_space_group_name_H-M   'P 1'
_cell_length_a   8.04859839
_cell_length_b   12.49540930
_cell_length_c   26.93829949
_cell_angle_alpha   90.00006664
_cell_angle_beta   89.99976324
_cell_angle_gamma   90.00008528
_symmetry_Int_Tables_number   1
_chemical_formula_structural   MnP2H25C25O9
_chemical_formula_sum   'Mn4 P8 H100 C100 O36'
_cell_volume   2709.19908972
_cell_formula_units_Z   4
loop_
 _symmetry_equiv_pos_site_id
 _symmetry_equiv_pos_as_xyz
  1  'x, y, z'
loop_
 _atom_site_type_symbol
 _atom_site_label
 _atom_site_symmetry_multiplicity
 _atom_site_fract_x
 _atom_site_fract_y
 _atom_site_fract_z
 _atom_site_occupancy
 _atom_site_pbe_bader_charge
 _atom_site_pbe_bader_spin_density
 _atom_site_pbe_cm5_charge
 _atom_site_pbe_ddec_charge
 _atom_site_pbe_ddec_spin_density
 _atom_site_pbe_ddec_sum_bond_order
 _atom_site_pbe_magmom
Mn  Mn0  1  0.37768449  0.25371019  0.03035921  1  1.722222  3.647511  0.807978  1.304524  3.762178  2.738309  3.605
Mn  Mn1  1  0.12231667  0.74629001  0.53035877  1  1.722277  3.647565  0.807967  1.304562  3.762236  2.738193  3.605
Mn  Mn2  1  0.62231720  0.75371529  0.46964119  1  1.722106  3.647543  0.807974  1.304533  3.76221  2.738256  3.605
Mn  Mn3  1  0.87768805  0.24628968  0.96964128  1  1.722168  3.647519  0.808012  1.304577  3.762162  2.738177  3.605
P  P4  1  0.60921420  0.43397049  0.96904643  1  3.384502  0.007794  0.40153  1.317563  0.010504  5.253981  0.005
P  P5  1  0.49161790  0.62693998  0.55908898  1  3.352163  0.010103  0.38616  1.253636  0.018739  5.300778  0.01
P  P6  1  0.89079105  0.56603289  0.46904591  1  3.384475  0.007794  0.401552  1.31759  0.010502  5.253885  0.005
P  P7  1  0.00838411  0.37306349  0.05908994  1  3.352313  0.0101  0.38604  1.253449  0.018736  5.301183  0.01
P  P8  1  0.39079096  0.93397426  0.53095372  1  3.384899  0.00779  0.401566  1.317679  0.010505  5.254002  0.005
P  P9  1  0.50838281  0.12694084  0.94091175  1  3.351823  0.010103  0.386118  1.253517  0.018739  5.300866  0.01
P  P10  1  0.10920894  0.06602914  0.03095365  1  3.384573  0.007795  0.401507  1.317606  0.010506  5.25398  0.005
P  P11  1  0.99162159  0.87306085  0.44091090  1  3.352077  0.010103  0.386092  1.253614  0.018739  5.300936  0.01
H  H12  1  0.11353005  0.89307960  0.91638207  1  0.065737  6.2e-05  0.091851  0.134429  2.6e-05  0.999184  0.0
H  H13  1  0.04700572  0.02568340  0.90393491  1  0.07897  0.000487  0.100829  0.150842  7.2e-05  1.002141  0.0
H  H14  1  0.93843919  0.91528889  0.87735571  1  0.002765  6.2e-05  0.084303  0.111601  2.7e-05  1.022343  0.0
H  H15  1  0.88925375  0.84338550  0.75438174  1  0.040667  -2.8e-05  0.091885  0.133539  -6e-05  0.994031  0.0
H  H16  1  0.68671145  0.82249297  0.77919894  1  0.026502  -2e-06  0.085812  0.120891  -2e-06  1.043023  0.0
H  H17  1  0.86618341  0.78842539  0.81495201  1  0.043962  3e-06  0.089539  0.126244  5e-06  1.015727  0.0
H  H18  1  0.34582842  0.20915716  0.14384745  1  0.056089  0.003358  0.088336  0.084859  0.001729  1.034252  0.002
H  H19  1  0.55620162  0.23746447  0.15945559  1  0.041785  -0.009  0.093975  0.095989  -0.008745  0.995028  -0.006
H  H20  1  0.41785353  0.34475579  0.14510884  1  0.040818  0.007479  0.086141  0.078934  0.004476  1.038601  0.004
H  H21  1  0.53002155  0.67957327  0.82837434  1  0.064931  -1.9e-05  0.096826  0.095956  -1.5e-05  1.04548  0.0
H  H22  1  0.76288771  0.67929313  0.71700451  1  0.055644  -0.00011  0.102896  0.068157  -0.000189  0.998945  0.0
H  H23  1  0.99405936  0.43776877  0.89538564  1  0.1251  0.000425  0.108536  0.117178  3e-05  1.035406  0.0
H  H24  1  0.50433138  0.93741578  0.69033045  1  0.076089  3e-06  0.097917  0.099788  -4e-06  1.052023  0.0
H  H25  1  0.28981255  0.52015928  0.72429958  1  0.076111  -4e-06  0.101432  0.102713  -7e-06  1.025415  0.0
H  H26  1  0.72785753  0.62484440  0.77695559  1  0.039671  -4e-06  0.092569  0.048248  3e-06  1.032014  0.0
H  H27  1  0.69019048  0.59701671  0.89662055  1  0.085843  1.2e-05  0.104168  0.105645  -3.8e-05  1.002352  0.0
H  H28  1  0.37878262  0.48276948  0.63859180  1  0.081453  3.9e-05  0.102779  0.096719  -4.3e-05  1.008827  0.0
H  H29  1  0.84210802  0.50555510  0.82215953  1  0.075273  4.3e-05  0.10084  0.111753  2.7e-05  1.036998  0.0
H  H30  1  0.55277242  0.80792336  0.62297424  1  0.089543  0.000268  0.105201  0.105543  -6.3e-05  1.041596  0.0
H  H31  1  0.11742225  0.99319944  0.81187364  1  0.055961  5.9e-05  0.098349  0.061694  5.1e-05  1.007872  0.0
H  H32  1  0.29369116  0.98965027  0.85233191  1  0.05938  2.8e-05  0.092054  0.054925  -2.4e-05  1.022911  0.0
H  H33  1  0.25919691  0.41420543  0.94070038  1  0.124193  -0.000128  0.114241  0.123571  -0.000612  1.014929  0.0
H  H34  1  0.37043304  0.98335589  0.76984002  1  0.091313  4e-06  0.101296  0.104249  -3e-06  1.066033  0.0
H  H35  1  0.44898434  0.46133592  0.53745285  1  0.626078  0.000177  0.365218  0.42315  -1.2e-05  0.819483  0.0
H  H36  1  0.78721707  0.51918226  0.01720267  1  0.663646  6.8e-05  0.317495  0.390695  -4.1e-05  0.942381  0.0
H  H37  1  0.38646455  0.10692157  0.41638093  1  0.065726  6.2e-05  0.091879  0.134464  2.6e-05  0.999185  0.0
H  H38  1  0.45298781  0.97431534  0.40393491  1  0.078746  0.000487  0.100807  0.150756  7.2e-05  1.002181  0.0
H  H39  1  0.56155987  0.08470785  0.37735534  1  0.002838  6.2e-05  0.08431  0.111614  2.7e-05  1.022375  0.0
H  H40  1  0.61075322  0.15660932  0.25438395  1  0.040976  -2.8e-05  0.091879  0.13355  -6e-05  0.993993  0.0
H  H41  1  0.81329393  0.17750352  0.27919980  1  0.026288  -2e-06  0.085828  0.120905  -2e-06  1.043111  0.0
H  H42  1  0.63382397  0.21157199  0.31495199  1  0.043933  3e-06  0.089568  0.126239  5e-06  1.01575  0.0
H  H43  1  0.15417863  0.79084813  0.64384699  1  0.055965  0.003359  0.088333  0.084854  0.001729  1.034228  0.002
H  H44  1  0.94380666  0.76254132  0.65945773  1  0.041768  -0.009006  0.094039  0.096099  -0.008749  0.995022  -0.006
H  H45  1  0.08215474  0.65524710  0.64510952  1  0.040876  0.007479  0.086115  0.078951  0.004477  1.038511  0.004
H  H46  1  0.96997446  0.32043535  0.32837322  1  0.064982  -1.9e-05  0.096838  0.095954  -1.5e-05  1.045457  0.0
H  H47  1  0.73712102  0.32070000  0.21700405  1  0.055622  -0.000109  0.102923  0.068199  -0.000189  0.998897  0.0
H  H48  1  0.50594318  0.56222882  0.39538337  1  0.125151  0.000425  0.1085  0.117119  3.1e-05  1.035521  0.0
H  H49  1  0.99566156  0.06258449  0.19032879  1  0.076038  3e-06  0.09792  0.099789  -4e-06  1.051965  0.0
H  H50  1  0.21018469  0.47984301  0.22430072  1  0.076096  -4e-06  0.101432  0.102677  -7e-06  1.02538  0.0
H  H51  1  0.77214167  0.37515128  0.27695549  1  0.039725  -4e-06  0.092571  0.048305  3e-06  1.032055  0.0
H  H52  1  0.80980955  0.40299048  0.39662078  1  0.085603  1.2e-05  0.104147  0.105636  -3.8e-05  1.002369  0.0
H  H53  1  0.12121083  0.51723259  0.13859270  1  0.081421  3.9e-05  0.102787  0.096694  -4.3e-05  1.00882  0.0
H  H54  1  0.65789304  0.49444310  0.32215592  1  0.07515  4.3e-05  0.100875  0.111847  2.7e-05  1.037031  0.0
H  H55  1  0.94723139  0.19207754  0.12297382  1  0.089562  0.000268  0.105171  0.105452  -6.3e-05  1.041733  0.0
H  H56  1  0.38257379  0.00679827  0.31187283  1  0.05591  5.9e-05  0.098338  0.061643  5.1e-05  1.007879  0.0
H  H57  1  0.20630556  0.01035074  0.35233132  1  0.05933  2.8e-05  0.09206  0.054914  -2.4e-05  1.022882  0.0
H  H58  1  0.24081350  0.58579501  0.44069932  1  0.124066  -0.000128  0.114269  0.123538  -0.000612  1.014943  0.0
H  H59  1  0.12956233  0.01664411  0.26983730  1  0.091626  4e-06  0.101354  0.104319  -3e-06  1.066068  0.0
H  H60  1  0.05102542  0.53866430  0.03745125  1  0.625999  0.000177  0.365191  0.42305  -1.2e-05  0.819641  0.0
H  H61  1  0.71278695  0.48082317  0.51720308  1  0.663669  6.8e-05  0.317461  0.390692  -4.1e-05  0.942411  0.0
H  H62  1  0.88646508  0.39307991  0.58361732  1  0.065694  6.2e-05  0.091852  0.134445  2.6e-05  0.99918  0.0
H  H63  1  0.95298481  0.52568626  0.59606464  1  0.078658  0.000487  0.100833  0.15085  7.2e-05  1.002142  0.0
H  H64  1  0.06155599  0.41529413  0.62264294  1  0.002874  6.2e-05  0.084309  0.111584  2.7e-05  1.022421  0.0
H  H65  1  0.11074872  0.34339031  0.74561316  1  0.040989  -2.8e-05  0.091867  0.133531  -6e-05  0.99411  0.0
H  H66  1  0.31328972  0.32249149  0.72079855  1  0.026515  -2e-06  0.085806  0.120878  -2e-06  1.043078  0.0
H  H67  1  0.13381768  0.28842525  0.68504583  1  0.043848  3e-06  0.089545  0.126194  5e-06  1.0157  0.0
H  H68  1  0.65416943  0.70915560  0.35615181  1  0.056071  0.003359  0.088332  0.084824  0.001729  1.034275  0.002
H  H69  1  0.44379754  0.73745867  0.34054517  1  0.04177  -0.009001  0.094029  0.096058  -0.008746  0.995088  -0.006
H  H70  1  0.58214464  0.84475496  0.35488938  1  0.040781  0.007479  0.086113  0.078889  0.004476  1.038513  0.004
H  H71  1  0.46997804  0.17956941  0.67162790  1  0.06492  -1.9e-05  0.09684  0.095958  -1.5e-05  1.045458  0.0
H  H72  1  0.23711685  0.17930135  0.78299476  1  0.055658  -0.00011  0.102927  0.068208  -0.000189  0.998936  0.0
H  H73  1  0.00594209  0.93776597  0.60461785  1  0.125167  0.000425  0.108499  0.117169  3e-05  1.03548  0.0
H  H74  1  0.49566758  0.43741550  0.80967230  1  0.075998  3e-06  0.097881  0.099768  -4e-06  1.052  0.0
H  H75  1  0.71018790  0.02016071  0.77569998  1  0.076163  -4e-06  0.101394  0.102661  -7e-06  1.025289  0.0
H  H76  1  0.27213323  0.12484769  0.72304328  1  0.039843  -4e-06  0.092574  0.048281  3e-06  1.032115  0.0
H  H77  1  0.30980767  0.09701574  0.60338053  1  0.085848  1.2e-05  0.104131  0.105564  -3.8e-05  1.002342  0.0
H  H78  1  0.62121272  0.98277191  0.86140800  1  0.08148  3.9e-05  0.102806  0.096696  -4.3e-05  1.008898  0.0
H  H79  1  0.15788742  0.00555177  0.67784633  1  0.075144  4.3e-05  0.100845  0.111789  2.7e-05  1.037068  0.0
H  H80  1  0.44722499  0.30792640  0.87702844  1  0.089477  0.000268  0.105159  0.105446  -6.3e-05  1.04159  0.0
H  H81  1  0.88257063  0.49320401  0.68812580  1  0.05597  5.9e-05  0.098313  0.061634  5.1e-05  1.007939  0.0
H  H82  1  0.70630171  0.48964817  0.64766678  1  0.059292  2.8e-05  0.092049  0.054895  -2.4e-05  1.022885  0.0
H  H83  1  0.74080945  0.91420880  0.55930049  1  0.124122  -0.000128  0.114265  0.123604  -0.000612  1.014942  0.0
H  H84  1  0.62956355  0.48336033  0.73016350  1  0.091557  4e-06  0.101346  0.104275  -3e-06  1.06606  0.0
H  H85  1  0.55102213  0.96133373  0.96254694  1  0.626028  0.000177  0.365214  0.423106  -1.2e-05  0.819565  0.0
H  H86  1  0.21278778  0.01917975  0.48279650  1  0.663662  6.8e-05  0.31749  0.390694  -4.1e-05  0.942386  0.0
H  H87  1  0.61352312  0.60691848  0.08361827  1  0.065822  6.2e-05  0.091867  0.134446  2.6e-05  0.999117  0.0
H  H88  1  0.54700446  0.47431377  0.09606599  1  0.07882  0.000487  0.100832  0.150897  7.2e-05  1.00215  0.0
H  H89  1  0.43843147  0.58470469  0.12264385  1  0.002705  6.2e-05  0.084263  0.111582  2.7e-05  1.022503  0.0
H  H90  1  0.38925196  0.65660723  0.24561269  1  0.040938  -2.8e-05  0.091848  0.133524  -6e-05  0.994069  0.0
H  H91  1  0.18671006  0.67750118  0.22079722  1  0.026444  -2e-06  0.085832  0.120907  -2e-06  1.043024  0.0
H  H92  1  0.36618258  0.71157453  0.18504617  1  0.043882  3e-06  0.089567  0.126261  5e-06  1.015643  0.0
H  H93  1  0.84582246  0.29084269  0.85615233  1  0.056037  0.003359  0.088346  0.08485  0.001729  1.034253  0.002
H  H94  1  0.05619561  0.26253671  0.84054233  1  0.041799  -0.009001  0.094003  0.096026  -0.008746  0.995018  -0.006
H  H95  1  0.91784479  0.15524252  0.85488900  1  0.04075  0.007479  0.086146  0.078956  0.004476  1.03863  0.004
H  H96  1  0.03002241  0.82042554  0.17162462  1  0.064915  -1.9e-05  0.096809  0.095942  -1.5e-05  1.045511  0.0
H  H97  1  0.26288207  0.82069308  0.28299528  1  0.055629  -0.000109  0.102865  0.068168  -0.000189  0.998965  0.0
H  H98  1  0.49406053  0.06222882  0.10461470  1  0.125111  0.000425  0.108531  0.117181  3e-05  1.035472  0.0
H  H99  1  0.00434339  0.56258781  0.30966817  1  0.075999  3e-06  0.097894  0.099659  -4e-06  1.052147  0.0
H  H100  1  0.78981256  0.97983737  0.27570092  1  0.076169  -4e-06  0.101416  0.102646  -7e-06  1.025404  0.0
H  H101  1  0.22785533  0.87514579  0.22304609  1  0.039599  -4e-06  0.092566  0.048277  3e-06  1.032095  0.0
H  H102  1  0.19019248  0.90298144  0.10337822  1  0.085819  1.2e-05  0.104152  0.105635  -3.8e-05  1.002355  0.0
H  H103  1  0.87878284  0.01723039  0.36140869  1  0.08145  3.9e-05  0.102795  0.096732  -4.3e-05  1.008826  0.0
H  H104  1  0.34210549  0.99443760  0.17784090  1  0.075288  4.3e-05  0.100888  0.11189  2.7e-05  1.036931  0.0
H  H105  1  0.05277512  0.69207547  0.37702655  1  0.089557  0.000268  0.105175  0.105543  -6.3e-05  1.041529  0.0
H  H106  1  0.61741488  0.50679945  0.18812744  1  0.05591  5.9e-05  0.098334  0.061685  5.1e-05  1.007886  0.0
H  H107  1  0.79368437  0.51034798  0.14766784  1  0.059373  2.8e-05  0.092084  0.05498  -2.4e-05  1.022807  0.0
H  H108  1  0.75919523  0.08579274  0.05930174  1  0.124168  -0.000128  0.114206  0.123547  -0.000612  1.014844  0.0
H  H109  1  0.87044375  0.51664163  0.23016075  1  0.091144  4e-06  0.101345  0.104321  -3e-06  1.066044  0.0
H  H110  1  0.94898197  0.03866723  0.46254569  1  0.626073  0.000177  0.365199  0.423103  -1.2e-05  0.819601  0.0
H  H111  1  0.28721832  0.98082079  0.98279597  1  0.663614  6.8e-05  0.317457  0.390674  -4.1e-05  0.942411  0.0
C  C112  1  0.56076424  0.57479968  0.89058980  1  -0.110182  0.000206  -0.086345  -0.064834  0.000102  4.006748  0.0
C  C113  1  0.49512365  0.74490181  0.64495411  1  -0.13625  0.001726  -0.067906  -0.082536  0.001058  3.934667  0.001
C  C114  1  0.21310935  0.63261424  0.80222811  1  0.014738  -3.6e-05  -0.017918  -0.075287  -6.7e-05  3.996309  0.0
C  C115  1  0.36731945  0.90140417  0.75635325  1  -0.061034  -7e-06  -0.106983  -0.214845  -1.6e-05  4.040319  0.0
C  C116  1  0.97005078  0.53036828  0.82874747  1  -0.055926  6.6e-05  -0.102971  -0.200148  5e-06  4.016358  0.0
C  C117  1  0.43725488  0.76974617  0.69321704  1  -0.030057  0.000127  -0.012745  0.05047  9.3e-05  4.019078  0.0
C  C118  1  0.47147447  0.62091013  0.85264909  1  -0.037783  0.000114  -0.095713  -0.139677  6.8e-05  3.995287  0.0
C  C119  1  0.34641518  0.58320323  0.70205279  1  -0.002527  -4.8e-05  -0.088663  -0.125129  -0.0001  3.97149  0.0
C  C120  1  0.22472315  0.51824594  0.87705313  1  0.016703  -0.00034  -0.011071  0.060479  -0.00043  3.997438  0.0
C  C121  1  0.05012819  0.59959403  0.79457961  1  0.471345  -0.000196  0.085068  0.211609  -0.00023  4.046139  0.0
C  C122  1  0.31903614  0.47203706  0.91611381  1  -0.102297  4e-06  -0.068738  -0.096548  -0.000332  3.922932  0.0
C  C123  1  0.44284840  0.87546983  0.71205716  1  -0.011732  0.000147  -0.087497  -0.105054  0.000109  3.994062  0.0
C  C124  1  0.28983732  0.71410977  0.76933105  1  0.065843  -7.9e-05  -0.017389  -0.076174  -0.000101  3.984237  0.0
C  C125  1  0.28838616  0.82088820  0.78498909  1  0.470543  0.000149  0.091611  0.21777  0.000119  4.050387  0.0
C  C126  1  0.35917142  0.68788811  0.72253258  1  -0.010898  0.000358  9.9e-05  0.050744  0.000301  3.974954  0.0
C  C127  1  0.48552598  0.49766576  0.92220578  1  -0.513348  -0.002518  -0.029033  -0.210761  -0.004161  4.022627  -0.002
C  C128  1  0.39639562  0.56251000  0.65418299  1  -0.070626  0.000423  -0.085868  -0.080264  0.000194  4.04205  0.0
C  C129  1  0.05512221  0.49176893  0.86935713  1  -0.052692  0.000295  -0.083155  -0.102892  0.000139  3.968044  0.0
C  C130  1  0.80914767  0.67812718  0.75533726  1  0.425311  -0.000107  -0.070056  0.076477  -0.000209  3.908545  0.0
C  C131  1  0.17548675  0.95014369  0.84308269  1  0.382666  6.1e-05  -0.069001  0.085247  6.2e-05  3.877816  0.0
C  C132  1  0.06173744  0.94566125  0.88769507  1  -0.065816  0.000292  -0.248355  -0.398405  0.000211  3.939486  0.0
C  C133  1  0.30347009  0.59168571  0.84352315  1  -0.01059  -3.3e-05  -0.002068  0.051481  -5e-05  3.976371  0.0
C  C134  1  0.46981243  0.64440087  0.62461986  1  -0.552925  0.000217  -0.032368  -0.225171  -0.001407  4.057214  -0.001
C  C135  1  0.81326638  0.78978821  0.77738842  1  -0.081783  -3.5e-05  -0.252758  -0.405664  -7.8e-05  3.938875  0.0
C  C136  1  0.45181966  0.26197179  0.13545043  1  0.414731  0.009713  -0.156028  -0.11582  0.009708  4.008532  0.01
C  C137  1  0.93923713  0.42520509  0.39058840  1  -0.109891  0.000206  -0.086324  -0.064926  0.000102  4.006676  0.0
C  C138  1  0.00487966  0.25509787  0.14495354  1  -0.136192  0.001726  -0.067854  -0.082338  0.001057  3.93471  0.001
C  C139  1  0.28689054  0.36738344  0.30222761  1  0.014803  -3.6e-05  -0.017905  -0.075197  -6.7e-05  3.996252  0.0
C  C140  1  0.13267735  0.09859740  0.25635169  1  -0.0614  -7e-06  -0.106984  -0.214932  -1.6e-05  4.040466  0.0
C  C141  1  0.52994895  0.46962834  0.32874289  1  -0.055653  6.6e-05  -0.103016  -0.200341  5e-06  4.016631  0.0
C  C142  1  0.06274527  0.23025203  0.19321638  1  -0.030158  0.000127  -0.012758  0.050409  9.3e-05  4.01922  0.0
C  C143  1  0.02852349  0.37909568  0.35264818  1  -0.03803  0.000114  -0.095708  -0.139614  6.9e-05  3.995329  0.0
C  C144  1  0.15357988  0.41679500  0.20205323  1  -0.002442  -4.8e-05  -0.088686  -0.125189  -0.0001  3.971442  0.0
C  C145  1  0.27528317  0.48175673  0.37705048  1  0.016639  -0.00034  -0.011032  0.060427  -0.00043  3.997483  0.0
C  C146  1  0.44987181  0.40040123  0.29457670  1  0.471358  -0.000196  0.085089  0.211546  -0.000231  4.046264  0.0
C  C147  1  0.18097089  0.52796411  0.41611167  1  -0.102138  3e-06  -0.068724  -0.096379  -0.000333  3.922915  0.0
C  C148  1  0.05714901  0.12453083  0.21205644  1  -0.01169  0.000147  -0.087526  -0.105067  0.000109  3.994086  0.0
C  C149  1  0.21015930  0.28588463  0.26932912  1  0.065901  -7.9e-05  -0.017429  -0.076373  -0.000101  3.984515  0.0
C  C150  1  0.21161770  0.17910944  0.28498784  1  0.470928  0.00015  0.091552  0.21785  0.000119  4.050515  0.0
C  C151  1  0.14082460  0.31210777  0.22253075  1  -0.010941  0.000358  9.4e-05  0.0508  0.000301  3.97495  0.0
C  C152  1  0.01448344  0.50234103  0.42220495  1  -0.513086  -0.002518  -0.029101  -0.210801  -0.004161  4.022483  -0.002
C  C153  1  0.10359886  0.43749131  0.15418313  1  -0.07066  0.000423  -0.085866  -0.080133  0.000194  4.042012  0.0
C  C154  1  0.44488049  0.50823212  0.36935502  1  -0.052812  0.000295  -0.083168  -0.102819  0.000139  3.968167  0.0
C  C155  1  0.69085307  0.32186925  0.25533723  1  0.424958  -0.000108  -0.070124  0.076305  -0.000209  3.90867  0.0
C  C156  1  0.32451010  0.04985569  0.34308086  1  0.382701  6.1e-05  -0.068942  0.085368  6.2e-05  3.87764  0.0
C  C157  1  0.43825507  0.05434065  0.38769348  1  -0.065538  0.000292  -0.248402  -0.39841  0.000211  3.939546  0.0
C  C158  1  0.19652923  0.40831528  0.34352167  1  -0.010566  -3.3e-05  -0.002071  0.051519  -5.1e-05  3.97624  0.0
C  C159  1  0.03018122  0.35560357  0.12462190  1  -0.552838  0.000216  -0.032306  -0.225206  -0.001407  4.057206  -0.001
C  C160  1  0.68674027  0.21021067  0.27738871  1  -0.081922  -3.5e-05  -0.252766  -0.405632  -7.8e-05  3.938939  0.0
C  C161  1  0.04818502  0.73803347  0.63545082  1  0.414944  0.009704  -0.156006  -0.115902  0.009699  4.008564  0.01
C  C162  1  0.43923634  0.07479724  0.60941164  1  -0.110451  0.000206  -0.086295  -0.064717  0.000102  4.006755  0.0
C  C163  1  0.50487734  0.24490486  0.85504741  1  -0.136447  0.001726  -0.067847  -0.08226  0.001057  3.934795  0.001
C  C164  1  0.78688640  0.13261795  0.69777411  1  0.014745  -3.5e-05  -0.017915  -0.075105  -6.7e-05  3.996228  0.0
C  C165  1  0.63267694  0.40140545  0.74364836  1  -0.061411  -7e-06  -0.107006  -0.214958  -1.6e-05  4.040477  0.0
C  C166  1  0.02994597  0.03036962  0.67125691  1  -0.055592  6.6e-05  -0.103004  -0.20024  5e-06  4.016601  0.0
C  C167  1  0.56274243  0.26974915  0.80678487  1  -0.03015  0.000128  -0.012741  0.050411  9.3e-05  4.019148  0.0
C  C168  1  0.52852622  0.12090787  0.64735274  1  -0.037718  0.000114  -0.095729  -0.139654  6.9e-05  3.995279  0.0
C  C169  1  0.65358045  0.08320787  0.79794865  1  -0.002544  -4.8e-05  -0.088626  -0.1252  -0.0001  3.971519  0.0
C  C170  1  0.77527854  0.01825025  0.62294902  1  0.016688  -0.000341  -0.010988  0.060555  -0.00043  3.997473  0.0
C  C171  1  0.94986623  0.09959551  0.70542333  1  0.471407  -0.000196  0.08516  0.211612  -0.000231  4.046286  0.0
C  C172  1  0.68096788  0.97203884  0.58388822  1  -0.10206  3e-06  -0.068754  -0.096552  -0.000333  3.923095  0.0
C  C173  1  0.55715041  0.37547115  0.78794481  1  -0.011684  0.000147  -0.087475  -0.105001  0.000109  3.994034  0.0
C  C174  1  0.71015862  0.21411669  0.73067157  1  0.065865  -7.9e-05  -0.017455  -0.076459  -0.000101  3.984606  0.0
C  C175  1  0.71161377  0.32089268  0.71501323  1  0.471374  0.000149  0.091613  0.217976  0.000119  4.050514  0.0
C  C176  1  0.64082321  0.18789188  0.77747041  1  -0.010868  0.000358  8.3e-05  0.050802  0.000301  3.97494  0.0
C  C177  1  0.51447809  0.99766737  0.57779514  1  -0.513194  -0.002518  -0.029044  -0.21084  -0.004162  4.022847  -0.002
C  C178  1  0.60360369  0.06251151  0.84581769  1  -0.070628  0.000423  -0.08589  -0.080033  0.000194  4.041964  0.0
C  C179  1  0.94487564  0.99176787  0.63064602  1  -0.052817  0.000295  -0.083172  -0.102931  0.000139  3.968197  0.0
C  C180  1  0.19084819  0.17813045  0.74466275  1  0.424828  -0.000107  -0.070081  0.076367  -0.000209  3.908655  0.0
C  C181  1  0.82450479  0.45014573  0.65691747  1  0.382722  6.1e-05  -0.068923  0.085475  6.2e-05  3.877615  0.0
C  C182  1  0.93825284  0.44566088  0.61230508  1  -0.065474  0.000292  -0.248358  -0.398446  0.000211  3.939632  0.0
C  C183  1  0.69653053  0.09168843  0.65647867  1  -0.010637  -3.3e-05  -0.002143  0.05136  -5.1e-05  3.976452  0.0
C  C184  1  0.53018211  0.14440319  0.87537828  1  -0.552615  0.000216  -0.032355  -0.225406  -0.001407  4.057387  -0.001
C  C185  1  0.18673720  0.28978663  0.72261016  1  -0.082054  -3.5e-05  -0.252714  -0.405553  -7.8e-05  3.938956  0.0
C  C186  1  0.54817831  0.76196775  0.36454886  1  0.414792  0.009711  -0.156053  -0.115776  0.009705  4.008547  0.01
C  C187  1  0.06076497  0.92519995  0.10941098  1  -0.11012  0.000206  -0.086298  -0.064797  0.000103  4.006704  0.0
C  C188  1  0.99512203  0.75509742  0.35504390  1  -0.136328  0.001725  -0.067755  -0.082337  0.001057  3.934876  0.001
C  C189  1  0.71311265  0.86738393  0.19777285  1  0.014718  -3.5e-05  -0.017944  -0.075246  -6.7e-05  3.996254  0.0
C  C190  1  0.86732520  0.59859735  0.24364455  1  -0.061001  -7e-06  -0.107087  -0.215165  -1.6e-05  4.040692  0.0
C  C191  1  0.47004828  0.96962293  0.17125465  1  -0.055476  6.6e-05  -0.10302  -0.200306  5e-06  4.016425  0.0
C  C192  1  0.93726008  0.73025541  0.30678253  1  -0.030055  0.000127  -0.012759  0.050388  9.3e-05  4.01909  0.0
C  C193  1  0.97147228  0.87908909  0.14735192  1  -0.037813  0.000114  -0.095707  -0.139628  6.8e-05  3.995302  0.0
C  C194  1  0.84641722  0.91679187  0.29794689  1  -0.002605  -4.8e-05  -0.088616  -0.125045  -0.0001  3.971646  0.0
C  C195  1  0.72472278  0.98175545  0.12294893  1  0.016679  -0.00034  -0.011012  0.060575  -0.00043  3.997342  0.0
C  C196  1  0.55012650  0.90039999  0.20542118  1  0.471284  -0.000196  0.085052  0.211507  -0.00023  4.046299  0.0
C  C197  1  0.81903896  0.02796196  0.08388861  1  -0.10224  4e-06  -0.068701  -0.096501  -0.000332  3.922905  0.0
C  C198  1  0.94285982  0.62452536  0.28794166  1  -0.011678  0.000147  -0.087383  -0.104656  0.000109  3.993639  0.0
C  C199  1  0.78983749  0.78588848  0.23067093  1  0.065785  -7.9e-05  -0.017399  -0.076262  -0.0001  3.984325  0.0
C  C200  1  0.78838877  0.67910684  0.21501327  1  0.470714  0.000149  0.091626  0.217892  0.000119  4.050367  0.0
C  C201  1  0.85917598  0.81211260  0.27746783  1  -0.01092  0.000358  2.6e-05  0.050657  0.000301  3.975314  0.0
C  C202  1  0.98552758  0.00233581  0.07779495  1  -0.513276  -0.002517  -0.029045  -0.210851  -0.004161  4.022793  -0.002
C  C203  1  0.89639580  0.93748915  0.34581700  1  -0.070526  0.000423  -0.085933  -0.080247  0.000194  4.041915  0.0
C  C204  1  0.55512434  0.00822985  0.13064376  1  -0.052944  0.000295  -0.083132  -0.102914  0.000139  3.968101  0.0
C  C205  1  0.30914753  0.82186789  0.24466284  1  0.425139  -0.000107  -0.070052  0.076378  -0.000209  3.908606  0.0
C  C206  1  0.67548364  0.54985765  0.15692018  1  0.38271  6.1e-05  -0.069049  0.085121  6.2e-05  3.877835  0.0
C  C207  1  0.56172999  0.55433679  0.11230644  1  -0.06567  0.000292  -0.248333  -0.39843  0.000211  3.939397  0.0
C  C208  1  0.80347033  0.90831175  0.15647844  1  -0.010616  -3.3e-05  -0.00211  0.051432  -5e-05  3.976286  0.0
C  C209  1  0.96981574  0.85559595  0.37537856  1  -0.552688  0.000217  -0.032392  -0.225324  -0.001407  4.057413  -0.001
C  C210  1  0.31326628  0.71020765  0.22260944  1  -0.082076  -3.5e-05  -0.252764  -0.405649  -7.8e-05  3.938711  0.0
C  C211  1  0.95181223  0.23802735  0.86454774  1  0.414928  0.009711  -0.156014  -0.115831  0.009707  4.008548  0.01
O  O212  1  0.50476958  0.25288122  0.08593020  1  -0.998611  0.068282  -0.374047  -0.454596  0.035656  2.291547  0.03
O  O213  1  0.97399125  0.63305469  0.75155146  1  -1.080969  -7.5e-05  -0.192796  -0.230211  -0.000152  2.542254  0.0
O  O214  1  0.49863754  0.37662015  0.00586022  1  -1.412076  0.048791  -0.352297  -0.728539  0.029884  2.420504  0.016
O  O215  1  0.69508128  0.53535979  0.99365672  1  -1.416864  0.004202  -0.386758  -0.654096  0.002045  2.222814  0.003
O  O216  1  0.20822037  0.84062427  0.82836901  1  -1.074118  5.9e-05  -0.176769  -0.20061  3.4e-05  2.556736  0.0
O  O217  1  0.32683537  0.63847851  0.53261302  1  -1.456968  0.084438  -0.348055  -0.757527  0.064846  2.301107  0.049
O  O218  1  0.63623335  0.69255932  0.53910064  1  -1.416984  0.062146  -0.338195  -0.705668  0.042607  2.294039  0.028
O  O219  1  0.74205605  0.36308208  0.94384615  1  -1.398378  0.045285  -0.357139  -0.749578  0.027556  2.330126  0.014
O  O220  1  0.54176938  0.49938195  0.55275778  1  -1.34685  0.007674  -0.36829  -0.627339  0.004517  2.199588  0.005
O  O221  1  0.99523225  0.74712439  0.58593338  1  -0.998714  0.068247  -0.37411  -0.454659  0.035628  2.291495  0.03
O  O222  1  0.52600706  0.36693852  0.25154943  1  -1.08072  -7.5e-05  -0.192808  -0.230142  -0.000152  2.542255  0.0
O  O223  1  0.00136396  0.62338078  0.50586135  1  -1.412181  0.048798  -0.352299  -0.728508  0.029888  2.420462  0.016
O  O224  1  0.80491991  0.46464684  0.49365551  1  -1.416867  0.004201  -0.386708  -0.654055  0.002044  2.222824  0.003
O  O225  1  0.29178041  0.15937508  0.32836729  1  -1.074583  5.9e-05  -0.176752  -0.200613  3.4e-05  2.556753  0.0
O  O226  1  0.17316825  0.36152569  0.03261341  1  -1.456972  0.084441  -0.348048  -0.757521  0.064849  2.301086  0.049
O  O227  1  0.86377409  0.30744536  0.03910112  1  -1.417105  0.062138  -0.33814  -0.705575  0.0426  2.294219  0.028
O  O228  1  0.75795824  0.63692363  0.44384546  1  -1.398269  0.045274  -0.357149  -0.749598  0.02755  2.330176  0.014
O  O229  1  0.95824285  0.50061717  0.05275751  1  -1.346948  0.007675  -0.368239  -0.627177  0.004516  2.199884  0.005
O  O230  1  0.49522961  0.75287645  0.41406909  1  -0.998554  0.068263  -0.374028  -0.454601  0.035641  2.291462  0.03
O  O231  1  0.02600202  0.13305702  0.74845149  1  -1.080725  -7.5e-05  -0.192855  -0.230199  -0.000152  2.5422  0.0
O  O232  1  0.50136692  0.87661880  0.49413950  1  -1.412098  0.048812  -0.352322  -0.728576  0.029898  2.420457  0.016
O  O233  1  0.30492170  0.03536017  0.50634396  1  -1.416879  0.004203  -0.386757  -0.654093  0.002045  2.222991  0.003
O  O234  1  0.79177463  0.34062311  0.67163220  1  -1.074979  5.9e-05  -0.176789  -0.200733  3.4e-05  2.556684  0.0
O  O235  1  0.67317034  0.13847399  0.96738734  1  -1.456755  0.084434  -0.348026  -0.757484  0.064846  2.301095  0.049
O  O236  1  0.36376751  0.19255770  0.96089975  1  -1.417026  0.062145  -0.338202  -0.705619  0.042604  2.294124  0.028
O  O237  1  0.25795515  0.86308259  0.55615396  1  -1.398721  0.045289  -0.357077  -0.749567  0.027549  2.330088  0.014
O  O238  1  0.45823718  0.99938124  0.94724166  1  -1.346806  0.007675  -0.368278  -0.627262  0.004517  2.199716  0.005
O  O239  1  0.00476377  0.24711671  0.91406778  1  -0.998675  0.068284  -0.374089  -0.454617  0.035659  2.291528  0.03
O  O240  1  0.47399117  0.86693972  0.24844992  1  -1.080647  -7.5e-05  -0.192772  -0.23011  -0.000152  2.542276  0.0
O  O241  1  0.99863301  0.12338063  0.99413900  1  -1.41212  0.048803  -0.352294  -0.728542  0.029893  2.420437  0.016
O  O242  1  0.19508103  0.96464397  0.00634241  1  -1.416793  0.004203  -0.386698  -0.654056  0.002045  2.222852  0.003
O  O243  1  0.70821732  0.65937470  0.17163232  1  -1.074273  5.9e-05  -0.176762  -0.200581  3.4e-05  2.556709  0.0
O  O244  1  0.82683742  0.86152617  0.46738817  1  -1.456875  0.084426  -0.34805  -0.757534  0.064849  2.301104  0.049
O  O245  1  0.13623145  0.80744438  0.46090042  1  -1.417024  0.062145  -0.338157  -0.705678  0.042607  2.294257  0.028
O  O246  1  0.24204937  0.13691847  0.05615191  1  -1.398411  0.045295  -0.357112  -0.749566  0.02756  2.330193  0.014
O  O247  1  0.04176817  0.00062081  0.44724127  1  -1.34688  0.007675  -0.368233  -0.627243  0.004517  2.199669  0.005
