# generated using pymatgen
data_Cu3P2H22C14(NO8)2
_symmetry_space_group_name_H-M   'P 1'
_cell_length_a   8.60553528
_cell_length_b   9.76124263
_cell_length_c   10.55160836
_cell_angle_alpha   111.03917601
_cell_angle_beta   102.22622807
_cell_angle_gamma   121.28575103
_symmetry_Int_Tables_number   1
_chemical_formula_structural   Cu3P2H22C14(NO8)2
_chemical_formula_sum   'Cu3 P2 H22 C14 N2 O16'
_cell_volume   612.55483955
_cell_formula_units_Z   1
loop_
 _symmetry_equiv_pos_site_id
 _symmetry_equiv_pos_as_xyz
  1  'x, y, z'
loop_
 _atom_site_type_symbol
 _atom_site_label
 _atom_site_symmetry_multiplicity
 _atom_site_fract_x
 _atom_site_fract_y
 _atom_site_fract_z
 _atom_site_occupancy
 _atom_site_pbe_cm5_charge
 _atom_site_pbe_ddec_charge
 _atom_site_pbe_ddec_spin_density
 _atom_site_pbe_ddec_sum_bond_order
 _atom_site_pbe_magmom
Cu  Cu0  1  0.50021379  0.50019209  0.49913615  1  0.728833  0.98802  0.767385  2.026293  0.6
Cu  Cu1  1  0.75972055  0.90495062  0.26836412  1  0.722832  0.943631  -0.752362  2.05326  -0.572
Cu  Cu2  1  0.24123136  0.09582611  0.73132876  1  0.722991  0.943824  0.736328  2.051946  0.579
P  P3  1  0.24341566  0.09185102  0.43287507  1  0.325019  1.223562  0.002492  5.470656  -0.003
P  P4  1  0.75764339  0.90949418  0.56635865  1  0.327196  1.22629  0.002261  5.470371  0.003
H  H5  1  0.14789017  0.04392723  0.13007909  1  0.107784  0.112205  -1.6e-05  1.015992  0.0
H  H6  1  0.84960042  0.95385456  0.86769874  1  0.107443  0.111943  -0.000134  1.01578  0.0
H  H7  1  0.30924556  0.70470247  0.92483856  1  0.10625  0.110583  0.00015  1.042068  0.0
H  H8  1  0.69087653  0.29486663  0.07474444  1  0.105942  0.110294  -0.00014  1.041575  0.0
H  H9  1  0.35726204  0.85109773  0.37697156  1  0.111495  0.129174  0.00038  1.001349  0.0
H  H10  1  0.64515067  0.15160908  0.62354603  1  0.111579  0.131026  -0.000245  0.999463  0.0
H  H11  1  0.38525031  0.57309905  0.06176896  1  0.29719  0.3124  -0.000905  0.953306  0.0
H  H12  1  0.61591808  0.42751236  0.93944758  1  0.298684  0.313774  0.000863  0.948355  0.0
H  H13  1  0.43499064  0.65452010  0.24907592  1  0.304195  0.314668  -0.00037  0.943405  0.0
H  H14  1  0.56747541  0.34851974  0.75267413  1  0.304289  0.314989  0.000717  0.941683  0.0
H  H15  1  0.14750436  0.30277620  0.45222767  1  0.300208  0.400149  0.000336  0.943645  0.0
H  H16  1  0.85301850  0.69804613  0.54618637  1  0.298851  0.398782  9.9e-05  0.945769  -0.001
H  H17  1  0.16614429  0.46130657  0.42983680  1  0.327549  0.432702  0.000748  0.843891  0.001
H  H18  1  0.83559411  0.54099438  0.57000932  1  0.325742  0.430917  0.000728  0.846519  0.001
H  H19  1  0.57696747  0.38362001  0.27343998  1  0.2967  0.382136  -0.000264  0.946408  0.0
H  H20  1  0.41887722  0.61120654  0.72429047  1  0.297578  0.383854  -0.000171  0.94428  0.0
H  H21  1  0.39818125  0.25201896  0.09171639  1  0.285112  0.381858  0.000162  0.966622  0.0
H  H22  1  0.59806255  0.74512078  0.90658130  1  0.285143  0.38091  -0.000174  0.967708  0.0
H  H23  1  0.89244467  0.68862340  0.21933613  1  0.303545  0.383805  6.8e-05  0.924293  0.0
H  H24  1  0.10826264  0.31201349  0.79067167  1  0.302282  0.3801  6e-06  0.928477  0.0
H  H25  1  0.65619276  0.54316796  0.18000751  1  0.282156  0.384366  2.1e-05  0.961527  0.0
H  H26  1  0.34128199  0.45577907  0.82251458  1  0.282003  0.386227  2e-05  0.959545  0.0
C  C27  1  0.24698590  0.95474077  0.26573926  1  -0.029479  -0.178098  0.008027  4.023629  0.01
C  C28  1  0.75307627  0.04559655  0.73342653  1  -0.028885  -0.180071  -0.008318  4.024743  -0.009
C  C29  1  0.20165877  0.96578809  0.13569730  1  -0.082362  -0.09643  -0.017501  3.94515  -0.015
C  C30  1  0.79683969  0.03289949  0.86270724  1  -0.08235  -0.097227  0.016544  3.945084  0.015
C  C31  1  0.22540524  0.87563980  0.01355887  1  -0.016047  -0.013587  0.008693  3.969866  0.011
C  C32  1  0.77335930  0.12295733  0.98508160  1  -0.015524  -0.012302  -0.008606  3.968822  -0.01
C  C33  1  0.29072326  0.77285756  0.02054314  1  -0.088087  -0.183351  -0.014274  3.918951  -0.013
C  C34  1  0.70914612  0.22670665  0.97886716  1  -0.086678  -0.180927  0.013372  3.918359  0.012
C  C35  1  0.34372106  0.76801717  0.15269939  1  0.085695  0.266316  0.00407  4.027991  0.008
C  C36  1  0.65719728  0.23283137  0.84731739  1  0.085302  0.265265  -0.004257  4.028448  -0.008
C  C37  1  0.31804831  0.85605460  0.27440527  1  -0.079755  -0.148263  -0.01445  3.900363  -0.013
C  C38  1  0.68319343  0.14540251  0.72555156  1  -0.080162  -0.149422  0.013677  3.900118  0.013
C  C39  1  0.20118067  0.89717429  0.87814013  1  0.206651  0.574133  0.001219  4.201421  -0.001
C  C40  1  0.79810818  0.10139569  0.12048165  1  0.206131  0.572384  -0.001094  4.200676  0.001
N  N41  1  0.44201087  0.69027442  0.16836973  1  -0.605074  -0.590669  -0.073543  3.424651  -0.088
N  N42  1  0.55950410  0.31129830  0.83243636  1  -0.603742  -0.590485  0.071553  3.422467  0.088
O  O43  1  0.06647781  0.09506255  0.37127048  1  -0.386267  -0.760536  -0.037128  2.509639  -0.047
O  O44  1  0.93460877  0.90627112  0.62786880  1  -0.387576  -0.761855  0.037831  2.511583  0.051
O  O45  1  0.45496028  0.30410633  0.53464342  1  -0.39109  -0.746847  0.045425  2.322559  0.064
O  O46  1  0.54633720  0.69697767  0.46421678  1  -0.391963  -0.749135  0.061781  2.325362  0.084
O  O47  1  0.22064270  0.99649455  0.52284782  1  -0.37784  -0.72862  0.060151  2.334765  0.082
O  O48  1  0.78081611  0.00554781  0.47700378  1  -0.380159  -0.730792  -0.034099  2.33255  -0.045
O  O49  1  0.14218116  0.76564020  0.74801859  1  -0.323355  -0.552257  0.002014  2.124858  0.003
O  O50  1  0.85754479  0.23308691  0.25069512  1  -0.323272  -0.550934  0.000398  2.121989  0.0
O  O51  1  0.25679524  0.06398344  0.91162997  1  -0.326878  -0.572763  0.044448  2.372235  0.063
O  O52  1  0.74298317  0.93474322  0.08702377  1  -0.326343  -0.572674  -0.045519  2.370098  -0.062
O  O53  1  0.24393344  0.44910919  0.50122281  1  -0.559536  -0.739433  0.056303  2.180263  0.075
O  O54  1  0.75717638  0.55195290  0.49772622  1  -0.558144  -0.737236  0.056714  2.177878  0.076
O  O55  1  0.49048151  0.38153918  0.19423960  1  -0.583053  -0.765399  -0.000568  2.061362  0.0
O  O56  1  0.50451829  0.61442369  0.80512679  1  -0.584595  -0.765874  -0.00086  2.058569  -0.001
O  O57  1  0.75168779  0.63842777  0.15762987  1  -0.578365  -0.769605  -0.003854  2.039062  -0.006
O  O58  1  0.25029612  0.36229364  0.84809250  1  -0.575786  -0.765497  0.003869  2.044217  0.006
