# generated using pymatgen
data_ZnH14(C7O4)2
_symmetry_space_group_name_H-M   'P 1'
_cell_length_a   7.22370355
_cell_length_b   7.51816948
_cell_length_c   12.74326035
_cell_angle_alpha   88.74883175
_cell_angle_beta   95.29506679
_cell_angle_gamma   99.32025636
_symmetry_Int_Tables_number   1
_chemical_formula_structural   ZnH14(C7O4)2
_chemical_formula_sum   'Zn2 H28 C28 O16'
_cell_volume   680.00662431
_cell_formula_units_Z   2
loop_
 _symmetry_equiv_pos_site_id
 _symmetry_equiv_pos_as_xyz
  1  'x, y, z'
loop_
 _atom_site_type_symbol
 _atom_site_label
 _atom_site_symmetry_multiplicity
 _atom_site_fract_x
 _atom_site_fract_y
 _atom_site_fract_z
 _atom_site_occupancy
 _atom_site_hle17_bader_spin_density
 _atom_site_hle17_ddec_charge
 _atom_site_hle17_ddec_spin_density
 _atom_site_hle17_ddec_sum_bond_order
 _atom_site_hle17_magmom
 _atom_site_hse06_10hf_bader_spin_density
 _atom_site_hse06_10hf_ddec_charge
 _atom_site_hse06_10hf_ddec_spin_density
 _atom_site_hse06_10hf_ddec_sum_bond_order
 _atom_site_hse06_10hf_magmom
 _atom_site_hse06_bader_spin_density
 _atom_site_hse06_ddec_charge
 _atom_site_hse06_ddec_spin_density
 _atom_site_hse06_ddec_sum_bond_order
 _atom_site_hse06_magmom
 _atom_site_pbe_bader_spin_density
 _atom_site_pbe_cm5_charge
 _atom_site_pbe_ddec_charge
 _atom_site_pbe_ddec_spin_density
 _atom_site_pbe_ddec_sum_bond_order
 _atom_site_pbe_magmom
Zn  Zn0  1  0.33866118  0.64831526  0.04064829  1  0  1.247072  0  1.635727  0  0  1.079548  0  2.104394  0  0  1.128273  0  2.037151  0  0  0.701765  1.045043  0  2.151095  0
Zn  Zn1  1  0.66133595  0.35168613  0.95935331  1  0  1.247026  0  1.635687  0  0  1.079492  0  2.104327  0  0  1.128221  0  2.037083  0  0  0.701775  1.044985  0  2.151024  0
H  H2  1  0.76323477  0.71421461  0.28855914  1  0  0.0913  0  0.950204  0  0  0.09794  0  1.019741  0  0  0.099626  0  1.018605  0  0  0.111069  0.096773  0  1.020575  0
H  H3  1  0.23677901  0.28579663  0.71144351  1  0  0.091398  0  0.950116  0  0  0.097905  0  1.019821  0  0  0.099598  0  1.01866  0  0  0.111066  0.096731  0  1.020672  0
H  H4  1  0.71777389  0.48787604  0.33739403  1  0  0.089064  0  0.955288  0  0  0.099263  0  1.020954  0  0  0.099309  0  1.022938  0  0  0.110319  0.099249  0  1.019679  0
H  H5  1  0.28222660  0.51212715  0.66259837  1  0  0.088985  0  0.955221  0  0  0.099193  0  1.0209  0  0  0.099239  0  1.022882  0  0  0.110275  0.099177  0  1.019627  0
H  H6  1  0.87268863  0.70965224  0.45296608  1  0  0.104502  0  0.976271  0  0  0.11522  0  1.042966  0  0  0.118226  0  1.041855  0  0  0.099512  0.113066  0  1.04387  0
H  H7  1  0.12731124  0.29033852  0.54703492  1  0  0.104477  0  0.976336  0  0  0.115224  0  1.042986  0  0  0.118213  0  1.041893  0  0  0.099511  0.113069  0  1.043885  0
H  H8  1  0.92659028  0.84179637  0.62603278  1  0  0.10304  0  0.974035  0  0  0.114941  0  1.038405  0  0  0.11819  0  1.036438  0  0  0.099569  0.112664  0  1.039819  0
H  H9  1  0.07341377  0.15820400  0.37396612  1  0  0.10304  0  0.974046  0  0  0.11496  0  1.038376  0  0  0.11821  0  1.03641  0  0  0.099575  0.112684  0  1.039787  0
H  H10  1  0.49291989  0.98450710  0.77334820  1  0  0.117472  0  0.960246  0  0  0.127212  0  1.021662  0  0  0.13184  0  1.018501  0  0  0.103482  0.123858  0  1.024102  0
H  H11  1  0.50707872  0.01550391  0.22664877  1  0  0.11746  0  0.960321  0  0  0.127226  0  1.021703  0  0  0.131853  0  1.018543  0  0  0.103453  0.123874  0  1.024141  0
H  H12  1  0.61785773  0.85376908  0.62243431  1  0  0.085266  0  0.959196  0  0  0.098732  0  1.018883  0  0  0.101143  0  1.017684  0  0  0.09797  0.096978  0  1.019841  0
H  H13  1  0.38214505  0.14624202  0.37756371  1  0  0.085181  0  0.959284  0  0  0.098696  0  1.018913  0  0  0.101108  0  1.017712  0  0  0.097956  0.096942  0  1.019871  0
H  H14  1  0.55855362  0.69327313  0.44891311  1  0  0.083637  0  0.966024  0  0  0.096433  0  1.028515  0  0  0.098866  0  1.027394  0  0  0.096728  0.094692  0  1.029298  0
H  H15  1  0.44145327  0.30672854  0.55108911  1  0  0.083527  0  0.965921  0  0  0.096312  0  1.028446  0  0  0.098744  0  1.027336  0  0  0.09669  0.09457  0  1.029229  0
H  H16  1  0.33564923  0.56797834  0.29804597  1  0  0.127841  0  0.957077  0  0  0.137296  0  1.017424  0  0  0.141707  0  1.014768  0  0  0.104846  0.134093  0  1.019493  0
H  H17  1  0.66435385  0.43200693  0.70196074  1  0  0.127856  0  0.957007  0  0  0.137268  0  1.017429  0  0  0.141683  0  1.014766  0  0  0.104806  0.134065  0  1.019498  0
H  H18  1  0.87096054  0.86128459  0.81398978  1  0  0.108241  0  0.917899  0  0  0.121008  0  0.975876  0  0  0.12331  0  0.973744  0  0  0.115498  0.119339  0  0.977534  0
H  H19  1  0.12903954  0.13870871  0.18601516  1  0  0.108264  0  0.917796  0  0  0.121026  0  0.975772  0  0  0.123327  0  0.973638  0  0  0.115494  0.119354  0  0.977432  0
H  H20  1  0.89374210  0.05158434  0.72627848  1  0  0.082775  0  0.956305  0  0  0.091851  0  1.025908  0  0  0.092351  0  1.026707  0  0  0.109093  0.091514  0  1.025428  0
H  H21  1  0.10625178  0.94841302  0.27372056  1  0  0.082717  0  0.956371  0  0  0.091799  0  1.025963  0  0  0.092298  0  1.026763  0  0  0.109075  0.091462  0  1.025482  0
H  H22  1  0.09646753  0.35055624  0.04008139  1  0  0.417787  0  0.894963  0  0  0.384544  0  0.96319  0  0  0.395782  0  0.946823  0  0  0.290703  0.376624  0  0.974721  0
H  H23  1  0.90353541  0.64943604  0.95991745  1  0  0.41778  0  0.894989  0  0  0.384519  0  0.963247  0  0  0.395758  0  0.946877  0  0  0.290718  0.3766  0  0.974771  0
H  H24  1  0.03223500  0.46448815  0.12848792  1  0  0.432316  0  0.863471  0  0  0.39317  0  0.944815  0  0  0.404234  0  0.928552  0  0  0.297563  0.385304  0  0.956359  0
H  H25  1  0.96776409  0.53550667  0.87151145  1  0  0.432368  0  0.863424  0  0  0.393212  0  0.94481  0  0  0.404281  0  0.928536  0  0  0.29756  0.385345  0  0.956357  0
H  H26  1  0.58392950  0.92894304  0.94690777  1  0  0.437171  0  0.84491  0  0  0.409264  0  0.908549  0  0  0.418556  0  0.894847  0  0  0.306507  0.402618  0  0.918369  0
H  H27  1  0.41606912  0.07104900  0.05309394  1  0  0.437211  0  0.84484  0  0  0.409321  0  0.90845  0  0  0.418612  0  0.894751  0  0  0.30652  0.402674  0  0.918271  0
H  H28  1  0.70283263  0.82881270  0.03200223  1  0  0.440731  0  0.857025  0  0  0.404755  0  0.928454  0  0  0.415879  0  0.912258  0  0  0.298169  0.396893  0  0.939887  0
H  H29  1  0.29716784  0.17118332  0.96800195  1  0  0.440704  0  0.85706  0  0  0.404746  0  0.928459  0  0  0.415867  0  0.912268  0  0  0.298155  0.39688  0  0.939899  0
C  C30  1  0.68205945  0.51676309  0.16976380  1  0  0.718157  0  3.834165  0  0  0.659966  0  4.137308  0  0  0.694906  0  4.129068  0  0  0.227757  0.636162  0  4.142266  0
C  C31  1  0.31794363  0.48323051  0.83023583  1  0  0.71852  0  3.833724  0  0  0.660242  0  4.137002  0  0  0.695204  0  4.128731  0  0  0.227906  0.636431  0  4.141963  0
C  C32  1  0.78410452  0.57497734  0.27591518  1  0  -0.080415  0  3.628002  0  0  -0.136257  0  3.882067  0  0  -0.133743  0  3.884519  0  0  -0.069606  -0.138147  0  3.880514  0
C  C33  1  0.21589844  0.42502562  0.72408522  1  0  -0.080339  0  3.627705  0  0  -0.136166  0  3.881908  0  0  -0.133657  0  3.884361  0  0  -0.069584  -0.138058  0  3.880354  0
C  C34  1  0.09071280  0.63299342  0.36629715  1  0  0.27266  0  3.818  0  0  0.26252  0  4.081063  0  0  0.274901  0  4.095834  0  0  0.077424  0.254054  0  4.070959  0
C  C35  1  0.90928945  0.36699470  0.63370479  1  0  0.272537  0  3.818244  0  0  0.262353  0  4.08131  0  0  0.274733  0  4.096082  0  0  0.077367  0.253889  0  4.071203  0
C  C36  1  0.02223146  0.70671626  0.45038316  1  0  -0.269579  0  3.757361  0  0  -0.29991  0  4.014344  0  0  -0.307609  0  4.034906  0  0  -0.120072  -0.294757  0  4.000515  0
C  C37  1  0.97776921  0.29327995  0.54961631  1  0  -0.269558  0  3.757444  0  0  -0.29987  0  4.014449  0  0  -0.307553  0  4.035025  0  0  -0.120088  -0.294704  0  4.000598  0
C  C38  1  0.14673830  0.77761065  0.53741699  1  0  0.10581  0  3.825097  0  0  0.125264  0  4.048015  0  0  0.128342  0  4.072113  0  0  -0.009923  0.12332  0  4.031658  0
C  C39  1  0.85326305  0.22239089  0.46258410  1  0  0.105938  0  3.824762  0  0  0.125286  0  4.047818  0  0  0.128358  0  4.071918  0  0  -0.009905  0.123343  0  4.031462  0
C  C40  1  0.07799649  0.84778460  0.62581912  1  0  -0.254108  0  3.73557  0  0  -0.285151  0  3.991631  0  0  -0.291651  0  4.010114  0  0  -0.117254  -0.280841  0  3.979192  0
C  C41  1  0.92199953  0.15221703  0.37417534  1  0  -0.254185  0  3.735501  0  0  -0.285206  0  3.991606  0  0  -0.291708  0  4.010093  0  0  -0.117256  -0.280891  0  3.979174  0
C  C42  1  0.20120381  0.91755976  0.70988781  1  0  0.273205  0  3.815033  0  0  0.26108  0  4.084172  0  0  0.273739  0  4.098364  0  0  0.07714  0.252424  0  4.074533  0
C  C43  1  0.79879856  0.08244861  0.29011097  1  0  0.273188  0  3.815041  0  0  0.261025  0  4.08425  0  0  0.273686  0  4.098436  0  0  0.077101  0.25235  0  4.074637  0
C  C44  1  0.39828095  0.92192444  0.70815161  1  0  -0.170428  0  3.731602  0  0  -0.1946  0  3.989983  0  0  -0.199441  0  4.007581  0  0  -0.106417  -0.191406  0  3.978191  0
C  C45  1  0.60171522  0.07808800  0.29184128  1  0  -0.170472  0  3.731465  0  0  -0.194664  0  3.989869  0  0  -0.199502  0  4.007463  0  0  -0.106388  -0.191466  0  3.978085  0
C  C46  1  0.46661890  0.85114657  0.62364620  1  0  -0.088302  0  3.773477  0  0  -0.106435  0  4.023259  0  0  -0.105945  0  4.043543  0  0  -0.089571  -0.106577  0  4.009416  0
C  C47  1  0.53338282  0.14885766  0.37635490  1  0  -0.088089  0  3.77362  0  0  -0.106261  0  4.023371  0  0  -0.105774  0  4.043649  0  0  -0.089529  -0.106404  0  4.009528  0
C  C48  1  0.34447454  0.77515674  0.53667539  1  0  0.006787  0  3.828782  0  0  0.021887  0  4.055263  0  0  0.018609  0  4.08006  0  0  -0.026328  0.023931  0  4.038508  0
C  C49  1  0.65552055  0.22483932  0.46332374  1  0  0.006587  0  3.828994  0  0  0.021717  0  4.055492  0  0  0.018455  0  4.080264  0  0  -0.026368  0.023761  0  4.038738  0
C  C50  1  0.40826111  0.69660445  0.44918975  1  0  -0.088847  0  3.7858  0  0  -0.108774  0  4.039794  0  0  -0.108472  0  4.060779  0  0  -0.090915  -0.108732  0  4.025495  0
C  C51  1  0.59174390  0.30339320  0.55081078  1  0  -0.088589  0  3.785477  0  0  -0.108486  0  4.039431  0  0  -0.108191  0  4.060407  0  0  -0.090885  -0.10845  0  4.025143  0
C  C52  1  0.28583455  0.62602133  0.36570449  1  0  -0.178035  0  3.726501  0  0  -0.203487  0  3.986238  0  0  -0.20839  0  4.003692  0  0  -0.108324  -0.200242  0  3.974556  0
C  C53  1  0.71416834  0.37397207  0.63429985  1  0  -0.178067  0  3.726393  0  0  -0.203493  0  3.986143  0  0  -0.208399  0  4.003601  0  0  -0.108245  -0.200249  0  3.97446  0
C  C54  1  0.95172337  0.99645545  0.80087648  1  0  -0.078499  0  3.619105  0  0  -0.135066  0  3.878073  0  0  -0.132527  0  3.879486  0  0  -0.068079  -0.136916  0  3.877183  0
C  C55  1  0.04826957  0.00354583  0.19912486  1  0  -0.078495  0  3.619023  0  0  -0.135012  0  3.877896  0  0  -0.132475  0  3.879309  0  0  -0.068056  -0.13686  0  3.876995  0
C  C56  1  0.92484452  0.12224000  0.88783364  1  0  0.712078  0  3.824913  0  0  0.648063  0  4.14129  0  0  0.682752  0  4.132106  0  0  0.224002  0.624467  0  4.146862  0
C  C57  1  0.07514548  0.87775872  0.11216202  1  0  0.712151  0  3.82505  0  0  0.648121  0  4.141431  0  0  0.68281  0  4.132248  0  0  0.22406  0.624526  0  4.147002  0
O  O58  1  0.52332107  0.56609740  0.15283546  1  0  -0.645928  0  2.088262  0  0  -0.575055  0  2.36568  0  0  -0.604093  0  2.349366  0  0  -0.311533  -0.554781  0  2.376285  0
O  O59  1  0.47667069  0.43391470  0.84716265  1  0  -0.645975  0  2.088432  0  0  -0.575067  0  2.365904  0  0  -0.604111  0  2.349574  0  0  -0.311524  -0.554794  0  2.376511  0
O  O60  1  0.76011147  0.42522765  0.10889797  1  0  -0.657766  0  2.103856  0  0  -0.579558  0  2.371586  0  0  -0.608494  0  2.354786  0  0  -0.303325  -0.559593  0  2.382772  0
O  O61  1  0.23988428  0.57479270  0.89109803  1  0  -0.658041  0  2.103347  0  0  -0.579806  0  2.371196  0  0  -0.608737  0  2.354346  0  0  -0.30344  -0.559825  0  2.382375  0
O  O62  1  0.97972769  0.56417179  0.27846477  1  0  -0.267911  0  2.371071  0  0  -0.187897  0  2.595474  0  0  -0.206677  0  2.600459  0  0  -0.174121  -0.174607  0  2.591768  0
O  O63  1  0.02026972  0.43582155  0.72153686  1  0  -0.268018  0  2.371104  0  0  -0.187854  0  2.595372  0  0  -0.206637  0  2.60036  0  0  -0.174078  -0.174564  0  2.591664  0
O  O64  1  0.14735965  0.98869244  0.79831250  1  0  -0.259543  0  2.341134  0  0  -0.187736  0  2.573789  0  0  -0.204446  0  2.575487  0  0  -0.178905  -0.175943  0  2.572325  0
O  O65  1  0.85264051  0.01131044  0.20168773  1  0  -0.259519  0  2.341184  0  0  -0.187755  0  2.573894  0  0  -0.204457  0  2.575578  0  0  -0.178931  -0.175957  0  2.572434  0
O  O66  1  0.75291791  0.14277502  0.89351811  1  0  -0.683471  0  2.056685  0  0  -0.606602  0  2.332286  0  0  -0.636237  0  2.314988  0  0  -0.317958  -0.58579  0  2.343546  0
O  O67  1  0.24707714  0.85722101  0.10648180  1  0  -0.683566  0  2.056504  0  0  -0.606735  0  2.332176  0  0  -0.636368  0  2.314877  0  0  -0.31807  -0.585924  0  2.343438  0
O  O68  1  0.06420007  0.19807168  0.94565827  1  0  -0.623481  0  2.072139  0  0  -0.552402  0  2.296006  0  0  -0.578988  0  2.286323  0  0  -0.291735  -0.534105  0  2.302337  0
O  O69  1  0.93579973  0.80192850  0.05434193  1  0  -0.623443  0  2.072618  0  0  -0.552316  0  2.296447  0  0  -0.578907  0  2.286775  0  0  -0.291662  -0.534024  0  2.302777  0
O  O70  1  0.14511230  0.43863154  0.09766275  1  0  -0.847938  0  1.938491  0  0  -0.789055  0  2.168091  0  0  -0.811103  0  2.130071  0  0  -0.581539  -0.773327  0  2.194395  0
O  O71  1  0.85489042  0.56135937  0.90233687  1  0  -0.847931  0  1.938488  0  0  -0.789065  0  2.167985  0  0  -0.811116  0  2.129958  0  0  -0.581527  -0.773332  0  2.194291  0
O  O72  1  0.57474539  0.82528634  0.99508451  1  0  -0.862646  0  1.913031  0  0  -0.801935  0  2.136427  0  0  -0.822701  0  2.099497  0  0  -0.583531  -0.787262  0  2.162217  0
O  O73  1  0.42524747  0.17471603  0.00492310  1  0  -0.862644  0  1.912995  0  0  -0.801927  0  2.136381  0  0  -0.822691  0  2.099454  0  0  -0.583507  -0.787251  0  2.16217  0
