# generated using pymatgen
data_MnH8C16(N5O)2
_symmetry_space_group_name_H-M   'P 1'
_cell_length_a   6.83806284
_cell_length_b   7.32250809
_cell_length_c   19.13589092
_cell_angle_alpha   89.99865724
_cell_angle_beta   90.00057835
_cell_angle_gamma   116.63960790
_symmetry_Int_Tables_number   1
_chemical_formula_structural   MnH8C16(N5O)2
_chemical_formula_sum   'Mn2 H16 C32 N20 O4'
_cell_volume   856.45313307
_cell_formula_units_Z   2
loop_
 _symmetry_equiv_pos_site_id
 _symmetry_equiv_pos_as_xyz
  1  'x, y, z'
loop_
 _atom_site_type_symbol
 _atom_site_label
 _atom_site_symmetry_multiplicity
 _atom_site_fract_x
 _atom_site_fract_y
 _atom_site_fract_z
 _atom_site_occupancy
 _atom_site_hle17_ddec_charge
 _atom_site_hle17_ddec_spin_density
 _atom_site_hle17_ddec_sum_bond_order
 _atom_site_hle17_magmom
 _atom_site_hse06_10hf_ddec_charge
 _atom_site_hse06_10hf_ddec_spin_density
 _atom_site_hse06_10hf_ddec_sum_bond_order
 _atom_site_hse06_10hf_magmom
 _atom_site_hse06_ddec_charge
 _atom_site_hse06_ddec_spin_density
 _atom_site_hse06_ddec_sum_bond_order
 _atom_site_hse06_magmom
 _atom_site_pbe_cm5_charge
 _atom_site_pbe_ddec_charge
 _atom_site_pbe_ddec_spin_density
 _atom_site_pbe_ddec_sum_bond_order
 _atom_site_pbe_magmom
Mn  Mn0  1  0.49999432  0.99999860  0.99999846  1  1.190446  -4.785545  2.011722  -4.623  1.066738  -4.650273  2.541697  -4.434  1.108331  -4.734861  2.470874  -4.532  0.673851  1.03426  -4.556204  2.595044  -4.327
Mn  Mn1  1  0.00000513  0.50000595  0.50000009  1  1.190623  4.785542  2.011507  4.623  1.066932  4.650268  2.541543  4.434  1.108526  4.734837  2.470712  4.532  0.673942  1.034462  4.556205  2.594902  4.327
H  H2  1  0.70457318  0.03377394  0.81684732  1  0.125917  0.00065  0.950309  0.001  0.130547  5.9e-05  1.017396  0.0  0.134015  0.000136  1.013972  0.0  0.133414  0.128074  -1.4e-05  1.019862  0.0
H  H3  1  0.20458975  0.53378383  0.68315300  1  0.125889  -0.00065  0.950324  -0.001  0.130518  -5.9e-05  1.017374  0.0  0.133966  -0.000136  1.014009  0.0  0.133425  0.128045  1.4e-05  1.019841  0.0
H  H4  1  0.29542279  0.96621455  0.18314942  1  0.125904  0.00065  0.950286  0.001  0.13053  5.9e-05  1.017373  0.0  0.134001  0.000136  1.013947  0.0  0.133424  0.128058  -1.4e-05  1.019841  0.0
H  H5  1  0.79541493  0.46621691  0.31684949  1  0.125917  -0.00065  0.95029  -0.001  0.130539  -5.9e-05  1.01736  0.0  0.134001  -0.000136  1.013957  0.0  0.133423  0.128069  1.4e-05  1.019827  0.0
H  H6  1  0.69289492  0.76053158  0.73603046  1  0.127047  -0.000152  0.95095  -0.001  0.133006  0.000351  1.014023  0.0  0.136458  0.000264  1.01311  0.0  0.116763  0.13049  0.000429  1.014827  0.0
H  H7  1  0.19289357  0.26053163  0.76397406  1  0.127039  0.000152  0.950907  0.001  0.133003  -0.000352  1.01398  0.0  0.136452  -0.000263  1.013079  0.0  0.11681  0.130488  -0.000428  1.014788  0.0
H  H8  1  0.30711934  0.23946467  0.26396785  1  0.126966  -0.000152  0.95091  -0.001  0.132875  0.000351  1.014054  0.0  0.136323  0.000264  1.013155  0.0  0.116731  0.13036  0.000429  1.014862  0.0
H  H9  1  0.80711549  0.73947218  0.23602843  1  0.127077  0.000152  0.950877  0.001  0.133049  -0.000351  1.013948  0.0  0.136494  -0.000264  1.01306  0.0  0.116802  0.130533  -0.000429  1.014753  0.0
H  H10  1  0.89659739  0.50746503  0.91080616  1  0.137033  -9e-05  0.926341  -0.001  0.145152  0.000259  0.982693  0.0  0.149138  0.000259  0.980775  0.0  0.124341  0.142149  0.000237  0.984373  0.0
H  H11  1  0.39658534  0.00746516  0.58919666  1  0.136999  9e-05  0.926498  0.001  0.145171  -0.000259  0.982792  0.0  0.149164  -0.000259  0.98087  0.0  0.124319  0.142167  -0.000237  0.984472  0.0
H  H12  1  0.10339852  0.49253259  0.08919320  1  0.13705  -9e-05  0.926312  -0.001  0.145153  0.000259  0.982646  0.0  0.149143  0.000259  0.980731  0.0  0.124325  0.142148  0.000237  0.984324  0.0
H  H13  1  0.60341497  0.99253250  0.41080479  1  0.137032  9e-05  0.92645  0.001  0.145185  -0.000259  0.982729  0.0  0.14918  -0.000259  0.980809  0.0  0.124327  0.142184  -0.000237  0.98441  0.0
H  H14  1  0.92019728  0.80463958  0.98262384  1  0.124561  0.000961  0.961205  0.001  0.128644  0.000412  1.027693  0.0  0.133314  0.000478  1.023438  0.0  0.132803  0.125115  0.000327  1.031052  0.0
H  H15  1  0.42019774  0.30465186  0.51737901  1  0.124626  -0.000961  0.961133  -0.001  0.12872  -0.000412  1.02758  0.0  0.133391  -0.000478  1.023323  0.0  0.132852  0.125221  -0.000327  1.030913  0.0
H  H16  1  0.07978474  0.19535031  0.01737865  1  0.12451  0.00096  0.961293  0.001  0.128587  0.000412  1.027785  0.0  0.133258  0.000478  1.023528  0.0  0.132777  0.125066  0.000327  1.031138  0.0
H  H17  1  0.57980035  0.69534730  0.48262296  1  0.124536  -0.000961  0.96119  -0.001  0.128627  -0.000412  1.027664  0.0  0.133298  -0.000478  1.023409  0.0  0.132797  0.125128  -0.000327  1.030993  0.0
C  C18  1  0.74683748  0.91403077  0.83346772  1  0.026961  -0.019263  3.563092  -0.016  -0.015137  -0.016722  3.825207  -0.013  -0.008507  -0.015884  3.835925  -0.013  0.050201  -0.019436  -0.017972  3.818509  -0.013
C  C19  1  0.24686189  0.41404467  0.66653667  1  0.027067  0.019276  3.563256  0.016  -0.014936  0.016722  3.82521  0.013  -0.008327  0.015888  3.835957  0.013  0.050144  -0.019227  0.017971  3.818479  0.013
C  C20  1  0.25315180  0.08596832  0.16653112  1  0.026967  -0.019258  3.563275  -0.016  -0.015093  -0.016716  3.825311  -0.013  -0.008469  -0.015876  3.836036  -0.013  0.050182  -0.019381  -0.017963  3.818582  -0.013
C  C21  1  0.75314790  0.58596067  0.33346687  1  0.026977  0.019277  3.562937  0.016  -0.015034  0.016723  3.824945  0.013  -0.008418  0.015888  3.835689  0.013  0.050163  -0.019323  0.017972  3.818218  0.013
C  C22  1  0.74039192  0.76057251  0.79028200  1  -0.100613  0.012831  3.691288  0.012  -0.122397  0.005315  3.944266  0.006  -0.125939  0.007937  3.960791  0.007  -0.060867  -0.120553  0.003064  3.933701  0.004
C  C23  1  0.24039584  0.26056835  0.70972007  1  -0.10066  -0.012845  3.691305  -0.012  -0.122456  -0.005316  3.94428  -0.006  -0.125999  -0.007942  3.960795  -0.007  -0.060867  -0.120612  -0.003064  3.933721  -0.004
C  C24  1  0.25961647  0.23942369  0.20971526  1  -0.100463  0.012833  3.691115  0.012  -0.122225  0.005317  3.944084  0.006  -0.125766  0.007936  3.960608  0.007  -0.060833  -0.120385  0.003063  3.933528  0.004
C  C25  1  0.75960957  0.73943391  0.29028137  1  -0.100627  -0.012844  3.691203  -0.012  -0.12248  -0.005317  3.944199  -0.006  -0.126025  -0.007939  3.960715  -0.007  -0.060871  -0.120633  -0.003065  3.933638  -0.004
C  C26  1  0.79322071  0.60965856  0.81722011  1  0.05509  -0.019952  3.86821  -0.018  0.064127  -0.020539  4.107237  -0.017  0.067119  -0.017938  4.123998  -0.015  0.013441  0.062228  -0.023756  4.096279  -0.019
C  C27  1  0.29320857  0.10964985  0.68278194  1  0.055351  0.019962  3.868109  0.018  0.064343  0.020538  4.107217  0.017  0.067336  0.017943  4.123982  0.015  0.013538  0.062442  0.023752  4.096256  0.019
C  C28  1  0.20679273  0.39034834  0.18277715  1  0.055136  -0.019955  3.868191  -0.018  0.064165  -0.020544  4.107189  -0.017  0.067157  -0.017936  4.123954  -0.015  0.013489  0.062266  -0.023757  4.096228  -0.019
C  C29  1  0.70679684  0.89035242  0.31721951  1  0.055186  0.019963  3.868248  0.018  0.064244  0.02054  4.107257  0.017  0.067236  0.017937  4.124022  0.015  0.013477  0.062347  0.023753  4.096297  0.019
C  C30  1  0.85537015  0.62139271  0.88770709  1  -0.088183  0.013006  3.678992  0.012  -0.109458  0.005566  3.930448  0.006  -0.111921  0.00814  3.945  0.007  -0.056256  -0.108573  0.003411  3.921836  0.004
C  C31  1  0.35536103  0.12138838  0.61229612  1  -0.08825  -0.013019  3.679136  -0.012  -0.109588  -0.005566  3.930622  -0.006  -0.11206  -0.008145  3.94518  -0.007  -0.056294  -0.108703  -0.003411  3.922014  -0.004
C  C32  1  0.14463162  0.37860496  0.11229331  1  -0.088373  0.013007  3.67904  0.012  -0.109571  0.005568  3.930431  0.006  -0.112043  0.008138  3.944991  0.007  -0.056325  -0.108685  0.003411  3.921815  0.004
C  C33  1  0.64464366  0.87861235  0.38770637  1  -0.088271  -0.013021  3.679001  -0.012  -0.10955  -0.005567  3.930413  -0.006  -0.112022  -0.008144  3.944973  -0.007  -0.056287  -0.108669  -0.003412  3.921812  -0.004
C  C34  1  0.86364916  0.77918515  0.92872670  1  0.019472  -0.019227  3.56677  -0.016  -0.025507  -0.016702  3.834576  -0.013  -0.018883  -0.015718  3.844712  -0.013  0.046723  -0.030211  -0.018173  3.829087  -0.014
C  C35  1  0.36365833  0.27919721  0.57127722  1  0.019396  0.019241  3.566645  0.016  -0.025563  0.016702  3.834442  0.013  -0.018938  0.015723  3.844579  0.013  0.046675  -0.030297  0.018172  3.828938  0.014
C  C36  1  0.13633067  0.22080321  0.07127213  1  0.019574  -0.019235  3.566715  -0.016  -0.02544  -0.016707  3.834513  -0.013  -0.018813  -0.015721  3.844646  -0.013  0.046739  -0.030155  -0.018179  3.82902  -0.014
C  C37  1  0.63634493  0.72079743  0.42872632  1  0.019502  0.019241  3.566718  0.016  -0.025496  0.016702  3.83453  0.013  -0.018872  0.015723  3.844668  0.013  0.046761  -0.030223  0.018172  3.829023  0.014
C  C38  1  0.78548181  0.44713595  0.77503936  1  0.279287  0.00561  3.709476  0.006  0.263762  0.001668  3.986088  0.003  0.275291  0.002867  3.999478  0.004  0.195852  0.255492  0.000633  3.97785  0.003
C  C39  1  0.28547205  0.94712477  0.72496539  1  0.279034  -0.005624  3.709545  -0.006  0.26352  -0.001668  3.986159  -0.003  0.27505  -0.002863  3.999551  -0.004  0.195673  0.25525  -0.000633  3.97792  -0.003
C  C40  1  0.21454413  0.55286952  0.22496000  1  0.2793  0.005611  3.709766  0.006  0.26376  0.001665  3.986377  0.003  0.27529  0.002869  3.99977  0.004  0.195826  0.255488  0.000633  3.978141  0.003
C  C41  1  0.71453998  0.05287602  0.27503553  1  0.279169  -0.005625  3.709602  -0.006  0.263628  -0.001667  3.986199  -0.003  0.275157  -0.002867  3.999593  -0.004  0.195734  0.255354  -0.000633  3.977961  -0.003
C  C42  1  0.31458744  0.55911524  0.92344396  1  0.506482  -0.02188  3.980339  -0.022  0.472479  -0.026514  4.262843  -0.026  0.495494  -0.024009  4.278891  -0.024  0.317238  0.456837  -0.029095  4.250337  -0.028
C  C43  1  0.81458374  0.05910967  0.57655705  1  0.506624  0.021875  3.980613  0.022  0.472639  0.026502  4.263082  0.026  0.495648  0.024016  4.27912  0.024  0.317331  0.456997  0.029086  4.250584  0.028
C  C44  1  0.68540550  0.44088540  0.07655174  1  0.506323  -0.021893  3.980172  -0.022  0.472364  -0.026517  4.262674  -0.026  0.49537  -0.02402  4.278725  -0.024  0.317151  0.456723  -0.029101  4.25017  -0.028
C  C45  1  0.18541130  0.94090469  0.42344074  1  0.506434  0.021887  3.980619  0.022  0.472477  0.026508  4.263123  0.026  0.495477  0.02403  4.279167  0.024  0.317227  0.456835  0.029096  4.250623  0.028
C  C46  1  0.34287155  0.26468846  0.90358997  1  0.491081  -0.023982  3.987862  -0.023  0.454703  -0.028365  4.277145  -0.027  0.477563  -0.025355  4.292902  -0.024  0.306131  0.439  -0.031518  4.265135  -0.029
C  C47  1  0.84288046  0.76469101  0.59641035  1  0.491042  0.023984  3.98773  0.023  0.454677  0.028364  4.277014  0.027  0.477534  0.025364  4.292765  0.024  0.306101  0.438972  0.031516  4.265005  0.029
C  C48  1  0.65711187  0.73531058  0.09641096  1  0.490937  -0.023981  3.987643  -0.023  0.454586  -0.028366  4.276946  -0.027  0.477438  -0.025353  4.2927  -0.024  0.306108  0.438882  -0.031516  4.264936  -0.029
C  C49  1  0.15711600  0.23532944  0.40358953  1  0.490864  0.02398  3.987863  0.023  0.45453  0.02836  4.277147  0.027  0.477373  0.025376  4.292893  0.024  0.306034  0.438831  0.031515  4.265143  0.029
N  N50  1  0.80579265  0.92112603  0.90188896  1  0.27514  0.006738  3.706821  0.007  0.325227  -0.003463  3.967442  -0.004  0.32723  0.002432  3.990591  0.003  -0.102824  0.322602  -0.008811  3.951755  -0.01
N  N51  1  0.30581055  0.42114258  0.59811610  1  0.274901  -0.006746  3.706825  -0.007  0.325012  0.003462  3.967421  0.004  0.327013  -0.002432  3.990562  -0.003  -0.102821  0.322392  0.00881  3.951738  0.01
N  N52  1  0.19419452  0.07886239  0.09811197  1  0.275021  0.006738  3.70683  0.007  0.325138  -0.003459  3.967422  -0.004  0.327142  0.002426  3.990572  0.003  -0.102776  0.322516  -0.008811  3.951737  -0.01
N  N53  1  0.69419045  0.57885964  0.40188849  1  0.275045  -0.006744  3.706837  -0.007  0.32515  0.003461  3.967441  0.004  0.327153  -0.002429  3.990586  -0.003  -0.102773  0.322528  0.008812  3.951763  0.01
N  N54  1  0.77809514  0.31073774  0.74154896  1  -0.374039  -0.011071  2.578476  -0.011  -0.355284  -0.010262  2.805989  -0.01  -0.363761  -0.009036  2.817466  -0.009  -0.289401  -0.350129  -0.012139  2.798945  -0.012
N  N55  1  0.27806777  0.81071826  0.75845855  1  -0.373924  0.011086  2.578605  0.011  -0.355126  0.010261  2.806058  0.01  -0.363603  0.009033  2.81754  0.009  -0.289257  -0.349973  0.012137  2.799016  0.012
N  N56  1  0.22194030  0.68927237  0.25844935  1  -0.374049  -0.011073  2.578715  -0.011  -0.355266  -0.01026  2.806199  -0.01  -0.363743  -0.009039  2.817677  -0.009  -0.289367  -0.350116  -0.01214  2.799157  -0.012
N  N57  1  0.72194205  0.18928403  0.24154447  1  -0.373986  0.011087  2.578566  0.011  -0.355203  0.01026  2.806045  0.01  -0.36368  0.009038  2.817521  0.009  -0.289295  -0.350051  0.012138  2.799003  0.012
N  N58  1  0.33230468  0.70424836  0.95501752  1  -0.602674  -0.019587  2.849161  0.001  -0.56108  -0.026782  3.141073  -0.001  -0.583953  -0.022729  3.144989  0.003  -0.375853  -0.543635  -0.030968  3.137813  -0.005
N  N59  1  0.83230174  0.20424627  0.54498696  1  -0.6028  0.019587  2.849438  -0.001  -0.56122  0.026786  3.141342  0.001  -0.58409  0.022716  3.145253  -0.003  -0.375914  -0.543784  0.030975  3.138093  0.005
N  N60  1  0.66769055  0.29574165  0.04498132  1  -0.602644  -0.019575  2.848978  0.001  -0.561078  -0.026775  3.140926  -0.001  -0.583962  -0.022721  3.144862  0.003  -0.375819  -0.543637  -0.030966  3.137666  -0.005
N  N61  1  0.16769339  0.79575591  0.45501240  1  -0.602785  0.019586  2.849203  -0.001  -0.5612  0.026792  3.141105  0.001  -0.584075  0.022703  3.145024  -0.003  -0.375867  -0.543761  0.030977  3.137858  0.005
N  N62  1  0.28349078  0.40283775  0.88539150  1  -0.465908  -0.008822  3.291978  -0.007  -0.411367  -0.01413  3.552818  -0.011  -0.437636  -0.011547  3.562518  -0.009  -0.305993  -0.391912  -0.016972  3.544522  -0.013
N  N63  1  0.78349902  0.90282852  0.61460946  1  -0.465897  0.00882  3.292039  0.007  -0.411386  0.014134  3.552889  0.011  -0.437641  0.011568  3.56257  0.009  -0.306026  -0.391933  0.016971  3.544603  0.013
N  N64  1  0.71648905  0.59715061  0.11460576  1  -0.465766  -0.008821  3.29169  -0.007  -0.411273  -0.014135  3.552543  -0.011  -0.437529  -0.011551  3.562239  -0.009  -0.306  -0.391817  -0.016974  3.544247  -0.013
N  N65  1  0.21650047  0.09717978  0.38538938  1  -0.465794  0.008822  3.292063  0.007  -0.411331  0.014129  3.552929  0.011  -0.437575  0.011585  3.56262  0.009  -0.306021  -0.391873  0.016973  3.54463  0.013
N  N66  1  0.39076768  0.13142518  0.91508737  1  -0.598694  -0.018463  2.813402  0.0  -0.563527  -0.029326  3.105475  -0.006  -0.58469  -0.024195  3.108984  -0.001  -0.372041  -0.547517  -0.034667  3.102816  -0.01
N  N67  1  0.89079341  0.63143923  0.58490647  1  -0.598727  0.018463  2.813156  0.0  -0.563553  0.029325  3.105239  0.006  -0.584719  0.024178  3.108753  0.001  -0.372037  -0.547544  0.034669  3.102582  0.01
N  N68  1  0.60920996  0.86856164  0.08490885  1  -0.598536  -0.018463  2.813395  0.0  -0.56338  -0.029323  3.105497  -0.006  -0.584531  -0.024194  3.108984  -0.001  -0.371964  -0.547375  -0.034669  3.102837  -0.01
N  N69  1  0.10922288  0.36857986  0.41509550  1  -0.5985  0.018468  2.8136  0.0  -0.563316  0.029335  3.105663  0.006  -0.584476  0.02416  3.109178  0.001  -0.371925  -0.547312  0.03467  3.103011  0.01
O  O70  1  0.80118136  0.06324100  0.94303328  1  -0.533191  -0.015553  1.843341  -0.002  -0.487266  -0.017362  2.101397  0.0  -0.514492  -0.016726  2.098948  0.0  -0.210584  -0.467152  -0.020159  2.102812  -0.003
O  O71  1  0.30119884  0.56325718  0.55696712  1  -0.533022  0.015545  1.8432  0.002  -0.487223  0.017366  2.10136  0.0  -0.514437  0.016721  2.098903  0.0  -0.210611  -0.46712  0.020165  2.102786  0.003
O  O72  1  0.19879626  0.93674886  0.05696398  1  -0.533047  -0.015544  1.843253  -0.002  -0.487213  -0.01736  2.101384  0.0  -0.514434  -0.016719  2.098927  0.0  -0.210626  -0.46711  -0.020157  2.102808  -0.003
O  O73  1  0.69880657  0.43674509  0.44303485  1  -0.53311  0.015545  1.843242  0.002  -0.487282  0.017364  2.101367  0.0  -0.514499  0.016718  2.098911  0.0  -0.210665  -0.467178  0.020162  2.102796  0.003
