# generated using pymatgen
data_FeH68C66S6(N3O2)2
_symmetry_space_group_name_H-M   'P 1'
_cell_length_a   15.37567646
_cell_length_b   15.37581609
_cell_length_c   20.37884599
_cell_angle_alpha   90.59642622
_cell_angle_beta   90.59624772
_cell_angle_gamma   118.04424526
_symmetry_Int_Tables_number   1
_chemical_formula_structural   FeH68C66S6(N3O2)2
_chemical_formula_sum   'Fe2 H136 C132 S12 N12 O8'
_cell_volume   4251.27920020
_cell_formula_units_Z   2
loop_
 _symmetry_equiv_pos_site_id
 _symmetry_equiv_pos_as_xyz
  1  'x, y, z'
loop_
 _atom_site_type_symbol
 _atom_site_label
 _atom_site_symmetry_multiplicity
 _atom_site_fract_x
 _atom_site_fract_y
 _atom_site_fract_z
 _atom_site_occupancy
 _atom_site_pbe_bader_charge
 _atom_site_pbe_bader_spin_density
 _atom_site_pbe_cm5_charge
 _atom_site_pbe_ddec_charge
 _atom_site_pbe_ddec_spin_density
 _atom_site_pbe_ddec_sum_bond_order
 _atom_site_pbe_magmom
Fe  Fe0  1  0.99999607  0.49999546  0.49999945  1  1.371518  3.588575  0.734238  0.682262  3.914118  2.92853  3.563
Fe  Fe1  1  0.50000114  0.99999469  0.99999846  1  1.371746  3.588463  0.734347  0.682456  3.914023  2.928937  3.563
H  H2  1  0.93833479  0.13904341  0.44464669  1  0.090462  -0.000139  0.09702  0.100698  -0.000177  1.044981  0.0
H  H3  1  0.68096011  0.91224935  0.34586871  1  0.084801  -8e-05  0.100185  0.102178  -8.9e-05  1.01676  0.0
H  H4  1  0.85794799  0.74958920  0.39644574  1  0.073263  0.000132  0.095877  0.062505  3.5e-05  1.018629  0.0
H  H5  1  0.94833500  0.83794389  0.45118141  1  0.067206  0.000141  0.092585  0.056099  1e-05  1.044444  0.0
H  H6  1  0.91347476  0.64165962  0.46314198  1  0.098351  0.001431  0.114543  0.086995  0.000179  1.015647  0.001
H  H7  1  0.15442024  0.61834881  0.39608034  1  0.07807  0.001456  0.118303  0.092557  0.000219  0.99361  0.001
H  H8  1  0.19866273  0.75856350  0.31998624  1  0.076654  0.000925  0.106726  0.106851  0.000411  1.00993  0.0
H  H9  1  0.09843726  0.85051137  0.32125123  1  0.096067  -0.000294  0.111794  0.12008  -0.000399  0.997605  0.0
H  H10  1  0.60216357  0.93832087  0.43076302  1  0.005423  3.3e-05  0.084759  0.11579  2.2e-05  1.013361  0.0
H  H11  1  0.60360769  0.03824305  0.47646786  1  0.030972  4.3e-05  0.089317  0.127251  2.5e-05  0.995835  0.0
H  H12  1  0.67381938  0.98053517  0.50412563  1  0.017659  3e-06  0.082554  0.111357  1.1e-05  1.041857  0.0
H  H13  1  0.76288700  0.15767068  0.32996684  1  0.020984  -1.5e-05  0.080259  0.110223  -3.1e-05  1.048019  0.0
H  H14  1  0.66415134  0.15414051  0.37611060  1  0.0303  0.000265  0.083536  0.119764  0.000155  1.036661  0.0
H  H15  1  0.64878398  0.04704155  0.33185751  1  0.016044  -5.8e-05  0.080916  0.107478  -7.6e-05  1.03443  0.0
H  H16  1  0.82380193  0.15040885  0.51137927  1  0.010838  -3.4e-05  0.078662  0.107153  -5.9e-05  1.034511  0.0
H  H17  1  0.74930528  0.20194598  0.48108415  1  0.039551  9.2e-05  0.08168  0.12102  -2.9e-05  1.030546  0.0
H  H18  1  0.86034085  0.22737564  0.44164810  1  0.015512  -0.000179  0.082209  0.116932  -0.000344  1.039114  0.0
H  H19  1  0.34402237  0.16725949  0.22256181  1  0.071729  -1.4e-05  0.101297  0.106974  -1.8e-05  1.028596  0.0
H  H20  1  0.22703499  0.01726310  0.40385412  1  0.065017  -7.9e-05  0.098888  0.100659  -8.8e-05  1.035845  0.0
H  H21  1  0.18980597  0.33543135  0.31494510  1  0.078549  0.0002  0.097379  0.065811  5.4e-05  0.999621  0.0
H  H22  1  0.15384776  0.27826568  0.39313489  1  0.06637  5e-05  0.098857  0.065309  -1.3e-05  0.997963  0.0
H  H23  1  0.11451224  0.40121554  0.43846767  1  0.078404  0.001612  0.113693  0.087995  0.000273  1.028065  0.001
H  H24  1  0.87082187  0.42315159  0.37203713  1  0.134619  0.001458  0.118472  0.094157  0.000212  1.002492  0.001
H  H25  1  0.85226067  0.31790763  0.27363375  1  0.069924  0.000939  0.11002  0.111947  0.000436  1.003508  0.0
H  H26  1  0.96842002  0.24514659  0.26030487  1  0.12165  -0.000346  0.111316  0.118398  -0.000537  1.004896  0.0
H  H27  1  0.50484466  0.06958395  0.26666417  1  0.016118  -8.4e-05  0.083685  0.115006  -8.5e-05  1.030459  0.0
H  H28  1  0.48211923  0.16937675  0.24796844  1  0.011127  1.9e-05  0.087525  0.120881  2.3e-05  0.999251  0.0
H  H29  1  0.40168549  0.04863938  0.21658435  1  0.008973  -0.000178  0.080468  0.110003  -0.000228  1.046017  0.0
H  H30  1  0.30224216  0.91188134  0.29608560  1  0.014182  4.7e-05  0.080531  0.107403  2.2e-05  1.036521  0.0
H  H31  1  0.30403696  0.93582193  0.38183952  1  0.036079  -3e-05  0.084951  0.116062  -3.2e-05  1.034516  0.0
H  H32  1  0.41067339  0.94374336  0.34411044  1  0.035442  -4e-06  0.087542  0.123607  -2e-06  0.995629  0.0
H  H33  1  0.41049801  0.12120947  0.42410294  1  0.033819  3e-05  0.083813  0.117956  9e-06  1.030135  0.0
H  H34  1  0.48315324  0.21131140  0.36658970  1  0.055997  0.000197  0.083508  0.126864  9.2e-05  1.001473  0.0
H  H35  1  0.51244068  0.11604054  0.38775374  1  0.010659  0.000161  0.08336  0.119311  7.4e-05  1.028102  0.0
H  H36  1  0.86095623  0.06166099  0.05535752  1  0.090545  -0.000139  0.097021  0.100707  -0.000177  1.044972  0.0
H  H37  1  0.08774958  0.31903407  0.15413475  1  0.084878  -8e-05  0.100199  0.102197  -8.9e-05  1.016747  0.0
H  H38  1  0.25041288  0.14205360  0.10355789  1  0.073207  0.000132  0.09591  0.062585  3.5e-05  1.018613  0.0
H  H39  1  0.16205644  0.05166714  0.04882122  1  0.067221  0.000142  0.09259  0.056161  1e-05  1.044418  0.0
H  H40  1  0.35834406  0.08652611  0.03685802  1  0.098429  0.001431  0.114578  0.087018  0.000179  1.015611  0.001
H  H41  1  0.38165879  0.84558896  0.10392161  1  0.078363  0.001456  0.118266  0.092369  0.000219  0.993781  0.001
H  H42  1  0.24144474  0.80134238  0.18001629  1  0.0764  0.000926  0.106695  0.106801  0.000412  1.009915  0.0
H  H43  1  0.14949150  0.90156453  0.17875048  1  0.09613  -0.000294  0.111797  0.120022  -0.000399  0.997594  0.0
H  H44  1  0.06168179  0.39783338  0.06923914  1  0.005339  3.3e-05  0.084799  0.115803  2.2e-05  1.013426  0.0
H  H45  1  0.96175954  0.39638693  0.02353566  1  0.031202  4.3e-05  0.089368  0.127253  2.5e-05  0.995827  0.0
H  H46  1  0.01946672  0.32617737  0.99587717  1  0.01769  3e-06  0.082529  0.111323  1.1e-05  1.041856  0.0
H  H47  1  0.84232907  0.23711106  0.17003566  1  0.021146  -1.5e-05  0.080269  0.110261  -3.1e-05  1.047971  0.0
H  H48  1  0.84586005  0.33584500  0.12389151  1  0.030128  0.000266  0.083529  0.119743  0.000155  1.036715  0.0
H  H49  1  0.95295878  0.35121315  0.16814450  1  0.016016  -5.8e-05  0.080908  0.10749  -7.6e-05  1.034462  0.0
H  H50  1  0.84959121  0.17619805  0.98862286  1  0.010894  -3.4e-05  0.078646  0.10712  -5.9e-05  1.034489  0.0
H  H51  1  0.79805620  0.25069534  0.01891698  1  0.039539  9.2e-05  0.081655  0.120937  -2.9e-05  1.030533  0.0
H  H52  1  0.77262213  0.13965915  0.05835241  1  0.015481  -0.000179  0.082216  0.116945  -0.000344  1.039067  0.0
H  H53  1  0.83274369  0.65598258  0.27744226  1  0.071707  -1.4e-05  0.101283  0.107026  -1.8e-05  1.028516  0.0
H  H54  1  0.98274189  0.77296750  0.09615088  1  0.064897  -7.9e-05  0.098913  0.10066  -8.8e-05  1.035901  0.0
H  H55  1  0.66456687  0.81018789  0.18505825  1  0.078409  0.0002  0.09738  0.065811  5.4e-05  0.999692  0.0
H  H56  1  0.72173117  0.84614799  0.10686697  1  0.066411  5e-05  0.098861  0.065316  -1.3e-05  0.997973  0.0
H  H57  1  0.59877922  0.88548072  0.06153582  1  0.07878  0.001612  0.113727  0.088044  0.000273  1.028178  0.001
H  H58  1  0.57683634  0.12916499  0.12796293  1  0.134792  0.001458  0.118467  0.094121  0.000212  1.002656  0.001
H  H59  1  0.68207928  0.14772751  0.22636867  1  0.070273  0.000939  0.110037  0.112079  0.000436  1.00342  0.0
H  H60  1  0.75484253  0.03157054  0.23969833  1  0.121742  -0.000346  0.111269  0.118368  -0.000537  1.004815  0.0
H  H61  1  0.93041891  0.49515805  0.23333760  1  0.016111  -8.4e-05  0.08369  0.114998  -8.5e-05  1.030517  0.0
H  H62  1  0.83062572  0.51788251  0.25203347  1  0.011159  1.9e-05  0.087528  0.120887  2.3e-05  0.999282  0.0
H  H63  1  0.95136182  0.59831529  0.28341798  1  0.009013  -0.000178  0.080491  0.110022  -0.000228  1.046097  0.0
H  H64  1  0.08812341  0.69776100  0.20391695  1  0.014066  4.8e-05  0.080472  0.107314  2.2e-05  1.036504  0.0
H  H65  1  0.06418098  0.69596548  0.11816352  1  0.036203  -3e-05  0.084955  0.116071  -3.2e-05  1.034626  0.0
H  H66  1  0.05626071  0.58932990  0.15589103  1  0.035373  -4e-06  0.087535  0.123585  -2e-06  0.99563  0.0
H  H67  1  0.87879455  0.58950682  0.07590002  1  0.033392  3e-05  0.083805  0.117947  9e-06  1.030161  0.0
H  H68  1  0.78869128  0.51685059  0.13341277  1  0.056024  0.000197  0.083554  0.126926  9.2e-05  1.001459  0.0
H  H69  1  0.88396255  0.48756322  0.11224809  1  0.01065  0.000161  0.083391  0.119393  7.4e-05  1.028063  0.0
H  H70  1  0.06166460  0.86095626  0.55535639  1  0.090551  -0.000139  0.097038  0.100752  -0.000177  1.044922  0.0
H  H71  1  0.31903781  0.08775158  0.65413387  1  0.084798  -8e-05  0.100184  0.102173  -8.9e-05  1.016745  0.0
H  H72  1  0.14205288  0.25041506  0.60355689  1  0.073212  0.000132  0.095893  0.062542  3.5e-05  1.018607  0.0
H  H73  1  0.05167176  0.16205857  0.54881928  1  0.067171  0.000142  0.092595  0.056145  1e-05  1.044438  0.0
H  H74  1  0.08652020  0.35833926  0.53685272  1  0.098061  0.001431  0.114559  0.087046  0.000179  1.015639  0.001
H  H75  1  0.84557102  0.38164379  0.60391625  1  0.078093  0.001456  0.118323  0.092566  0.00022  0.993586  0.001
H  H76  1  0.80133222  0.24143083  0.68001088  1  0.076599  0.000925  0.106675  0.106758  0.000411  1.009965  0.0
H  H77  1  0.90156211  0.14948633  0.67874594  1  0.096097  -0.000294  0.111794  0.120051  -0.000399  0.997639  0.0
H  H78  1  0.39783950  0.06168051  0.56923666  1  0.005389  3.3e-05  0.084779  0.115827  2.2e-05  1.013313  0.0
H  H79  1  0.39639096  0.96175497  0.52353471  1  0.031029  4.3e-05  0.089329  0.127243  2.5e-05  0.995885  0.0
H  H80  1  0.32618221  0.01946357  0.49587451  1  0.0177  3e-06  0.08252  0.111315  1.1e-05  1.041919  0.0
H  H81  1  0.23711607  0.84233136  0.67003530  1  0.021266  -1.5e-05  0.080258  0.110243  -3.1e-05  1.04797  0.0
H  H82  1  0.33584953  0.84586179  0.62388956  1  0.030483  0.000266  0.083523  0.119758  0.000155  1.036651  0.0
H  H83  1  0.35121983  0.95296213  0.66814367  1  0.01594  -5.8e-05  0.080926  0.107533  -7.6e-05  1.03447  0.0
H  H84  1  0.17619894  0.84959215  0.48862284  1  0.010838  -3.4e-05  0.078643  0.107088  -5.9e-05  1.03451  0.0
H  H85  1  0.25069484  0.79805468  0.51891845  1  0.039534  9.2e-05  0.081667  0.120986  -2.9e-05  1.030525  0.0
H  H86  1  0.13965928  0.77262632  0.55835353  1  0.015464  -0.000179  0.082209  0.116947  -0.000344  1.039066  0.0
H  H87  1  0.65597480  0.83273783  0.77743731  1  0.071831  -1.4e-05  0.101329  0.107061  -1.8e-05  1.028541  0.0
H  H88  1  0.77296439  0.98273656  0.59614552  1  0.06502  -7.9e-05  0.098909  0.100708  -8.8e-05  1.035851  0.0
H  H89  1  0.81018900  0.66456820  0.68505549  1  0.07676  0.0002  0.097369  0.065817  5.4e-05  0.999691  0.0
H  H90  1  0.84615015  0.72173133  0.60686472  1  0.06639  5e-05  0.098853  0.065309  -1.3e-05  0.997966  0.0
H  H91  1  0.88548051  0.59877842  0.56153728  1  0.078804  0.001612  0.113685  0.088044  0.000272  1.0281  0.001
H  H92  1  0.12917087  0.57684171  0.62796290  1  0.134737  0.001458  0.118452  0.094135  0.000212  1.002531  0.001
H  H93  1  0.14773428  0.68208670  0.72636631  1  0.06998  0.000939  0.10999  0.111968  0.000436  1.003511  0.0
H  H94  1  0.03157568  0.75484874  0.73969716  1  0.121698  -0.000346  0.111274  0.118318  -0.000537  1.004919  0.0
H  H95  1  0.49515547  0.93041800  0.73333500  1  0.016079  -8.4e-05  0.083703  0.115034  -8.5e-05  1.030507  0.0
H  H96  1  0.51788015  0.83062421  0.75203170  1  0.011148  1.9e-05  0.087539  0.120893  2.3e-05  0.99926  0.0
H  H97  1  0.59831537  0.95136227  0.78341433  1  0.009001  -0.000178  0.080473  0.109961  -0.000228  1.046036  0.0
H  H98  1  0.69775722  0.08811636  0.70391305  1  0.014234  4.7e-05  0.080559  0.107443  2.2e-05  1.036486  0.0
H  H99  1  0.69596242  0.06417642  0.61815962  1  0.036107  -3e-05  0.084956  0.116057  -3.2e-05  1.034525  0.0
H  H100  1  0.58932673  0.05625664  0.65588823  1  0.035417  -4e-06  0.087551  0.123607  -2e-06  0.995622  0.0
H  H101  1  0.58950063  0.87878854  0.57589669  1  0.033827  3e-05  0.08379  0.11792  9e-06  1.030155  0.0
H  H102  1  0.51684615  0.78868826  0.63341044  1  0.055984  0.000197  0.083542  0.126899  9.2e-05  1.001467  0.0
H  H103  1  0.48755796  0.88395747  0.61224540  1  0.010701  0.000161  0.083382  0.119383  7.4e-05  1.028038  0.0
H  H104  1  0.13904463  0.93833870  0.94464066  1  0.090611  -0.000139  0.097042  0.100754  -0.000177  1.0449  0.0
H  H105  1  0.91225053  0.68096463  0.84586342  1  0.084777  -8e-05  0.100184  0.102228  -8.9e-05  1.016707  0.0
H  H106  1  0.74958651  0.85794736  0.89644177  1  0.07322  0.000132  0.095915  0.062585  3.5e-05  1.018604  0.0
H  H107  1  0.83794663  0.94833359  0.95117601  1  0.067332  0.000142  0.092607  0.0562  1e-05  1.044385  0.0
H  H108  1  0.64166270  0.91347896  0.96314466  1  0.098142  0.001432  0.11456  0.087012  0.000179  1.015664  0.001
H  H109  1  0.61834504  0.15441863  0.89607960  1  0.078415  0.001456  0.11828  0.09246  0.000219  0.993711  0.001
H  H110  1  0.75855833  0.19865900  0.81998241  1  0.076359  0.000926  0.106733  0.106868  0.000412  1.009882  0.0
H  H111  1  0.85050936  0.09843516  0.82124918  1  0.096196  -0.000294  0.111824  0.120084  -0.000399  0.997532  0.0
H  H112  1  0.93832054  0.60216635  0.93076052  1  0.005167  3.3e-05  0.084744  0.115727  2.2e-05  1.013379  0.0
H  H113  1  0.03824647  0.60361518  0.97646307  1  0.031127  4.3e-05  0.089348  0.127244  2.5e-05  0.99583  0.0
H  H114  1  0.98053783  0.67382470  0.00412253  1  0.01767  3e-06  0.08248  0.11124  1.1e-05  1.041908  0.0
H  H115  1  0.15767547  0.76288970  0.82996256  1  0.021148  -1.5e-05  0.080252  0.110196  -3.1e-05  1.047976  0.0
H  H116  1  0.15414301  0.66415377  0.87610864  1  0.029857  0.000266  0.083507  0.119744  0.000155  1.036664  0.0
H  H117  1  0.04704428  0.64878562  0.83185320  1  0.016025  -5.8e-05  0.080916  0.107523  -7.6e-05  1.034444  0.0
H  H118  1  0.15041111  0.82380233  0.01137534  1  0.010973  -3.4e-05  0.078656  0.107088  -5.9e-05  1.034496  0.0
H  H119  1  0.20194539  0.74930469  0.98107925  1  0.039553  9.2e-05  0.081632  0.120889  -2.9e-05  1.030569  0.0
H  H120  1  0.22738020  0.86034253  0.94164433  1  0.015371  -0.000179  0.082181  0.116889  -0.000344  1.039109  0.0
H  H121  1  0.16726160  0.34402179  0.72255992  1  0.0717  -1.4e-05  0.101294  0.107036  -1.8e-05  1.028505  0.0
H  H122  1  0.01726045  0.22703484  0.90385125  1  0.064961  -7.9e-05  0.098909  0.100726  -8.8e-05  1.035864  0.0
H  H123  1  0.33543548  0.18981705  0.81494194  1  0.076759  0.0002  0.09735  0.065794  5.4e-05  0.999715  0.0
H  H124  1  0.27827559  0.15385577  0.89313325  1  0.066419  5e-05  0.098848  0.065291  -1.3e-05  0.998066  0.0
H  H125  1  0.40122608  0.11452820  0.93846246  1  0.078733  0.001612  0.11368  0.088017  0.000272  1.028177  0.001
H  H126  1  0.42318075  0.87084881  0.87203793  1  0.134626  0.001459  0.118411  0.094002  0.000212  1.002583  0.001
H  H127  1  0.31793043  0.85227763  0.77363403  1  0.070227  0.000939  0.110016  0.112064  0.000437  1.003502  0.0
H  H128  1  0.24516718  0.96843330  0.76030191  1  0.121967  -0.000346  0.11125  0.118361  -0.000537  1.004832  0.0
H  H129  1  0.06958343  0.50484299  0.76666403  1  0.016077  -8.4e-05  0.083691  0.114995  -8.5e-05  1.030528  0.0
H  H130  1  0.16937662  0.48211918  0.74796670  1  0.011113  1.9e-05  0.087538  0.120901  2.3e-05  0.999309  0.0
H  H131  1  0.04863905  0.40168506  0.71658364  1  0.009047  -0.000178  0.080464  0.109992  -0.000228  1.046047  0.0
H  H132  1  0.91188188  0.30224142  0.79608423  1  0.014268  4.7e-05  0.080527  0.10741  2.2e-05  1.036463  0.0
H  H133  1  0.93582210  0.30403590  0.88183763  1  0.036088  -3e-05  0.084963  0.11606  -3.2e-05  1.034564  0.0
H  H134  1  0.94374236  0.41067083  0.84411012  1  0.035473  -4e-06  0.087555  0.123628  -2e-06  0.995613  0.0
H  H135  1  0.12121222  0.41049890  0.92410168  1  0.033878  3e-05  0.083834  0.117982  9e-06  1.030091  0.0
H  H136  1  0.21131401  0.48315378  0.86658744  1  0.055902  0.000197  0.083556  0.12692  9.2e-05  1.00143  0.0
H  H137  1  0.11604274  0.51244115  0.88775261  1  0.010753  0.000161  0.083369  0.119365  7.4e-05  1.028113  0.0
C  C138  1  0.81047706  0.89403438  0.34411100  1  -0.175633  1.1e-05  -0.0161  -0.016643  1.1e-05  4.023151  0.0
C  C139  1  0.90961224  0.93177692  0.36464119  1  0.514323  4.7e-05  0.077164  0.165218  2.6e-05  4.007459  0.0
C  C140  1  0.95533085  0.02197058  0.39922155  1  -0.085841  1.5e-05  -0.018412  -0.021181  9e-06  4.037352  0.0
C  C141  1  0.90073543  0.07003653  0.41690454  1  -0.08704  -0.000109  -0.09581  -0.16875  -0.000115  3.986549  0.0
C  C142  1  0.80066720  0.03061440  0.40044773  1  0.078781  3.3e-05  -0.006983  0.070645  1.2e-05  3.878408  0.0
C  C143  1  0.75779613  0.94375629  0.36207967  1  -0.058359  -9.6e-05  -0.093224  -0.161682  -0.0001  3.962512  0.0
C  C144  1  0.93673668  0.80410729  0.40156476  1  0.401894  0.000544  -0.063431  -0.017899  0.000267  3.928406  0.0
C  C145  1  0.99978440  0.75451339  0.39386721  1  0.010441  0.005447  -0.005294  0.055647  0.002143  3.963986  0.005
C  C146  1  0.97825605  0.67214300  0.43217661  1  0.442066  -0.012134  0.046111  0.029735  -0.012841  3.911754  -0.007
C  C147  1  0.11118263  0.65764730  0.39353378  1  0.474556  -0.009247  0.043605  0.080797  -0.00983  3.940797  -0.005
C  C148  1  0.13554250  0.73638091  0.35179337  1  0.003909  0.004693  -0.084754  -0.129173  0.001716  4.01951  0.004
C  C149  1  0.08018176  0.78703211  0.35218985  1  -0.073063  -0.01682  -0.071045  -0.093229  -0.01727  3.933166  -0.01
C  C150  1  0.73831658  0.07924581  0.42209605  1  0.074809  -1e-06  -0.01264  0.244148  1.2e-05  3.796795  0.0
C  C151  1  0.64908669  0.00443165  0.46039811  1  -0.055317  2.5e-05  -0.240938  -0.411365  3.9e-05  3.894185  0.0
C  C152  1  0.70109514  0.11105565  0.36120465  1  -0.078933  0.000209  -0.246889  -0.421057  0.000106  3.892235  0.0
C  C153  1  0.79680638  0.16980571  0.46659154  1  -0.049343  -7.9e-05  -0.249745  -0.412333  -0.000275  3.881702  0.0
C  C154  1  0.15309826  0.09187177  0.36181401  1  -0.131251  1.5e-05  -0.015476  -0.014664  1.1e-05  4.014268  0.0
C  C155  1  0.15042569  0.15114986  0.31049034  1  0.535616  9.5e-05  0.076935  0.164736  6.1e-05  4.020157  0.0
C  C156  1  0.21847766  0.17535315  0.25972508  1  -0.099618  -8.7e-05  -0.016241  -0.016329  -7.8e-05  4.030239  0.0
C  C157  1  0.29175371  0.14573858  0.26239959  1  0.000483  -3.4e-05  -0.095337  -0.164374  -5.2e-05  3.967826  0.0
C  C158  1  0.29866036  0.09094116  0.31462019  1  -0.028736  -8e-05  -0.004623  0.074877  -9e-05  3.878755  0.0
C  C159  1  0.22635879  0.06215873  0.36297631  1  -0.032411  -0.00011  -0.092036  -0.16456  -0.000135  3.956947  0.0
C  C160  1  0.12652978  0.28327967  0.34377864  1  0.405558  0.00052  -0.06035  -0.010319  0.000233  3.921924  0.0
C  C161  1  0.05057014  0.31779183  0.34864234  1  0.019819  0.005417  -0.007425  0.054778  0.002016  3.972573  0.005
C  C162  1  0.05587854  0.37868821  0.40139434  1  0.474601  -0.012163  0.040988  0.017093  -0.012702  3.931279  -0.007
C  C163  1  0.92105567  0.39262615  0.36393830  1  0.443283  -0.011688  0.046742  0.087031  -0.012249  3.92983  -0.007
C  C164  1  0.91086331  0.33304562  0.30949378  1  -0.044907  0.005124  -0.083755  -0.130579  0.00184  4.01728  0.004
C  C165  1  0.97546997  0.29366605  0.30167523  1  -0.065204  -0.020126  -0.069746  -0.086812  -0.020682  3.917842  -0.012
C  C166  1  0.38488063  0.06781429  0.32173877  1  0.086992  -1e-05  -0.012912  0.239208  -2.3e-05  3.802885  0.0
C  C167  1  0.44637339  0.09053796  0.25937581  1  -0.044389  -0.000127  -0.246509  -0.41771  -0.000245  3.910977  0.0
C  C168  1  0.34780312  0.95844571  0.33713530  1  -0.094836  5.2e-05  -0.242435  -0.413315  1.2e-05  3.901828  0.0
C  C169  1  0.45151339  0.13288712  0.37850462  1  -0.079583  0.000238  -0.244263  -0.410141  0.000173  3.870812  0.0
C  C170  1  0.23013600  0.59274928  0.52276649  1  0.465201  0.02592  0.138407  0.261211  0.014345  4.370911  0.028
C  C171  1  0.10596639  0.18952284  0.15589283  1  -0.175474  1.2e-05  -0.016116  -0.016794  1.1e-05  4.023137  0.0
C  C172  1  0.06822149  0.09038590  0.13536499  1  0.514072  4.7e-05  0.077182  0.165326  2.6e-05  4.007085  0.0
C  C173  1  0.97803107  0.04466974  0.10078108  1  -0.0854  1.5e-05  -0.018359  -0.021131  9e-06  4.037303  0.0
C  C174  1  0.92996368  0.09926466  0.08309624  1  -0.087159  -0.000109  -0.095823  -0.168821  -0.000115  3.986558  0.0
C  C175  1  0.96938720  0.19933096  0.09955361  1  0.078895  3.3e-05  -0.006973  0.070729  1.2e-05  3.878351  0.0
C  C176  1  0.05624133  0.24219891  0.13792422  1  -0.058533  -9.7e-05  -0.093213  -0.161629  -0.0001  3.96256  0.0
C  C177  1  0.19589632  0.06326473  0.09843688  1  0.40188  0.000544  -0.063428  -0.018031  0.000267  3.928408  0.0
C  C178  1  0.24549251  0.00021544  0.10613283  1  0.010591  0.005449  -0.005449  0.055379  0.002144  3.964027  0.005
C  C179  1  0.32786518  0.02174761  0.06782144  1  0.44162  -0.012142  0.046125  0.029816  -0.012849  3.91151  -0.007
C  C180  1  0.34236091  0.88882592  0.10646286  1  0.474022  -0.009249  0.043604  0.081043  -0.009831  3.940955  -0.005
C  C181  1  0.26362856  0.86446354  0.14820725  1  0.004344  0.004694  -0.084729  -0.129226  0.001717  4.019452  0.004
C  C182  1  0.21297278  0.91982198  0.14781135  1  -0.073201  -0.016828  -0.070969  -0.092961  -0.017278  3.932985  -0.01
C  C183  1  0.92075461  0.26168160  0.07790541  1  0.074951  -1e-06  -0.012667  0.244099  1.2e-05  3.796691  0.0
C  C184  1  0.99557168  0.35091062  0.03960485  1  -0.055414  2.5e-05  -0.24097  -0.411299  3.9e-05  3.894204  0.0
C  C185  1  0.88894490  0.29890246  0.13879787  1  -0.078977  0.000209  -0.24689  -0.421118  0.000106  3.892336  0.0
C  C186  1  0.83019333  0.20319328  0.03340996  1  -0.049465  -7.9e-05  -0.249726  -0.412228  -0.000275  3.881557  0.0
C  C187  1  0.90812883  0.84690245  0.13818769  1  -0.131434  1.5e-05  -0.015518  -0.014739  1.1e-05  4.014314  0.0
C  C188  1  0.84885191  0.84957460  0.18951193  1  0.535705  9.5e-05  0.07689  0.164699  6.1e-05  4.020091  0.0
C  C189  1  0.82464310  0.78152064  0.24027856  1  -0.099356  -8.7e-05  -0.016246  -0.01632  -7.8e-05  4.030279  0.0
C  C190  1  0.85426178  0.70824858  0.23760300  1  7.8e-05  -3.4e-05  -0.095408  -0.164527  -5.2e-05  3.967878  0.0
C  C191  1  0.90905657  0.70134062  0.18538230  1  -0.028934  -8e-05  -0.004541  0.074933  -9e-05  3.878774  0.0
C  C192  1  0.93784521  0.77364374  0.13702726  1  -0.031903  -0.00011  -0.092075  -0.164588  -0.000135  3.957066  0.0
C  C193  1  0.71671272  0.87346403  0.15622272  1  0.405593  0.00052  -0.060382  -0.010388  0.000233  3.921984  0.0
C  C194  1  0.68219991  0.94942370  0.15135767  1  0.019928  0.005417  -0.007371  0.054894  0.002016  3.972634  0.005
C  C195  1  0.62130230  0.94411445  0.09860523  1  0.47369  -0.012163  0.040935  0.017017  -0.012706  3.931481  -0.007
C  C196  1  0.60736727  0.07893890  0.13605735  1  0.443056  -0.011689  0.046871  0.08722  -0.012251  3.929574  -0.007
C  C197  1  0.66694043  0.08912779  0.19050566  1  -0.045113  0.005125  -0.083898  -0.130944  0.00184  4.017115  0.004
C  C198  1  0.70632708  0.02452381  0.19832367  1  -0.065123  -0.020132  -0.069722  -0.086786  -0.020688  3.917888  -0.012
C  C199  1  0.93218891  0.61512164  0.17826364  1  0.0872  -9e-06  -0.012933  0.239309  -2.3e-05  3.802839  0.0
C  C200  1  0.90946401  0.55362691  0.24062555  1  -0.044517  -0.000127  -0.246515  -0.417715  -0.000245  3.911172  0.0
C  C201  1  0.04155927  0.65219965  0.16286724  1  -0.094804  5.2e-05  -0.242367  -0.413248  1.2e-05  3.901831  0.0
C  C202  1  0.86711558  0.54848922  0.12149778  1  -0.079245  0.000238  -0.244342  -0.410343  0.000174  3.870937  0.0
C  C203  1  0.40720617  0.76982405  0.97722399  1  0.464683  0.025967  0.138517  0.261304  0.014356  4.370234  0.028
C  C204  1  0.18952307  0.10596692  0.65589062  1  -0.175765  1.1e-05  -0.016084  -0.016665  1.1e-05  4.023168  0.0
C  C205  1  0.09038789  0.06822374  0.63536190  1  0.514293  4.7e-05  0.077147  0.165237  2.6e-05  4.007269  0.0
C  C206  1  0.04467076  0.97803076  0.60078057  1  -0.085416  1.5e-05  -0.018334  -0.021119  9e-06  4.037329  0.0
C  C207  1  0.09926691  0.92996386  0.58309710  1  -0.08714  -0.000109  -0.095885  -0.168866  -0.000115  3.986642  0.0
C  C208  1  0.19933293  0.96938561  0.59955438  1  0.078742  3.3e-05  -0.007001  0.070613  1.2e-05  3.87843  0.0
C  C209  1  0.24220400  0.05624437  0.63792195  1  -0.058263  -9.6e-05  -0.093159  -0.161579  -0.0001  3.962384  0.0
C  C210  1  0.06326419  0.19589566  0.59843541  1  0.401986  0.000544  -0.063468  -0.017992  0.000267  3.928522  0.0
C  C211  1  0.00021499  0.24548822  0.60612999  1  0.010499  0.005449  -0.005333  0.055515  0.002144  3.96409  0.005
C  C212  1  0.02174481  0.32785995  0.56782062  1  0.441729  -0.012143  0.046049  0.029581  -0.012852  3.911628  -0.007
C  C213  1  0.88881675  0.34235170  0.60646291  1  0.475065  -0.009252  0.043583  0.080736  -0.009835  3.940639  -0.005
C  C214  1  0.86445318  0.26361506  0.64820180  1  0.003904  0.004694  -0.084678  -0.129061  0.001717  4.019321  0.004
C  C215  1  0.91981688  0.21296589  0.64780782  1  -0.073476  -0.016832  -0.071037  -0.093082  -0.017282  3.933023  -0.01
C  C216  1  0.26168429  0.92075584  0.57790509  1  0.075033  -1e-06  -0.012651  0.244193  1.2e-05  3.796641  0.0
C  C217  1  0.35091418  0.99556870  0.53960302  1  -0.055374  2.5e-05  -0.240912  -0.411333  3.9e-05  3.894176  0.0
C  C218  1  0.29890794  0.88894769  0.63879652  1  -0.07936  0.000209  -0.246869  -0.421157  0.000106  3.89229  0.0
C  C219  1  0.20319375  0.83019364  0.53340958  1  -0.049388  -7.9e-05  -0.249745  -0.412277  -0.000275  3.881518  0.0
C  C220  1  0.84690113  0.90812789  0.63818662  1  -0.13119  1.5e-05  -0.015515  -0.01469  1.1e-05  4.014206  0.0
C  C221  1  0.84957369  0.84884849  0.68950979  1  0.535631  9.5e-05  0.076989  0.164772  6.1e-05  4.020122  0.0
C  C222  1  0.78152172  0.82464520  0.74027554  1  -0.099359  -8.7e-05  -0.016291  -0.016371  -7.8e-05  4.030249  0.0
C  C223  1  0.70824641  0.85425947  0.73760054  1  -5.9e-05  -3.4e-05  -0.095394  -0.164547  -5.2e-05  3.967879  0.0
C  C224  1  0.70133754  0.90905520  0.68538089  1  -0.028624  -8e-05  -0.00459  0.074977  -9e-05  3.878653  0.0
C  C225  1  0.77363986  0.93784123  0.63702431  1  -0.032383  -0.00011  -0.092061  -0.164671  -0.000135  3.957025  0.0
C  C226  1  0.87346812  0.71671670  0.65622195  1  0.407334  0.000519  -0.060378  -0.010412  0.000233  3.922126  0.0
C  C227  1  0.94942777  0.68220389  0.65136070  1  0.019658  0.005414  -0.007487  0.054727  0.002015  3.972582  0.005
C  C228  1  0.94411570  0.62130904  0.59860917  1  0.474237  -0.012157  0.04097  0.016979  -0.012695  3.931316  -0.007
C  C229  1  0.07894003  0.60737048  0.63606130  1  0.443174  -0.011683  0.046873  0.087198  -0.012244  3.929673  -0.007
C  C230  1  0.08913606  0.66695013  0.69050534  1  -0.044889  0.005123  -0.083848  -0.13084  0.001839  4.017265  0.004
C  C231  1  0.02452941  0.70633035  0.69832636  1  -0.065128  -0.020119  -0.069642  -0.086576  -0.020674  3.917722  -0.012
C  C232  1  0.61511875  0.93218407  0.67826086  1  0.086983  -1e-05  -0.012907  0.239178  -2.3e-05  3.802849  0.0
C  C233  1  0.55362600  0.90946300  0.74062335  1  -0.044368  -0.000127  -0.246549  -0.417707  -0.000245  3.911063  0.0
C  C234  1  0.65219626  0.04155329  0.66286286  1  -0.094865  5.2e-05  -0.242475  -0.413349  1.2e-05  3.901843  0.0
C  C235  1  0.54848525  0.86711088  0.62149451  1  -0.079664  0.000238  -0.244292  -0.410214  0.000173  3.870767  0.0
C  C236  1  0.76982873  0.40723025  0.47723128  1  0.464933  0.025929  0.138306  0.261036  0.014339  4.370635  0.028
C  C237  1  0.89403447  0.81047751  0.84410438  1  -0.175582  1.2e-05  -0.016077  -0.016643  1.1e-05  4.02311  0.0
C  C238  1  0.93177716  0.90961341  0.86463465  1  0.514115  4.7e-05  0.077127  0.165177  2.6e-05  4.007247  0.0
C  C239  1  0.02196978  0.95532995  0.89921661  1  -0.085407  1.5e-05  -0.018325  -0.021128  9e-06  4.037318  0.0
C  C240  1  0.07003717  0.90073438  0.91690194  1  -0.087107  -0.000109  -0.095852  -0.168793  -0.000115  3.98645  0.0
C  C241  1  0.03061438  0.80066713  0.90044309  1  0.078706  3.3e-05  -0.006989  0.070632  1.2e-05  3.878419  0.0
C  C242  1  0.94375879  0.75780109  0.86207445  1  -0.058434  -9.6e-05  -0.09326  -0.161804  -0.0001  3.962569  0.0
C  C243  1  0.80410601  0.93673500  0.90156082  1  0.401535  0.000544  -0.063471  -0.018171  0.000267  3.928569  0.0
C  C244  1  0.75451277  0.99978436  0.89386588  1  0.01086  0.005451  -0.005319  0.055702  0.002144  3.96383  0.005
C  C245  1  0.67214380  0.97825979  0.93217931  1  0.441911  -0.012142  0.046075  0.029622  -0.01285  3.911853  -0.007
C  C246  1  0.65763848  0.11117699  0.89353631  1  0.474291  -0.009253  0.043555  0.080865  -0.009836  3.940517  -0.005
C  C247  1  0.73637305  0.13553976  0.85179439  1  0.004342  0.004694  -0.084712  -0.129189  0.001716  4.019265  0.004
C  C248  1  0.78702882  0.08018261  0.85218737  1  -0.07327  -0.016833  -0.071041  -0.093167  -0.017283  3.932794  -0.01
C  C249  1  0.07924624  0.73831679  0.92209276  1  0.074899  -1e-06  -0.012614  0.244183  1.2e-05  3.79674  0.0
C  C250  1  0.00443286  0.64909145  0.96039435  1  -0.0551  2.5e-05  -0.240845  -0.411107  3.9e-05  3.894198  0.0
C  C251  1  0.11105816  0.70109632  0.86120081  1  -0.078593  0.000209  -0.246856  -0.421101  0.000106  3.892265  0.0
C  C252  1  0.16981122  0.79681009  0.96658827  1  -0.049445  -7.9e-05  -0.249681  -0.412097  -0.000275  3.881476  0.0
C  C253  1  0.09187130  0.15309951  0.86181394  1  -0.131377  1.5e-05  -0.015482  -0.014569  1.1e-05  4.014297  0.0
C  C254  1  0.15114822  0.15042670  0.81048773  1  0.535767  9.5e-05  0.076934  0.164756  6.1e-05  4.019966  0.0
C  C255  1  0.17535924  0.21848301  0.75972212  1  -0.099379  -8.7e-05  -0.016298  -0.016352  -7.8e-05  4.030271  0.0
C  C256  1  0.14574056  0.29175377  0.76239865  1  4.7e-05  -3.4e-05  -0.095368  -0.164524  -5.2e-05  3.967912  0.0
C  C257  1  0.09094430  0.29866168  0.81461688  1  -0.028626  -8e-05  -0.004568  0.075042  -9e-05  3.878706  0.0
C  C258  1  0.06215861  0.22636060  0.86297588  1  -0.032324  -0.00011  -0.092094  -0.164837  -0.000135  3.957035  0.0
C  C259  1  0.28329036  0.12653996  0.84377649  1  0.407252  0.00052  -0.060345  -0.010372  0.000233  3.922105  0.0
C  C260  1  0.31780463  0.05057902  0.84864056  1  0.019774  0.005418  -0.007304  0.054967  0.002017  3.972641  0.005
C  C261  1  0.37870299  0.05589383  0.90139501  1  0.473316  -0.012167  0.040978  0.017177  -0.012709  3.931536  -0.007
C  C262  1  0.39264467  0.92107444  0.86394346  1  0.443482  -0.011687  0.047075  0.08771  -0.012248  3.929502  -0.007
C  C263  1  0.33307223  0.91088068  0.80949513  1  -0.045496  0.005124  -0.083925  -0.131032  0.00184  4.017467  0.004
C  C264  1  0.29367673  0.97547726  0.80167798  1  -0.064635  -0.020132  -0.069705  -0.086809  -0.020688  3.918218  -0.012
C  C265  1  0.06781564  0.38488043  0.82173753  1  0.087035  -9e-06  -0.012884  0.239279  -2.3e-05  3.802943  0.0
C  C266  1  0.09053758  0.44637313  0.75937460  1  -0.044472  -0.000127  -0.24653  -0.417729  -0.000245  3.911179  0.0
C  C267  1  0.95844601  0.34780277  0.83713442  1  -0.09492  5.2e-05  -0.242448  -0.413348  1.2e-05  3.901829  0.0
C  C268  1  0.13289118  0.45151519  0.87850391  1  -0.079645  0.000238  -0.24435  -0.410311  0.000174  3.870784  0.0
C  C269  1  0.59276516  0.23014817  0.02277476  1  0.465057  0.025958  0.138333  0.261191  0.014361  4.370388  0.028
S  S270  1  0.74507768  0.77784029  0.30387000  1  0.098312  6e-06  0.00937  -0.029314  7e-06  2.749333  0.0
S  S271  1  0.07700643  0.06751978  0.43135268  1  0.095793  -4e-05  0.015021  -0.018754  -3e-06  2.818782  0.0
S  S272  1  0.34286309  0.66437204  0.54303134  1  0.154236  0.070906  -0.196258  -0.339116  0.029436  2.172094  0.039
S  S273  1  0.22215851  0.25492106  0.19613374  1  0.098387  6e-06  0.009303  -0.029358  7e-06  2.74923  0.0
S  S274  1  0.93248197  0.92299296  0.06865006  1  0.095584  -4e-05  0.015037  -0.01871  -3e-06  2.818746  0.0
S  S275  1  0.33559752  0.65709296  0.95696407  1  0.153148  0.07091  -0.196337  -0.33922  0.029428  2.172247  0.039
S  S276  1  0.25492319  0.22216137  0.69613163  1  0.09828  6e-06  0.009328  -0.029364  7e-06  2.749348  0.0
S  S277  1  0.92299590  0.93248061  0.56864797  1  0.095524  -4e-05  0.014991  -0.018784  -3e-06  2.818775  0.0
S  S278  1  0.65709427  0.33559950  0.45697270  1  0.153269  0.070841  -0.196435  -0.339291  0.029399  2.172063  0.039
S  S279  1  0.77784087  0.74507729  0.80386687  1  0.098426  6e-06  0.009378  -0.02923  7e-06  2.749166  0.0
S  S280  1  0.06751741  0.07700475  0.93135006  1  0.095564  -4e-05  0.015013  -0.018765  -3e-06  2.818782  0.0
S  S281  1  0.66438267  0.34288926  0.04303285  1  0.153728  0.070902  -0.196314  -0.339171  0.029424  2.17179  0.039
N  N282  1  0.03317933  0.62541634  0.43353059  1  -1.203216  0.049475  -0.318872  -0.214398  0.023991  3.559814  0.041
N  N283  1  0.99216313  0.41473269  0.41002026  1  -1.240512  0.049266  -0.322938  -0.222806  0.023874  3.575609  0.041
N  N284  1  0.14566374  0.53943590  0.50814264  1  -1.363311  0.062783  -0.427725  -0.514178  0.029249  3.327485  0.025
N  N285  1  0.37459688  0.96682848  0.06646713  1  -1.20288  0.049482  -0.318903  -0.214485  0.023996  3.559873  0.041
N  N286  1  0.58525904  0.00783058  0.08997727  1  -1.240437  0.049276  -0.322975  -0.222827  0.023877  3.575549  0.041
N  N287  1  0.46052362  0.85431836  0.99185052  1  -1.361796  0.062759  -0.427723  -0.514205  0.029243  3.326602  0.025
N  N288  1  0.96681636  0.37458223  0.56646362  1  -1.202814  0.049476  -0.318873  -0.214295  0.023993  3.559686  0.041
N  N289  1  0.00782963  0.58526256  0.58998224  1  -1.240644  0.049269  -0.322926  -0.222764  0.023873  3.575495  0.041
N  N290  1  0.85430474  0.46056556  0.49185728  1  -1.362331  0.062746  -0.427456  -0.513907  0.029227  3.326696  0.025
N  N291  1  0.62541431  0.03317671  0.93353706  1  -1.20316  0.049477  -0.318914  -0.214418  0.023995  3.559759  0.041
N  N292  1  0.41475438  0.99218345  0.91002258  1  -1.240413  0.049278  -0.323098  -0.223224  0.023879  3.57594  0.041
N  N293  1  0.53944332  0.14566155  0.00814629  1  -1.36271  0.062757  -0.427586  -0.514127  0.029241  3.327067  0.025
O  O294  1  0.96097775  0.87972702  0.35362617  1  -1.06706  3.9e-05  -0.192115  -0.217414  -1.2e-05  2.552972  0.0
O  O295  1  0.08396483  0.18778005  0.31155159  1  -1.068567  0.000127  -0.193325  -0.221291  5.6e-05  2.548069  0.0
O  O296  1  0.12027688  0.03902208  0.14637797  1  -1.067164  3.9e-05  -0.192162  -0.21747  -1.2e-05  2.552774  0.0
O  O297  1  0.81221845  0.91603488  0.18844930  1  -1.06853  0.000127  -0.193309  -0.221276  5.6e-05  2.547945  0.0
O  O298  1  0.03902165  0.12027590  0.64637448  1  -1.067079  3.9e-05  -0.192114  -0.217407  -1.2e-05  2.552825  0.0
O  O299  1  0.91603308  0.81221762  0.68844852  1  -1.068598  0.000127  -0.193264  -0.221198  5.6e-05  2.548171  0.0
O  O300  1  0.87972177  0.96097657  0.85361969  1  -1.067259  3.9e-05  -0.192134  -0.217367  -1.2e-05  2.552839  0.0
O  O301  1  0.18778389  0.08396941  0.81155138  1  -1.068522  0.000127  -0.193358  -0.221365  5.6e-05  2.547964  0.0
