# generated using pymatgen
data_NiH18C20S2(N2O3)2
_symmetry_space_group_name_H-M   'P 1'
_cell_length_a   7.59683328
_cell_length_b   8.77292673
_cell_length_c   15.41764579
_cell_angle_alpha   89.99816053
_cell_angle_beta   92.64139293
_cell_angle_gamma   90.00055590
_symmetry_Int_Tables_number   1
_chemical_formula_structural   NiH18C20S2(N2O3)2
_chemical_formula_sum   'Ni2 H36 C40 S4 N8 O12'
_cell_volume   1026.43982533
_cell_formula_units_Z   2
loop_
 _symmetry_equiv_pos_site_id
 _symmetry_equiv_pos_as_xyz
  1  'x, y, z'
loop_
 _atom_site_type_symbol
 _atom_site_label
 _atom_site_symmetry_multiplicity
 _atom_site_fract_x
 _atom_site_fract_y
 _atom_site_fract_z
 _atom_site_occupancy
 _atom_site_pbe_cm5_charge
 _atom_site_pbe_ddec_charge
 _atom_site_pbe_ddec_spin_density
 _atom_site_pbe_ddec_sum_bond_order
 _atom_site_pbe_magmom
Ni  Ni0  1  0.99999668  0.99999667  0.99999858  1  0.610278  0.736968  0.019113  2.380415  0.016
Ni  Ni1  1  0.50000493  0.49999947  0.49999977  1  0.610341  0.736899  0.019289  2.380295  0.016
H  H2  1  0.23956932  0.86325686  0.08290251  1  0.281357  0.357416  0.00032  0.99976  0.0
H  H3  1  0.26049426  0.36326299  0.41709891  1  0.281418  0.357506  0.000321  0.999678  0.0
H  H4  1  0.76043131  0.13674893  0.91709811  1  0.281384  0.357381  0.000321  0.999806  0.0
H  H5  1  0.73952218  0.63673938  0.58289947  1  0.281394  0.357399  0.000321  0.999791  0.0
H  H6  1  0.29468221  0.81903157  0.98672784  1  0.280539  0.344293  0.001247  1.01248  0.001
H  H7  1  0.20534961  0.31906050  0.51328181  1  0.280562  0.344231  0.001249  1.0126  0.001
H  H8  1  0.70531709  0.18096282  0.01327599  1  0.280588  0.344346  0.001247  1.012405  0.001
H  H9  1  0.79466156  0.68095213  0.48671840  1  0.280623  0.344375  0.001247  1.01239  0.001
H  H10  1  0.98256515  0.21419552  0.14858243  1  0.115204  0.09187  0.000151  1.038508  0.0
H  H11  1  0.51738875  0.71422518  0.35143346  1  0.115293  0.091905  0.00015  1.038612  0.0
H  H12  1  0.01742758  0.78579887  0.85141606  1  0.115214  0.091905  0.000151  1.038558  0.0
H  H13  1  0.48261846  0.28577947  0.64857055  1  0.115261  0.091878  0.000149  1.038607  0.0
H  H14  1  0.08778699  0.47872951  0.18479476  1  0.109705  0.115589  -5e-06  1.021624  0.0
H  H15  1  0.41215639  0.97876229  0.31522314  1  0.10956  0.115486  -6e-06  1.021558  0.0
H  H16  1  0.91220441  0.52127400  0.81520046  1  0.109677  0.115563  -5e-06  1.021611  0.0
H  H17  1  0.58784291  0.02123210  0.68478328  1  0.1096  0.115526  -6e-06  1.021511  0.0
H  H18  1  0.25088147  0.62355260  0.07607067  1  0.109406  0.107291  7.6e-05  1.047361  0.0
H  H19  1  0.24909030  0.12355256  0.42395390  1  0.1094  0.107213  7.6e-05  1.047446  0.0
H  H20  1  0.74912311  0.37644179  0.92392420  1  0.109421  0.107343  7.6e-05  1.047352  0.0
H  H21  1  0.75090506  0.87644411  0.57604465  1  0.109429  0.10726  7.6e-05  1.047434  0.0
H  H22  1  0.21662526  0.22182550  0.91244043  1  0.118134  0.097061  0.000141  1.027468  0.0
H  H23  1  0.28343333  0.72182177  0.58759631  1  0.118185  0.097099  0.000138  1.027521  0.0
H  H24  1  0.78338854  0.77817345  0.08756048  1  0.118121  0.097054  0.000141  1.02756  0.0
H  H25  1  0.71657520  0.27817490  0.41240708  1  0.118199  0.097131  0.000138  1.027508  0.0
H  H26  1  0.54620600  0.92142606  0.90438861  1  0.099766  0.166472  0.000337  1.001112  0.0
H  H27  1  0.95380807  0.42145262  0.59559658  1  0.099767  0.166384  0.000337  1.001356  0.0
H  H28  1  0.45379726  0.07857403  0.09561402  1  0.099712  0.166389  0.000337  1.001125  0.0
H  H29  1  0.04618992  0.57854860  0.40440138  1  0.099749  0.166374  0.000337  1.001303  0.0
H  H30  1  0.62897976  0.88242405  0.80009995  1  0.093497  0.142887  -2.7e-05  1.019245  0.0
H  H31  1  0.87101683  0.38247496  0.69988557  1  0.093525  0.142912  -2.7e-05  1.019223  0.0
H  H32  1  0.37101823  0.11757604  0.19990385  1  0.093521  0.142897  -2.7e-05  1.019376  0.0
H  H33  1  0.12897194  0.61753083  0.30010829  1  0.093531  0.142925  -2.7e-05  1.019208  0.0
H  H34  1  0.40781072  0.94605153  0.80994464  1  0.086198  0.12732  -3.5e-05  1.031476  0.0
H  H35  1  0.09221306  0.44606409  0.69003521  1  0.086242  0.127323  -3.5e-05  1.031521  0.0
H  H36  1  0.59218068  0.05394058  0.19005966  1  0.08621  0.127305  -3.5e-05  1.031395  0.0
H  H37  1  0.90778625  0.55393372  0.30996603  1  0.086232  0.127314  -3.5e-05  1.031514  0.0
C  C38  1  0.05900697  0.27996213  0.10395790  1  0.046953  0.088519  -0.000371  3.895175  0.0
C  C39  1  0.44096228  0.77997819  0.39605914  1  0.046961  0.088593  -0.000374  3.895658  0.0
C  C40  1  0.94098575  0.72003910  0.89604319  1  0.046967  0.088443  -0.000372  3.895427  0.0
C  C41  1  0.55903835  0.22001962  0.60394342  1  0.046954  0.088559  -0.000375  3.895604  0.0
C  C42  1  0.11662330  0.42710318  0.12295069  1  -0.079403  -0.114113  -0.000346  3.982121  0.0
C  C43  1  0.38335388  0.92711750  0.37707155  1  -0.079358  -0.11425  -0.000352  3.982459  0.0
C  C44  1  0.88337206  0.57289805  0.87704721  1  -0.079399  -0.114014  -0.000346  3.982143  0.0
C  C45  1  0.61664411  0.07288487  0.62293290  1  -0.079365  -0.114232  -0.000352  3.982474  0.0
C  C46  1  0.20854592  0.50754704  0.06213517  1  -0.06523  -0.063828  2e-05  3.915322  0.0
C  C47  1  0.29144851  0.00754660  0.43789016  1  -0.065107  -0.063602  2.3e-05  3.915424  0.0
C  C48  1  0.79144944  0.49244963  0.93786144  1  -0.065228  -0.06393  2e-05  3.915321  0.0
C  C49  1  0.70854816  0.99245007  0.56211167  1  -0.065159  -0.063681  2.2e-05  3.915609  0.0
C  C50  1  0.24399548  0.43645786  0.98334321  1  -0.007342  0.001972  -0.000231  4.046543  0.0
C  C51  1  0.25600050  0.93645664  0.51668936  1  -0.007505  0.001847  -0.000237  4.046313  0.0
C  C52  1  0.75599724  0.56354109  0.01665593  1  -0.007349  0.00188  -0.000231  4.046403  0.0
C  C53  1  0.74399485  0.06353661  0.48331438  1  -0.007477  0.001827  -0.000237  4.046558  0.0
C  C54  1  0.18847297  0.28529974  0.97098503  1  0.053706  0.052818  -0.000168  3.866866  0.0
C  C55  1  0.31152428  0.78529718  0.52904199  1  0.053444  0.052395  -0.000171  3.867422  0.0
C  C56  1  0.81152503  0.71469807  0.02901423  1  0.053677  0.052798  -0.000168  3.867067  0.0
C  C57  1  0.68847503  0.21470405  0.47096120  1  0.053486  0.052484  -0.000171  3.867491  0.0
C  C58  1  0.33006560  0.51825835  0.91479520  1  0.118918  0.110919  -0.00017  4.073782  0.0
C  C59  1  0.16993054  0.01827848  0.58522253  1  0.118993  0.111035  -0.000174  4.073407  0.0
C  C60  1  0.66993635  0.48173490  0.08520480  1  0.119006  0.111091  -0.000171  4.073514  0.0
C  C61  1  0.83006087  0.98172389  0.41477658  1  0.11906  0.1111  -0.000175  4.073632  0.0
C  C62  1  0.45418968  0.71324133  0.84571606  1  0.101708  0.274333  -0.001383  3.990046  -0.001
C  C63  1  0.04578321  0.21326571  0.65428386  1  0.10173  0.274455  -0.001388  3.990367  -0.001
C  C64  1  0.54581226  0.28675762  0.15428589  1  0.10169  0.274324  -0.001384  3.990014  -0.001
C  C65  1  0.95421742  0.78674008  0.34571481  1  0.10169  0.274447  -0.001389  3.990151  -0.001
C  C66  1  0.46711479  0.60151985  0.78256311  1  -0.024545  -0.221212  -0.005633  3.925963  -0.005
C  C67  1  0.03284786  0.10155205  0.71743867  1  -0.02447  -0.221154  -0.005637  3.926345  -0.005
C  C68  1  0.53288584  0.39848252  0.21743686  1  -0.024532  -0.221222  -0.005633  3.925916  -0.005
C  C69  1  0.96715145  0.89846171  0.28256451  1  -0.024466  -0.221216  -0.005637  3.926362  -0.005
C  C70  1  0.53611767  0.60870605  0.69351547  1  0.202849  0.586227  -0.001745  4.250198  0.001
C  C71  1  0.96387113  0.10874509  0.80649123  1  0.202829  0.586257  -0.00175  4.249781  0.001
C  C72  1  0.46388823  0.39129518  0.30648397  1  0.202857  0.586288  -0.001745  4.250079  0.001
C  C73  1  0.03612554  0.89125728  0.19350735  1  0.202834  0.586304  -0.001749  4.250098  0.001
C  C74  1  0.51343130  0.87468046  0.83973823  1  -0.245624  -0.441164  0.000465  3.911719  0.0
C  C75  1  0.98657312  0.37470719  0.66025476  1  -0.245705  -0.441114  0.000465  3.912076  0.0
C  C76  1  0.48656274  0.12532191  0.16026289  1  -0.245616  -0.441061  0.000465  3.911797  0.0
C  C77  1  0.01342224  0.62529632  0.33974380  1  -0.24568  -0.441093  0.000466  3.911876  0.0
S  S78  1  0.37840945  0.43302741  0.81766256  1  0.123423  0.143125  -0.000221  2.883728  0.0
S  S79  1  0.12158914  0.93306040  0.68236106  1  0.123491  0.143213  -0.000224  2.883798  0.0
S  S80  1  0.62160040  0.56697382  0.18233762  1  0.123394  0.143082  -0.000221  2.883611  0.0
S  S81  1  0.87840753  0.06694425  0.31764012  1  0.12348  0.143248  -0.000224  2.883989  0.0
N  N82  1  0.09516745  0.20961040  0.02891525  1  -0.322872  -0.190117  -0.004519  3.582029  -0.004
N  N83  1  0.40479984  0.70961975  0.47110307  1  -0.322698  -0.189726  -0.004627  3.582305  -0.004
N  N84  1  0.90482132  0.79038741  0.97108315  1  -0.32287  -0.19009  -0.004524  3.582251  -0.004
N  N85  1  0.59520210  0.29037806  0.52889499  1  -0.322763  -0.189837  -0.004627  3.582471  -0.004
N  N86  1  0.37390891  0.66449697  0.91882894  1  -0.308482  -0.331592  0.000248  3.338471  0.0
N  N87  1  0.12607540  0.16451580  0.58117540  1  -0.308566  -0.331774  0.000248  3.338382  0.0
N  N88  1  0.62609436  0.33549970  0.08117369  1  -0.30853  -0.331675  0.000248  3.338539  0.0
N  N89  1  0.87391864  0.83548657  0.41882571  1  -0.308573  -0.33184  0.000249  3.338413  0.0
O  O90  1  0.44953990  0.52731592  0.63700616  1  -0.310449  -0.553824  -0.061012  2.308016  -0.064
O  O91  1  0.05047476  0.02739843  0.86301637  1  -0.310591  -0.554044  -0.061064  2.308004  -0.064
O  O92  1  0.55046863  0.47267961  0.36299529  1  -0.310471  -0.553916  -0.061014  2.308062  -0.064
O  O93  1  0.94951006  0.97258798  0.13697935  1  -0.310522  -0.5541  -0.061061  2.30828  -0.064
O  O94  1  0.66909078  0.69061466  0.68051111  1  -0.313518  -0.534329  -0.00071  2.150029  -0.001
O  O95  1  0.83086716  0.19062675  0.81947908  1  -0.313407  -0.534215  -0.000709  2.149853  -0.001
O  O96  1  0.33091380  0.30938771  0.31948700  1  -0.313516  -0.53432  -0.00071  2.14995  -0.001
O  O97  1  0.16912820  0.80937334  0.18051818  1  -0.313462  -0.534231  -0.000709  2.14998  -0.001
O  O98  1  0.25945367  0.90642774  0.02370379  1  -0.569069  -0.726376  0.064063  2.19131  0.066
O  O99  1  0.24059185  0.40644413  0.47629381  1  -0.569121  -0.726396  0.064083  2.191458  0.066
O  O100  1  0.74055091  0.09357349  0.97629497  1  -0.569143  -0.726386  0.064065  2.191363  0.066
O  O101  1  0.75943513  0.59356051  0.52370741  1  -0.569161  -0.726396  0.064077  2.19146  0.066
