# generated using pymatgen
data_NaH11C12SO5
_symmetry_space_group_name_H-M   'P 1'
_cell_length_a   6.02951817
_cell_length_b   10.51092787
_cell_length_c   20.28242876
_cell_angle_alpha   90.00039475
_cell_angle_beta   90.00142919
_cell_angle_gamma   87.84489520
_symmetry_Int_Tables_number   1
_chemical_formula_structural   NaH11C12SO5
_chemical_formula_sum   'Na4 H44 C48 S4 O20'
_cell_volume   1284.50657930
_cell_formula_units_Z   4
loop_
 _symmetry_equiv_pos_site_id
 _symmetry_equiv_pos_as_xyz
  1  'x, y, z'
loop_
 _atom_site_type_symbol
 _atom_site_label
 _atom_site_symmetry_multiplicity
 _atom_site_fract_x
 _atom_site_fract_y
 _atom_site_fract_z
 _atom_site_occupancy
 _atom_site_pbe_bader_charge
 _atom_site_pbe_bader_spin_density
 _atom_site_pbe_cm5_charge
 _atom_site_pbe_ddec_charge
 _atom_site_pbe_ddec_spin_density
 _atom_site_pbe_ddec_sum_bond_order
 _atom_site_pbe_magmom
Na  Na0  1  0.12892622  0.56295261  0.30068391  1  0.892146  0  0.662208  0.871956  0  0.507932  0
Na  Na1  1  0.37108309  0.43704227  0.80068552  1  0.892187  0  0.662181  0.87192  0  0.507975  0
Na  Na2  1  0.87108034  0.43703446  0.69932135  1  0.892142  0  0.662217  0.871994  0  0.507851  0
Na  Na3  1  0.62890432  0.56296491  0.19932023  1  0.89213  0  0.662196  0.871938  0  0.507914  0
H  H4  1  0.91472021  0.34670888  0.36526388  1  0.652843  0  0.295933  0.345514  0  1.015451  0
H  H5  1  0.58528461  0.65329169  0.86526005  1  0.652959  0  0.295949  0.345497  0  1.015452  0
H  H6  1  0.08529649  0.65327431  0.63474089  1  0.652869  0  0.295982  0.34563  0  1.015317  0
H  H7  1  0.41469369  0.34673363  0.13474324  1  0.652915  0  0.29589  0.345478  0  1.015462  0
H  H8  1  0.51896009  0.37675811  0.29714147  1  0.642207  0  0.286762  0.383375  0  0.96271  0
H  H9  1  0.98103778  0.62323984  0.79714533  1  0.642106  0  0.286741  0.383416  0  0.962701  0
H  H10  1  0.48101954  0.62323771  0.70285147  1  0.642286  0  0.286726  0.383366  0  0.96273  0
H  H11  1  0.01896989  0.37675959  0.20284761  1  0.642049  0  0.286625  0.383297  0  0.962842  0
H  H12  1  0.35225820  0.36652950  0.23733850  1  0.621179  0  0.289382  0.37306  0  0.970893  0
H  H13  1  0.14772868  0.63347726  0.73734738  1  0.621193  0  0.289217  0.372814  0  0.971223  0
H  H14  1  0.64772950  0.63347102  0.76265887  1  0.621304  0  0.289337  0.372986  0  0.970995  0
H  H15  1  0.85226396  0.36652418  0.26265197  1  0.621179  0  0.289219  0.372877  0  0.971145  0
H  H16  1  0.36123226  0.18464674  0.37281145  1  0.071078  0  0.10053  0.114515  0  1.041642  0
H  H17  1  0.13876501  0.81536338  0.87280895  1  0.071265  0  0.100517  0.114578  0  1.041695  0
H  H18  1  0.63878736  0.81534500  0.62718543  1  0.070806  0  0.100591  0.114754  0  1.041639  0
H  H19  1  0.86116883  0.18465463  0.12718350  1  0.070635  0  0.100592  0.114766  0  1.041581  0
H  H20  1  0.31098482  0.95162145  0.38007638  1  0.07212  0  0.104271  0.106557  0  1.008655  0
H  H21  1  0.18902501  0.04839067  0.88007679  1  0.071932  0  0.104273  0.106594  0  1.008554  0
H  H22  1  0.68902668  0.04836654  0.61992296  1  0.072055  0  0.104267  0.106579  0  1.008521  0
H  H23  1  0.81097183  0.95162788  0.11992107  1  0.071993  0  0.104249  0.106562  0  1.008596  0
H  H24  1  0.96917193  0.88327479  0.29999624  1  0.079661  0  0.106842  0.103888  0  1.021216  0
H  H25  1  0.53084772  0.11670500  0.80000091  1  0.079653  0  0.106853  0.103909  0  1.021313  0
H  H26  1  0.03087096  0.11671584  0.69999127  1  0.079552  0  0.106854  0.103939  0  1.021374  0
H  H27  1  0.46913208  0.88328701  0.20000238  1  0.079521  0  0.106894  0.103947  0  1.021402  0
H  H28  1  0.02213732  0.11566409  0.29538251  1  0.097532  0  0.101732  0.119438  0  1.017414  0
H  H29  1  0.47784421  0.88431467  0.79538218  1  0.097374  0  0.10173  0.119319  0  1.017554  0
H  H30  1  0.97783584  0.88432796  0.70460944  1  0.097322  0  0.101736  0.119329  0  1.017694  0
H  H31  1  0.52215971  0.11569431  0.20461618  1  0.097115  0  0.101718  0.119337  0  1.017721  0
H  H32  1  0.40632359  0.62951114  0.46439697  1  0.105713  0  0.105463  0.100475  0  1.052487  0
H  H33  1  0.09368299  0.37049552  0.96440169  1  0.105762  0  0.105446  0.100463  0  1.052381  0
H  H34  1  0.59371812  0.37046903  0.53560189  1  0.105668  0  0.105423  0.1004  0  1.052439  0
H  H35  1  0.90630228  0.62952215  0.03560160  1  0.10561  0  0.105487  0.100488  0  1.052472  0
H  H36  1  0.54661646  0.57551149  0.57719682  1  0.096976  0  0.11253  0.12536  0  1.007108  0
H  H37  1  0.95338098  0.42448566  0.07720725  1  0.096974  0  0.112506  0.125389  0  1.006967  0
H  H38  1  0.45340559  0.42446310  0.42279957  1  0.097014  0  0.112486  0.12534  0  1.007083  0
H  H39  1  0.04663718  0.57553845  0.92280245  1  0.097198  0  0.112513  0.125399  0  1.007214  0
H  H40  1  0.16954283  0.74048228  0.53029007  1  0.076649  0  0.106879  0.124994  0  1.013444  0
H  H41  1  0.33046321  0.25952673  0.03028516  1  0.076398  0  0.10689  0.125044  0  1.013432  0
H  H42  1  0.83044960  0.25952392  0.46971766  1  0.076588  0  0.106955  0.125174  0  1.013383  0
H  H43  1  0.66954096  0.74047654  0.96972011  1  0.076695  0  0.106923  0.1252  0  1.013437  0
H  H44  1  0.03288311  0.79296444  0.41775199  1  0.088935  0  0.106139  0.104397  0  1.027455  0
H  H45  1  0.46709976  0.20703644  0.91774523  1  0.088733  0  0.106213  0.104627  0  1.027545  0
H  H46  1  0.96714888  0.20704720  0.58225130  1  0.089013  0  0.106178  0.104435  0  1.027719  0
H  H47  1  0.53287668  0.79295655  0.08225166  1  0.088862  0  0.106244  0.104624  0  1.027588  0
C  C48  1  0.69672020  0.16737646  0.33533856  1  0.601682  0  0.08606  0.344331  0  4.12306  0
C  C49  1  0.80329413  0.83260806  0.83534342  1  0.600592  0  0.08601  0.344109  0  4.123161  0
C  C50  1  0.30326068  0.83259174  0.66465585  1  0.595361  0  0.086054  0.344228  0  4.123012  0
C  C51  1  0.19670782  0.16740759  0.16465593  1  0.582457  0  0.085947  0.344061  0  4.123323  0
C  C52  1  0.49435457  0.11793564  0.35794274  1  -0.027933  0  -0.10992  -0.21402  0  3.960987  0
C  C53  1  0.00564876  0.88207501  0.85794503  1  -0.027535  0  -0.109859  -0.213936  0  3.960809  0
C  C54  1  0.50565243  0.88204191  0.64205167  1  -0.027975  0  -0.10996  -0.214346  0  3.960624  0
C  C55  1  0.99432442  0.11795321  0.14205235  1  -0.015316  0  -0.109938  -0.214213  0  3.960894  0
C  C56  1  0.46629363  0.98804485  0.36176650  1  -0.004944  0  -0.086744  -0.064779  0  4.024604  0
C  C57  1  0.03372269  0.01196675  0.86176335  1  -0.004937  0  -0.086731  -0.064855  0  4.02437  0
C  C58  1  0.53371625  0.01194219  0.63823186  1  -0.00448  0  -0.086714  -0.064636  0  4.024474  0
C  C59  1  0.96627075  0.98805371  0.13823600  1  -0.004724  0  -0.086729  -0.064742  0  4.024464  0
C  C60  1  0.63828611  0.90353893  0.34119005  1  -0.254643  0  -0.046172  -0.147731  0  4.060957  0
C  C61  1  0.86172131  0.09646292  0.84118285  1  -0.254607  0  -0.046257  -0.147767  0  4.06126  0
C  C62  1  0.36172394  0.09644431  0.65881275  1  -0.254826  0  -0.046284  -0.147833  0  4.061415  0
C  C63  1  0.13829842  0.90356308  0.15881798  1  -0.254751  0  -0.046239  -0.147787  0  4.060841  0
C  C64  1  0.83840615  0.94960092  0.31722412  1  -0.004502  0  -0.087142  -0.072298  0  4.031449  0
C  C65  1  0.66159194  0.05037374  0.81723143  1  -0.004011  0  -0.087145  -0.072478  0  4.031775  0
C  C66  1  0.16159604  0.05037285  0.68276980  1  -0.003742  0  -0.087175  -0.072528  0  4.03214  0
C  C67  1  0.33843167  0.94963987  0.18277432  1  -0.00351  0  -0.087209  -0.072475  0  4.031678  0
C  C68  1  0.86764690  0.07977793  0.31461569  1  -0.054529  0  -0.111036  -0.216971  0  3.950866  0
C  C69  1  0.63233036  0.92019585  0.81462698  1  -0.054974  0  -0.110913  -0.216519  0  3.950896  0
C  C70  1  0.13232534  0.92019795  0.68537577  1  -0.048962  0  -0.110978  -0.216653  0  3.950986  0
C  C71  1  0.36767321  0.07982074  0.18537434  1  -0.048779  0  -0.110841  -0.216566  0  3.95098  0
C  C72  1  0.71267500  0.70978511  0.43360741  1  -0.212051  0  -0.039303  -0.132248  0  4.032465  0
C  C73  1  0.78732069  0.29020869  0.93360429  1  -0.21222  0  -0.039216  -0.131854  0  4.032064  0
C  C74  1  0.28732887  0.29022482  0.56639539  1  -0.21271  0  -0.039266  -0.132118  0  4.032408  0
C  C75  1  0.21268221  0.70978602  0.06639850  1  -0.212191  0  -0.039196  -0.131939  0  4.032236  0
C  C76  1  0.57462506  0.65089112  0.47867824  1  -0.021896  0  -0.084673  -0.069924  0  4.027328  0
C  C77  1  0.92536214  0.34911054  0.97867553  1  -0.021937  0  -0.084757  -0.070217  0  4.027172  0
C  C78  1  0.42538081  0.34911118  0.52132899  1  -0.021144  0  -0.084613  -0.06989  0  4.027484  0
C  C79  1  0.07462740  0.65088617  0.02133122  1  -0.021746  0  -0.084785  -0.07012  0  4.027311  0
C  C80  1  0.65334186  0.61920361  0.54103202  1  0.011059  0  -0.099421  -0.203881  0  3.958088  0
C  C81  1  0.84663782  0.38081558  0.04103013  1  0.011379  0  -0.099263  -0.20368  0  3.957713  0
C  C82  1  0.34667585  0.38079385  0.45897127  1  0.011393  0  -0.099362  -0.20388  0  3.957349  0
C  C83  1  0.15335741  0.61920202  0.95897612  1  0.011457  0  -0.099382  -0.203889  0  3.957752  0
C  C84  1  0.87145957  0.64632113  0.55914275  1  0.516762  0  0.094301  0.349271  0  4.074838  0
C  C85  1  0.62851096  0.35368240  0.05913695  1  0.516123  0  0.094251  0.349114  0  4.074961  0
C  C86  1  0.12853445  0.35364984  0.44085166  1  0.502175  0  0.094439  0.34966  0  4.074526  0
C  C87  1  0.37148890  0.64634278  0.94085599  1  0.502149  0  0.094417  0.349403  0  4.074726  0
C  C88  1  0.00474836  0.71336955  0.51487379  1  -0.029022  0  -0.103392  -0.213789  0  3.940977  0
C  C89  1  0.49525921  0.28662573  0.01486785  1  -0.028233  0  -0.103405  -0.213675  0  3.941404  0
C  C90  1  0.99526579  0.28659653  0.48512309  1  -0.013776  0  -0.103498  -0.214024  0  3.940854  0
C  C91  1  0.50474410  0.71339657  0.98513298  1  -0.013981  0  -0.103542  -0.214096  0  3.94113  0
C  C92  1  0.92672551  0.74364887  0.45213874  1  -0.034163  0  -0.08144  -0.066255  0  4.010456  0
C  C93  1  0.57327769  0.25633107  0.95213558  1  -0.034476  0  -0.081528  -0.066719  0  4.010599  0
C  C94  1  0.07328123  0.25633439  0.54786110  1  -0.03469  0  -0.081558  -0.066479  0  4.010454  0
C  C95  1  0.42671338  0.74366847  0.04786623  1  -0.034714  0  -0.081598  -0.066636  0  4.010911  0
S  S96  1  0.61401236  0.74017320  0.35298283  1  2.406151  0  0.481949  1.018037  0  5.743914  0
S  S97  1  0.88596506  0.25981868  0.85298142  1  2.405862  0  0.481912  1.01806  0  5.743648  0
S  S98  1  0.38597906  0.25981873  0.64702145  1  2.405788  0  0.481917  1.018048  0  5.74367  0
S  S99  1  0.11401571  0.74018855  0.14702187  1  2.406111  0  0.48175  1.017804  0  5.743919  0
O  O100  1  0.72185009  0.29210186  0.33323250  1  -1.209813  0  -0.335993  -0.561257  0  2.297202  0
O  O101  1  0.77823842  0.70787546  0.83323401  1  -1.209114  0  -0.335962  -0.561278  0  2.29722  0
O  O102  1  0.27816848  0.70787657  0.66676980  1  -1.209532  0  -0.335925  -0.56117  0  2.297685  0
O  O103  1  0.22173733  0.29213275  0.16675893  1  -1.209122  0  -0.33596  -0.561222  0  2.297725  0
O  O104  1  0.94312381  0.60821664  0.61897076  1  -1.204357  0  -0.388521  -0.521563  0  2.386063  0
O  O105  1  0.55685584  0.39178358  0.11897064  1  -1.204053  0  -0.388434  -0.521379  0  2.385851  0
O  O106  1  0.05689628  0.39176463  0.38103253  1  -1.204777  0  -0.388495  -0.521603  0  2.386565  0
O  O107  1  0.44313450  0.60823214  0.88103807  1  -1.204767  0  -0.388494  -0.521416  0  2.386421  0
O  O108  1  0.37986470  0.70915427  0.35129779  1  -1.331635  0  -0.35849  -0.592232  0  2.213325  0
O  O109  1  0.12013643  0.29085051  0.85130311  1  -1.33136  0  -0.358523  -0.592349  0  2.212766  0
O  O110  1  0.62014514  0.29083373  0.64870107  1  -1.331505  0  -0.358486  -0.592272  0  2.212807  0
O  O111  1  0.87988373  0.70916597  0.14869821  1  -1.331604  0  -0.358309  -0.59209  0  2.213405  0
O  O112  1  0.76368028  0.67312951  0.30643285  1  -1.338038  0  -0.378598  -0.623479  0  2.219952  0
O  O113  1  0.73631098  0.32687062  0.80643308  1  -1.33792  0  -0.378603  -0.62349  0  2.220182  0
O  O114  1  0.23634074  0.32686793  0.69356748  1  -1.337785  0  -0.378613  -0.623508  0  2.220206  0
O  O115  1  0.26368953  0.67314028  0.19356972  1  -1.337827  0  -0.378564  -0.623461  0  2.220053  0
O  O116  1  0.41891164  0.42854201  0.26739886  1  -1.305271  0  -0.730178  -0.884784  0  2.024077  0
O  O117  1  0.08106730  0.57144747  0.76740063  1  -1.305083  0  -0.730072  -0.884659  0  2.024202  0
O  O118  1  0.58108284  0.57145560  0.73260048  1  -1.305435  0  -0.730123  -0.884775  0  2.024068  0
O  O119  1  0.91890527  0.42855791  0.23259872  1  -1.304967  0  -0.729971  -0.884633  0  2.024092  0
