# generated using pymatgen
data_GdCu2H14C17Br2N2O7
_symmetry_space_group_name_H-M   'P 1'
_cell_length_a   7.32492109
_cell_length_b   7.56194928
_cell_length_c   21.17403388
_cell_angle_alpha   90.08683601
_cell_angle_beta   88.59627051
_cell_angle_gamma   66.06434291
_symmetry_Int_Tables_number   1
_chemical_formula_structural   GdCu2H14C17Br2N2O7
_chemical_formula_sum   'Gd2 Cu4 H28 C34 Br4 N4 O14'
_cell_volume   1071.57559090
_cell_formula_units_Z   2
loop_
 _symmetry_equiv_pos_site_id
 _symmetry_equiv_pos_as_xyz
  1  'x, y, z'
loop_
 _atom_site_type_symbol
 _atom_site_label
 _atom_site_symmetry_multiplicity
 _atom_site_fract_x
 _atom_site_fract_y
 _atom_site_fract_z
 _atom_site_occupancy
 _atom_site_hle17_bader_spin_density
 _atom_site_hle17_ddec_charge
 _atom_site_hle17_ddec_spin_density
 _atom_site_hle17_ddec_sum_bond_order
 _atom_site_hle17_magmom
 _atom_site_hse06_10hf_bader_spin_density
 _atom_site_hse06_10hf_ddec_charge
 _atom_site_hse06_10hf_ddec_spin_density
 _atom_site_hse06_10hf_ddec_sum_bond_order
 _atom_site_hse06_10hf_magmom
 _atom_site_hse06_bader_spin_density
 _atom_site_hse06_ddec_charge
 _atom_site_hse06_ddec_spin_density
 _atom_site_hse06_ddec_sum_bond_order
 _atom_site_hse06_magmom
 _atom_site_pbe_bader_spin_density
 _atom_site_pbe_cm5_charge
 _atom_site_pbe_ddec_charge
 _atom_site_pbe_ddec_spin_density
 _atom_site_pbe_ddec_sum_bond_order
 _atom_site_pbe_magmom
Gd  Gd0  1  0.24609146  0.25066351  0.48698288  1  0  2.183072  0  1.754595  0  0  2.093695  0  2.096886  0  0  2.148833  0  2.044599  0  0  1.472233  2.051757  0  2.137473  0
Gd  Gd1  1  0.75391168  0.74938330  0.51302279  1  0  2.183152  0  1.754925  0  0  2.093601  0  2.097509  0  0  2.14872  0  2.045255  0  0  1.472273  2.051773  0  2.137917  0
Cu  Cu2  1  0.98350582  0.64776062  0.03549538  1  0  0.29992  0  2.129309  0  0  0.211932  0  2.633194  0  0  0.225177  0  2.570544  0  0  0.284639  0.205824  0  2.674346  0
Cu  Cu3  1  0.01644265  0.35217055  0.96449322  1  0  0.300045  0  2.129687  0  0  0.21217  0  2.633467  0  0  0.225409  0  2.570833  0  0  0.284828  0.206067  0  2.674582  0
Cu  Cu4  1  0.00305953  0.10901733  0.05067065  1  0  0.295375  0  2.084702  0  0  0.201257  0  2.588202  0  0  0.21447  0  2.527525  0  0  0.282901  0.195532  0  2.627597  0
Cu  Cu5  1  0.99694576  0.89094771  0.94933113  1  0  0.295433  0  2.084142  0  0  0.201279  0  2.587632  0  0  0.214528  0  2.526963  0  0  0.28287  0.195543  0  2.627034  0
H  H6  1  0.55226611  0.58618041  0.73144787  1  0  0.103422  0  0.931157  0  0  0.119027  0  0.98215  0  0  0.122105  0  0.979201  0  0  0.112942  0.116771  0  0.984492  0
H  H7  1  0.44771862  0.41379411  0.26854885  1  0  0.103361  0  0.931176  0  0  0.118937  0  0.982219  0  0  0.122015  0  0.979273  0  0  0.112926  0.116669  0  0.984573  0
H  H8  1  0.63140566  0.43956758  0.83941687  1  0  0.101416  0  0.963178  0  0  0.110066  0  1.026581  0  0  0.113167  0  1.026093  0  0  0.097235  0.107654  0  1.027212  0
H  H9  1  0.36857683  0.56040259  0.16058039  1  0  0.101392  0  0.962958  0  0  0.110024  0  1.026397  0  0  0.113134  0  1.0259  0  0  0.097174  0.107616  0  1.027029  0
H  H10  1  0.38976056  0.58371719  0.92839757  1  0  0.08971  0  0.954699  0  0  0.094836  0  1.024459  0  0  0.098698  0  1.020543  0  0  0.1004  0.091185  0  1.028634  0
H  H11  1  0.61023294  0.41625600  0.07159954  1  0  0.089799  0  0.954658  0  0  0.094829  0  1.024509  0  0  0.098694  0  1.020588  0  0  0.100397  0.091178  0  1.028687  0
H  H12  1  0.99924920  0.00569180  0.81385982  1  0  0.07721  0  0.931625  0  0  0.085376  0  0.999261  0  0  0.088493  0  0.996503  0  0  0.111426  0.083027  0  1.001291  0
H  H13  1  0.00074692  0.99429780  0.18614134  1  0  0.077096  0  0.931694  0  0  0.08528  0  0.999329  0  0  0.088398  0  0.996575  0  0  0.111369  0.082933  0  1.00136  0
H  H14  1  0.51459170  0.83588366  0.27495348  1  0  0.102443  0  0.924869  0  0  0.11878  0  0.973521  0  0  0.121626  0  0.971306  0  0  0.11231  0.116637  0  0.975363  0
H  H15  1  0.48540927  0.16410727  0.72504572  1  0  0.102429  0  0.924892  0  0  0.11877  0  0.973554  0  0  0.121626  0  0.971326  0  0  0.112301  0.116615  0  0.975417  0
H  H16  1  0.36501217  0.01428085  0.17591216  1  0  0.102729  0  0.94829  0  0  0.112165  0  1.009714  0  0  0.115697  0  1.008492  0  0  0.101238  0.109479  0  1.010874  0
H  H17  1  0.63498351  0.98571275  0.82408518  1  0  0.102713  0  0.948412  0  0  0.112161  0  1.009803  0  0  0.115693  0  1.008582  0  0  0.101223  0.109469  0  1.010968  0
H  H18  1  0.56522713  0.93104578  0.07536335  1  0  0.092039  0  0.946785  0  0  0.096823  0  1.01629  0  0  0.100578  0  1.012624  0  0  0.102218  0.093305  0  1.020079  0
H  H19  1  0.43476416  0.06892295  0.92463288  1  0  0.091958  0  0.946846  0  0  0.096762  0  1.016314  0  0  0.10052  0  1.01264  0  0  0.102212  0.093239  0  1.020103  0
H  H20  1  0.04502236  0.50708953  0.16167290  1  0  0.074263  0  0.970513  0  0  0.079188  0  1.045223  0  0  0.082483  0  1.042502  0  0  0.100142  0.076715  0  1.047202  0
H  H21  1  0.95496544  0.49285842  0.83831933  1  0  0.074342  0  0.970436  0  0  0.079238  0  1.045192  0  0  0.082537  0  1.042458  0  0  0.100115  0.076757  0  1.047174  0
H  H22  1  0.69485237  0.64226420  0.35639990  1  0  0.127876  0  0.956098  0  0  0.134649  0  1.018098  0  0  0.139041  0  1.016213  0  0  0.110792  0.131546  0  1.019541  0
H  H23  1  0.30515394  0.35775905  0.64360220  1  0  0.128004  0  0.956093  0  0  0.134757  0  1.018159  0  0  0.139148  0  1.016277  0  0  0.110855  0.131657  0  1.019604  0
H  H24  1  0.05958078  0.44002532  0.26694107  1  0  0.093673  0  0.938149  0  0  0.105721  0  0.99731  0  0  0.108946  0  0.994505  0  0  0.106213  0.103243  0  0.999609  0
H  H25  1  0.94041964  0.55997022  0.73306092  1  0  0.093716  0  0.938164  0  0  0.105759  0  0.997329  0  0  0.108984  0  0.994527  0  0  0.10623  0.103279  0  0.999627  0
H  H26  1  0.49032704  0.76038222  0.65313829  1  0  0.134311  0  0.961659  0  0  0.140813  0  1.025067  0  0  0.145301  0  1.023063  0  0  0.114194  0.137599  0  1.026689  0
H  H27  1  0.50968555  0.23962973  0.34686670  1  0  0.134263  0  0.961689  0  0  0.140853  0  1.025004  0  0  0.14534  0  1.023001  0  0  0.114203  0.137635  0  1.026632  0
H  H28  1  0.29016153  0.87671406  0.44091943  1  0  0.438046  0  0.863173  0  0  0.410417  0  0.92119  0  0  0.421414  0  0.904922  0  0  0.304988  0.402575  0  0.932799  0
H  H29  1  0.70985825  0.12331883  0.55907534  1  0  0.438021  0  0.863238  0  0  0.410377  0  0.92126  0  0  0.421388  0  0.904975  0  0  0.305022  0.402526  0  0.932874  0
H  H30  1  0.05348371  0.96509873  0.43581513  1  0  0.453413  0  0.835412  0  0  0.427167  0  0.889908  0  0  0.43732  0  0.875132  0  0  0.307779  0.419958  0  0.900398  0
H  H31  1  0.94653491  0.03492429  0.56418306  1  0  0.453382  0  0.835484  0  0  0.427125  0  0.889996  0  0  0.437284  0  0.875209  0  0  0.307756  0.419912  0  0.900485  0
H  H32  1  0.06729099  0.03130194  0.70186607  1  0  0.099206  0  0.922985  0  0  0.112739  0  0.977628  0  0  0.115685  0  0.975261  0  0  0.111825  0.110452  0  0.979641  0
H  H33  1  0.93272051  0.96868390  0.29813968  1  0  0.099191  0  0.923108  0  0  0.11274  0  0.977714  0  0  0.115683  0  0.975353  0  0  0.111812  0.110455  0  0.979726  0
C  C34  1  0.26770154  0.80955569  0.76364509  1  0  0.019329  0  3.828011  0  0  0.043199  0  4.062167  0  0  0.035889  0  4.089676  0  0  -0.010078  0.048026  0  4.043595  0
C  C35  1  0.73229486  0.19042366  0.23635523  1  0  0.019058  0  3.828004  0  0  0.042938  0  4.062186  0  0  0.035628  0  4.089693  0  0  -0.010158  0.047771  0  4.043611  0
C  C36  1  0.44895286  0.64704215  0.77152953  1  0  -0.052743  0  3.680597  0  0  -0.078189  0  3.923935  0  0  -0.073354  0  3.940648  0  0  -0.066708  -0.081457  0  3.912764  0
C  C37  1  0.55103827  0.35292389  0.22846909  1  0  -0.052595  0  3.680193  0  0  -0.078018  0  3.923551  0  0  -0.073187  0  3.940272  0  0  -0.066718  -0.081279  0  3.912381  0
C  C38  1  0.49380663  0.56547300  0.83076710  1  0  -0.112429  0  3.761905  0  0  -0.123946  0  4.014458  0  0  -0.131461  0  4.035805  0  0  -0.087507  -0.119488  0  4.001315  0
C  C39  1  0.50618140  0.43450027  0.16923148  1  0  -0.112493  0  3.761175  0  0  -0.124022  0  4.013728  0  0  -0.131546  0  4.035077  0  0  -0.087507  -0.119564  0  4.000588  0
C  C40  1  0.35874851  0.64453449  0.88122929  1  0  0.150309  0  3.624409  0  0  0.116448  0  3.874935  0  0  0.125826  0  3.888752  0  0  0.043891  0.109207  0  3.867947  0
C  C41  1  0.64124742  0.35544903  0.11876910  1  0  0.150285  0  3.624161  0  0  0.11658  0  3.874604  0  0  0.125963  0  3.888421  0  0  0.044018  0.109332  0  3.867613  0
C  C42  1  0.14041407  0.87849329  0.81701834  1  0  0.077409  0  3.642684  0  0  0.039187  0  3.893443  0  0  0.045444  0  3.910704  0  0  0.04485  0.03521  0  3.882112  0
C  C43  1  0.85957835  0.12148905  0.18298340  1  0  0.07776  0  3.642521  0  0  0.039557  0  3.893265  0  0  0.045817  0  3.910526  0  0  0.044992  0.03557  0  3.88193  0
C  C44  1  0.79521111  0.65594072  0.22643343  1  0  0.019222  0  3.844112  0  0  0.043936  0  4.076353  0  0  0.036974  0  4.103539  0  0  -0.0132  0.048516  0  4.057951  0
C  C45  1  0.20478629  0.34404577  0.77356538  1  0  0.019219  0  3.844474  0  0  0.044152  0  4.076417  0  0  0.037202  0  4.103582  0  0  -0.013171  0.048728  0  4.058017  0
C  C46  1  0.59876987  0.80069500  0.23009422  1  0  -0.054735  0  3.69248  0  0  -0.079784  0  3.936704  0  0  -0.075009  0  3.954376  0  0  -0.068028  -0.082673  0  3.924516  0
C  C47  1  0.40123613  0.19930342  0.76990674  1  0  -0.054775  0  3.692609  0  0  -0.079921  0  3.936824  0  0  -0.075162  0  3.954497  0  0  -0.068065  -0.082805  0  3.924645  0
C  C48  1  0.51536850  0.89986227  0.17564281  1  0  -0.117498  0  3.752736  0  0  -0.129573  0  4.007187  0  0  -0.137418  0  4.027999  0  0  -0.086661  -0.12476  0  3.993923  0
C  C49  1  0.48462965  0.10012559  0.82435503  1  0  -0.117503  0  3.752692  0  0  -0.129558  0  4.007146  0  0  -0.137405  0  4.027959  0  0  -0.086583  -0.124746  0  3.993882  0
C  C50  1  0.62636658  0.85481196  0.11875776  1  0  0.144684  0  3.629837  0  0  0.11105  0  3.883187  0  0  0.120765  0  3.89674  0  0  0.045475  0.103863  0  3.875954  0
C  C51  1  0.37361835  0.14516858  0.88124126  1  0  0.144953  0  3.629761  0  0  0.111307  0  3.883164  0  0  0.121042  0  3.896723  0  0  0.045495  0.104109  0  3.875918  0
C  C52  1  0.89419046  0.62054616  0.16737078  1  0  0.072498  0  3.66563  0  0  0.035357  0  3.912495  0  0  0.041306  0  3.929664  0  0  0.038993  0.031423  0  3.90149  0
C  C53  1  0.10579469  0.37942087  0.83262364  1  0  0.072326  0  3.66559  0  0  0.035136  0  3.912435  0  0  0.041096  0  3.92961  0  0  0.038927  0.031203  0  3.901407  0
C  C54  1  0.98481524  0.43275651  0.38702912  1  0  0.721087  0  3.86776  0  0  0.68075  0  4.158402  0  0  0.716823  0  4.148871  0  0  0.204  0.656243  0  4.163884  0
C  C55  1  0.01519433  0.56729758  0.61297593  1  0  0.720936  0  3.867947  0  0  0.680816  0  4.158302  0  0  0.716892  0  4.148766  0  0  0.20396  0.656307  0  4.163798  0
C  C56  1  0.84487159  0.54856123  0.33935102  1  0  -0.226468  0  3.655357  0  0  -0.244069  0  3.915591  0  0  -0.257662  0  3.934283  0  0  -0.094626  -0.235008  0  3.903014  0
C  C57  1  0.15514337  0.45145431  0.66064540  1  0  -0.226541  0  3.655314  0  0  -0.244311  0  3.915631  0  0  -0.257908  0  3.934324  0  0  -0.094678  -0.23525  0  3.903061  0
C  C58  1  0.90619636  0.54157023  0.27859419  1  0  -0.028543  0  3.747673  0  0  -0.054639  0  3.997558  0  0  -0.050159  0  4.017826  0  0  -0.068945  -0.057831  0  3.984272  0
C  C59  1  0.09380101  0.45843227  0.72140493  1  0  -0.028534  0  3.747503  0  0  -0.054611  0  3.997341  0  0  -0.050136  0  4.01761  0  0  -0.068904  -0.057798  0  3.984057  0
C  C60  1  0.33905239  0.87316884  0.65286179  1  0  -0.246895  0  3.644191  0  0  -0.261722  0  3.900854  0  0  -0.276679  0  3.918946  0  0  -0.094286  -0.251997  0  3.88901  0
C  C61  1  0.66095761  0.12684595  0.34714273  1  0  -0.24666  0  3.644046  0  0  -0.261597  0  3.900703  0  0  -0.276551  0  3.918794  0  0  -0.094222  -0.251867  0  3.888851  0
C  C62  1  0.29481425  0.99101448  0.59584279  1  0  0.722007  0  3.876343  0  0  0.679524  0  4.166507  0  0  0.715852  0  4.15682  0  0  0.215862  0.654764  0  4.172285  0
C  C63  1  0.70520152  0.00900921  0.40416299  1  0  0.722101  0  3.876531  0  0  0.679668  0  4.166655  0  0  0.715996  0  4.156964  0  0  0.215819  0.654907  0  4.172437  0
C  C64  1  0.45444523  0.55151198  0.46924357  1  0  0.571183  0  3.895449  0  0  0.527218  0  4.196196  0  0  0.557391  0  4.18645  0  0  0.225671  0.506684  0  4.202117  0
C  C65  1  0.54556336  0.44853832  0.53076768  1  0  0.570654  0  3.89582  0  0  0.526958  0  4.196171  0  0  0.557074  0  4.186502  0  0  0.225673  0.506431  0  4.202085  0
C  C66  1  0.21447705  0.91122311  0.70398652  1  0  -0.004602  0  3.708638  0  0  -0.032294  0  3.961354  0  0  -0.025898  0  3.980555  0  0  -0.057956  -0.036829  0  3.948869  0
C  C67  1  0.78553006  0.08876955  0.29601495  1  0  -0.004696  0  3.708699  0  0  -0.032397  0  3.961473  0  0  -0.026  0  3.980671  0  0  -0.057951  -0.03694  0  3.948986  0
Br  Br68  1  0.24327099  0.77656320  0.04249348  1  0  -0.409117  0  1.576461  0  0  -0.339274  0  2.004124  0  0  -0.359233  0  1.963176  0  0  -0.218477  -0.323869  0  2.032136  0
Br  Br69  1  0.75668888  0.22345010  0.95750121  1  0  -0.409184  0  1.576453  0  0  -0.339361  0  2.004102  0  0  -0.35932  0  1.963157  0  0  -0.218509  -0.323968  0  2.032109  0
Br  Br70  1  0.22934720  0.28930938  0.05499915  1  0  -0.425604  0  1.508547  0  0  -0.35655  0  1.920735  0  0  -0.377166  0  1.882461  0  0  -0.226968  -0.340545  0  1.946764  0
Br  Br71  1  0.77064857  0.71062897  0.94498270  1  0  -0.425669  0  1.508472  0  0  -0.356625  0  1.920693  0  0  -0.377256  0  1.882435  0  0  -0.226946  -0.340562  0  1.946614  0
N  N72  1  0.18368478  0.79908234  0.87469905  1  0  -0.258769  0  3.366169  0  0  -0.183707  0  3.659183  0  0  -0.196579  0  3.667661  0  0  -0.35851  -0.176527  0  3.654332  0
N  N73  1  0.81630634  0.20089964  0.12529893  1  0  -0.258858  0  3.36616  0  0  -0.183889  0  3.659238  0  0  -0.196767  0  3.667717  0  0  -0.358535  -0.176678  0  3.654358  0
N  N74  1  0.81382571  0.71605092  0.11461674  1  0  -0.259327  0  3.376834  0  0  -0.18578  0  3.667674  0  0  -0.198215  0  3.675294  0  0  -0.361103  -0.178932  0  3.663617  0
N  N75  1  0.18615904  0.28390757  0.88537968  1  0  -0.259414  0  3.376897  0  0  -0.1859  0  3.667791  0  0  -0.198369  0  3.675445  0  0  -0.361173  -0.179017  0  3.663677  0
O  O76  1  0.50532568  0.68678809  0.45184656  1  0  -0.665817  0  2.133419  0  0  -0.61693  0  2.366486  0  0  -0.641831  0  2.356776  0  0  -0.350085  -0.599303  0  2.372809  0
O  O77  1  0.49470215  0.31324903  0.54816130  1  0  -0.665636  0  2.133323  0  0  -0.616839  0  2.366239  0  0  -0.641731  0  2.356557  0  0  -0.350042  -0.599195  0  2.372555  0
O  O78  1  0.44156045  0.96326884  0.55626576  1  0  -0.796557  0  2.134081  0  0  -0.749862  0  2.389925  0  0  -0.778241  0  2.379813  0  0  -0.434701  -0.729408  0  2.396252  0
O  O79  1  0.55845233  0.03676504  0.44374041  1  0  -0.796631  0  2.134033  0  0  -0.74987  0  2.389723  0  0  -0.778254  0  2.379615  0  0  -0.434593  -0.729407  0  2.396047  0
O  O80  1  0.92849911  0.46645278  0.44674796  1  0  -0.833967  0  2.090511  0  0  -0.78855  0  2.340488  0  0  -0.817722  0  2.331546  0  0  -0.461274  -0.76733  0  2.34581  0
O  O81  1  0.07151140  0.53360515  0.55325137  1  0  -0.833937  0  2.090306  0  0  -0.788651  0  2.340316  0  0  -0.817821  0  2.331365  0  0  -0.461292  -0.767424  0  2.345634  0
O  O82  1  0.15627925  0.30554861  0.37308134  1  0  -0.649838  0  1.941516  0  0  -0.609946  0  2.165435  0  0  -0.634346  0  2.155328  0  0  -0.35117  -0.592907  0  2.172014  0
O  O83  1  0.84374658  0.69452177  0.62692477  1  0  -0.649796  0  1.941601  0  0  -0.609944  0  2.165431  0  0  -0.63434  0  2.155313  0  0  -0.351158  -0.592928  0  2.172033  0
O  O84  1  0.12375167  0.12329900  0.58425911  1  0  -0.68598  0  1.977899  0  0  -0.635597  0  2.199831  0  0  -0.660806  0  2.189838  0  0  -0.339812  -0.61798  0  2.206412  0
O  O85  1  0.87625237  0.87672018  0.41574637  1  0  -0.68601  0  1.978044  0  0  -0.635688  0  2.200007  0  0  -0.660889  0  2.190011  0  0  -0.339888  -0.618088  0  2.206594  0
O  O86  1  0.33608312  0.49752993  0.44133362  1  0  -0.616751  0  2.044953  0  0  -0.581655  0  2.283643  0  0  -0.60428  0  2.274808  0  0  -0.349558  -0.565692  0  2.289411  0
O  O87  1  0.66390100  0.50253958  0.55868383  1  0  -0.616533  0  2.045165  0  0  -0.58145  0  2.283677  0  0  -0.60406  0  2.274881  0  0  -0.349407  -0.565505  0  2.289438  0
O  O88  1  0.16622827  0.99479605  0.44962638  1  0  -0.920174  0  1.857118  0  0  -0.879268  0  2.03529  0  0  -0.899251  0  2.00417  0  0  -0.652741  -0.864742  0  2.057212  0
O  O89  1  0.83379171  0.00523931  0.55036363  1  0  -0.920161  0  1.857324  0  0  -0.879109  0  2.035429  0  0  -0.899103  0  2.004265  0  0  -0.652777  -0.864581  0  2.057384  0
