# generated using pymatgen
data_KH12C11O6
_symmetry_space_group_name_H-M   'P 1'
_cell_length_a   5.80649837
_cell_length_b   8.39585676
_cell_length_c   13.74865675
_cell_angle_alpha   110.40422335
_cell_angle_beta   99.80103511
_cell_angle_gamma   94.73598986
_symmetry_Int_Tables_number   1
_chemical_formula_structural   KH12C11O6
_chemical_formula_sum   'K2 H24 C22 O12'
_cell_volume   611.68002611
_cell_formula_units_Z   2
loop_
 _symmetry_equiv_pos_site_id
 _symmetry_equiv_pos_as_xyz
  1  'x, y, z'
loop_
 _atom_site_type_symbol
 _atom_site_label
 _atom_site_symmetry_multiplicity
 _atom_site_fract_x
 _atom_site_fract_y
 _atom_site_fract_z
 _atom_site_occupancy
 _atom_site_hle17_bader_spin_density
 _atom_site_hle17_ddec_charge
 _atom_site_hle17_ddec_spin_density
 _atom_site_hle17_ddec_sum_bond_order
 _atom_site_hle17_magmom
 _atom_site_hse06_10hf_bader_spin_density
 _atom_site_hse06_10hf_ddec_charge
 _atom_site_hse06_10hf_ddec_spin_density
 _atom_site_hse06_10hf_ddec_sum_bond_order
 _atom_site_hse06_10hf_magmom
 _atom_site_hse06_bader_spin_density
 _atom_site_hse06_ddec_charge
 _atom_site_hse06_ddec_spin_density
 _atom_site_hse06_ddec_sum_bond_order
 _atom_site_hse06_magmom
 _atom_site_pbe_bader_spin_density
 _atom_site_pbe_cm5_charge
 _atom_site_pbe_ddec_charge
 _atom_site_pbe_ddec_spin_density
 _atom_site_pbe_ddec_sum_bond_order
 _atom_site_pbe_magmom
K  K0  1  0.77854217  0.37500398  0.04643874  1  0  0.926023  0  0.377178  0  0  0.883608  0  0.533477  0  0  0.89775  0  0.510258  0  0  0.674786  0.872788  0  0.550282  0
K  K1  1  0.22144751  0.62499419  0.95356338  1  0  0.926025  0  0.377161  0  0  0.883601  0  0.533469  0  0  0.897745  0  0.51025  0  0  0.674787  0.872781  0  0.550276  0
H  H2  1  0.16310120  0.72892523  0.20023657  1  0  0.412209  0  0.869505  0  0  0.39286  0  0.925492  0  0  0.399246  0  0.916621  0  0  0.304183  0.388356  0  0.931766  0
H  H3  1  0.83689765  0.27106518  0.79975961  1  0  0.412133  0  0.869579  0  0  0.392781  0  0.925602  0  0  0.399168  0  0.916729  0  0  0.30413  0.388277  0  0.931877  0
H  H4  1  0.27666874  0.56076057  0.18424747  1  0  0.426549  0  0.879449  0  0  0.39496  0  0.945271  0  0  0.405148  0  0.930243  0  0  0.291919  0.387723  0  0.955925  0
H  H5  1  0.72333608  0.43923408  0.81575432  1  0  0.426659  0  0.879316  0  0  0.395054  0  0.945166  0  0  0.405248  0  0.930126  0  0  0.291945  0.387822  0  0.955811  0
H  H6  1  0.76617892  0.29403582  0.42913979  1  0  0.103217  0  0.976342  0  0  0.110209  0  1.044926  0  0  0.113344  0  1.043713  0  0  0.105213  0.107968  0  1.045846  0
H  H7  1  0.23380620  0.70595597  0.57086294  1  0  0.103172  0  0.976439  0  0  0.110212  0  1.044979  0  0  0.113339  0  1.043791  0  0  0.105234  0.107987  0  1.045875  0
H  H8  1  0.64943964  0.10405913  0.15092264  1  0  0.421271  0  0.883895  0  0  0.38879  0  0.950565  0  0  0.399919  0  0.934286  0  0  0.289158  0.380947  0  0.962011  0
H  H9  1  0.35055571  0.89593124  0.84907400  1  0  0.421275  0  0.883886  0  0  0.388793  0  0.950558  0  0  0.399922  0  0.934278  0  0  0.289164  0.380947  0  0.962009  0
H  H10  1  0.92163483  0.12469086  0.15735565  1  0  0.415325  0  0.84597  0  0  0.393378  0  0.911053  0  0  0.401234  0  0.901961  0  0  0.310466  0.387803  0  0.917537  0
H  H11  1  0.07835264  0.87530462  0.84264433  1  0  0.415268  0  0.846007  0  0  0.393332  0  0.911073  0  0  0.401189  0  0.901982  0  0  0.310423  0.387758  0  0.917548  0
H  H12  1  0.67786954  0.62061497  0.28901471  1  0  0.098238  0  1.000241  0  0  0.100498  0  1.074648  0  0  0.104144  0  1.072361  0  0  0.103222  0.097862  0  1.076309  0
H  H13  1  0.32214260  0.37939223  0.71098276  1  0  0.098198  0  1.000181  0  0  0.100503  0  1.07453  0  0  0.104151  0  1.07224  0  0  0.103234  0.097862  0  1.076195  0
H  H14  1  0.40932145  0.83296913  0.43502937  1  0  0.090055  0  0.978518  0  0  0.100599  0  1.042225  0  0  0.102343  0  1.042901  0  0  0.100947  0.099312  0  1.041828  0
H  H15  1  0.59069012  0.16703455  0.56497321  1  0  0.090056  0  0.978666  0  0  0.100588  0  1.042379  0  0  0.102346  0  1.04304  0  0  0.100941  0.099298  0  1.041986  0
H  H16  1  0.60867308  0.90151998  0.27141613  1  0  0.10528  0  0.959355  0  0  0.114152  0  1.020846  0  0  0.11809  0  1.018291  0  0  0.107501  0.111255  0  1.022892  0
H  H17  1  0.39133994  0.09848203  0.72857895  1  0  0.105339  0  0.959504  0  0  0.114237  0  1.020946  0  0  0.118175  0  1.018389  0  0  0.107568  0.111335  0  1.022998  0
H  H18  1  0.94369260  0.14039266  0.33046488  1  0  0.090055  0  0.986596  0  0  0.096453  0  1.05618  0  0  0.099891  0  1.053342  0  0  0.101152  0.093873  0  1.058398  0
H  H19  1  0.05631393  0.85961227  0.66953903  1  0  0.090109  0  0.986558  0  0  0.096504  0  1.05615  0  0  0.099956  0  1.053292  0  0  0.101155  0.09388  0  1.058413  0
H  H20  1  0.34044032  0.10828947  0.41387268  1  0  0.088614  0  0.986324  0  0  0.096757  0  1.052066  0  0  0.098798  0  1.052276  0  0  0.097288  0.095254  0  1.052103  0
H  H21  1  0.65955747  0.89171538  0.58613277  1  0  0.088599  0  0.986206  0  0  0.096755  0  1.051954  0  0  0.098795  0  1.052168  0  0  0.097298  0.095247  0  1.051994  0
H  H22  1  0.69285927  0.70664439  0.92834714  1  0  0.394975  0  0.923935  0  0  0.362893  0  0.991474  0  0  0.374449  0  0.974354  0  0  0.27504  0.354693  0  1.00358  0
H  H23  1  0.30713438  0.29334616  0.07165305  1  0  0.394925  0  0.923996  0  0  0.362866  0  0.991501  0  0  0.374419  0  0.974378  0  0  0.275041  0.354674  0  1.003593  0
H  H24  1  0.75080888  0.85257680  0.04282160  1  0  0.418972  0  0.882663  0  0  0.393483  0  0.937151  0  0  0.403871  0  0.921862  0  0  0.28162  0.386104  0  0.947991  0
H  H25  1  0.24917549  0.14742107  0.95717716  1  0  0.418905  0  0.882761  0  0  0.393419  0  0.937232  0  0  0.403806  0  0.921944  0  0  0.2816  0.386045  0  0.948064  0
C  C26  1  0.43930455  0.30913645  0.27088398  1  0  0.663371  0  3.916945  0  0  0.603651  0  4.230764  0  0  0.638118  0  4.219838  0  0  0.212745  0.580219  0  4.237568  0
C  C27  1  0.56069811  0.69086609  0.72912355  1  0  0.663294  0  3.917204  0  0  0.603583  0  4.230975  0  0  0.638056  0  4.220034  0  0  0.212691  0.580139  0  4.237785  0
C  C28  1  0.64796952  0.38367936  0.46039413  1  0  -0.09535  0  3.70387  0  0  -0.126059  0  3.954788  0  0  -0.126891  0  3.973777  0  0  -0.079257  -0.125415  0  3.942053  0
C  C29  1  0.35201973  0.61631625  0.53960745  1  0  -0.095432  0  3.704105  0  0  -0.126196  0  3.955035  0  0  -0.127033  0  3.974032  0  0  -0.079339  -0.125558  0  3.942283  0
C  C30  1  0.31138791  0.52255269  0.43019603  1  0  -0.032299  0  3.728341  0  0  -0.023406  0  3.965139  0  0  -0.026578  0  3.985402  0  0  -0.009898  -0.021301  0  3.951512  0
C  C31  1  0.68859430  0.47744270  0.56980428  1  0  -0.032355  0  3.728564  0  0  -0.023499  0  3.965287  0  0  -0.026632  0  3.985583  0  0  -0.009903  -0.021388  0  3.951644  0
C  C32  1  0.09430169  0.53736296  0.35978240  1  0  0.394913  0  3.734528  0  0  0.375055  0  3.996036  0  0  0.397713  0  3.997493  0  0  0.165255  0.359575  0  3.994968  0
C  C33  1  0.90570904  0.46264638  0.64020884  1  0  0.39457  0  3.734767  0  0  0.374869  0  3.996046  0  0  0.397397  0  3.997723  0  0  0.165089  0.359391  0  3.994974  0
C  C34  1  0.04658201  0.71017105  0.36472469  1  0  -0.065911  0  3.813393  0  0  -0.04409  0  4.039222  0  0  -0.052303  0  4.064683  0  0  -0.02458  -0.038662  0  4.022008  0
C  C35  1  0.95342672  0.28984695  0.63528555  1  0  -0.065868  0  3.813381  0  0  -0.044015  0  4.039095  0  0  -0.052243  0  4.064668  0  0  -0.024498  -0.038592  0  4.021883  0
C  C36  1  0.82019481  0.72986062  0.31856961  1  0  -0.086079  0  3.722358  0  0  -0.107595  0  3.968477  0  0  -0.107441  0  3.988454  0  0  -0.081795  -0.107468  0  3.954903  0
C  C37  1  0.17980239  0.27014093  0.68142278  1  0  -0.085959  0  3.722472  0  0  -0.107524  0  3.968581  0  0  -0.107352  0  3.988569  0  0  -0.081809  -0.107396  0  3.955008  0
C  C38  1  0.23258762  0.84910362  0.40198835  1  0  -0.092572  0  3.747521  0  0  -0.111425  0  3.987246  0  0  -0.11229  0  4.009655  0  0  -0.083809  -0.110576  0  3.971987  0
C  C39  1  0.76741447  0.15089574  0.59800833  1  0  -0.092641  0  3.747588  0  0  -0.111523  0  3.987334  0  0  -0.11238  0  4.009749  0  0  -0.08384  -0.110671  0  3.972076  0
C  C40  1  0.78227354  0.88510071  0.30814318  1  0  -0.067166  0  3.730543  0  0  -0.076789  0  3.974957  0  0  -0.080423  0  3.995833  0  0  -0.082201  -0.074389  0  3.960836  0
C  C41  1  0.21775333  0.11491089  0.69185985  1  0  -0.067199  0  3.730211  0  0  -0.076851  0  3.974642  0  0  -0.080483  0  3.995514  0  0  -0.082227  -0.074449  0  3.960511  0
C  C42  1  0.97047904  0.02100190  0.34252819  1  0  -0.043141  0  3.710314  0  0  -0.060541  0  3.959706  0  0  -0.060853  0  3.979912  0  0  -0.077576  -0.060065  0  3.945948  0
C  C43  1  0.02951122  0.97899983  0.65746956  1  0  -0.043249  0  3.709991  0  0  -0.060648  0  3.95937  0  0  -0.060964  0  3.979565  0  0  -0.077602  -0.060138  0  3.945629  0
C  C44  1  0.19444014  0.00340466  0.38997393  1  0  -0.069406  0  3.757929  0  0  -0.080438  0  4.005581  0  0  -0.083692  0  4.027741  0  0  -0.089721  -0.078309  0  3.990545  0
C  C45  1  0.80557382  0.99661333  0.61003450  1  0  -0.069358  0  3.758254  0  0  -0.080398  0  4.005921  0  0  -0.083654  0  4.028088  0  0  -0.089749  -0.078267  0  3.990872  0
C  C46  1  0.46237050  0.40527926  0.38906007  1  0  -0.048835  0  3.675179  0  0  -0.034839  0  3.913981  0  0  -0.038228  0  3.931853  0  0  -0.002201  -0.0328  0  3.902113  0
C  C47  1  0.53763117  0.59472798  0.61094175  1  0  -0.048733  0  3.675337  0  0  -0.034698  0  3.91406  0  0  -0.038082  0  3.931919  0  0  -0.00211  -0.032652  0  3.902179  0
O  O48  1  0.47697189  0.15532041  0.24129407  1  0  -0.625597  0  1.939861  0  0  -0.571779  0  2.161229  0  0  -0.595646  0  2.150762  0  0  -0.314475  -0.554884  0  2.167904  0
O  O49  1  0.52303025  0.84467913  0.75870556  1  0  -0.625559  0  1.939937  0  0  -0.571745  0  2.161291  0  0  -0.595611  0  2.150819  0  0  -0.314458  -0.55485  0  2.16797  0
O  O50  1  0.39168313  0.39285772  0.20995665  1  0  -0.684053  0  2.042914  0  0  -0.616396  0  2.269662  0  0  -0.64282  0  2.257818  0  0  -0.31993  -0.597587  0  2.277043  0
O  O51  1  0.60834708  0.60714245  0.79004439  1  0  -0.684034  0  2.043073  0  0  -0.616371  0  2.269819  0  0  -0.64279  0  2.257964  0  0  -0.319899  -0.597564  0  2.277224  0
O  O52  1  0.95945189  0.40529951  0.29798044  1  0  -0.481617  0  1.99071  0  0  -0.442251  0  2.219612  0  0  -0.460476  0  2.21601  0  0  -0.256508  -0.429768  0  2.221957  0
O  O53  1  0.04056195  0.59469706  0.70200781  1  0  -0.48139  0  1.990789  0  0  -0.442144  0  2.219691  0  0  -0.46034  0  2.216203  0  0  -0.256447  -0.429658  0  2.222029  0
O  O54  1  0.19661057  0.62837139  0.14592413  1  0  -0.893145  0  1.795738  0  0  -0.849446  0  1.959657  0  0  -0.866635  0  1.933231  0  0  -0.708062  -0.837112  0  1.978133  0
O  O55  1  0.80338770  0.37161543  0.85407567  1  0  -0.893149  0  1.795596  0  0  -0.849453  0  1.959566  0  0  -0.866643  0  1.933137  0  0  -0.708028  -0.837124  0  1.978032  0
O  O56  1  0.77163206  0.08031737  0.10589250  1  0  -0.84406  0  1.781573  0  0  -0.789761  0  1.933698  0  0  -0.80824  0  1.906839  0  0  -0.613811  -0.776589  0  1.952479  0
O  O57  1  0.22836196  0.91967548  0.89410380  1  0  -0.844018  0  1.781595  0  0  -0.789725  0  1.933702  0  0  -0.808202  0  1.906842  0  0  -0.613779  -0.776553  0  1.952482  0
O  O58  1  0.73233677  0.72595247  0.00523627  1  0  -0.919765  0  1.732558  0  0  -0.872469  0  1.879175  0  0  -0.89148  0  1.84845  0  0  -0.676657  -0.858741  0  1.900685  0
O  O59  1  0.26763997  0.27404151  0.99476337  1  0  -0.919651  0  1.732729  0  0  -0.872366  0  1.879334  0  0  -0.891368  0  1.848629  0  0  -0.676627  -0.85865  0  1.900826  0
