# generated using pymatgen
data_Zn4H38C59O16
_symmetry_space_group_name_H-M   'P 1'
_cell_length_a   15.45161632
_cell_length_b   15.72912214
_cell_length_c   17.61582939
_cell_angle_alpha   70.90591478
_cell_angle_beta   89.24489656
_cell_angle_gamma   69.05306851
_symmetry_Int_Tables_number   1
_chemical_formula_structural   Zn4H38C59O16
_chemical_formula_sum   'Zn4 H38 C59 O16'
_cell_volume   3752.21977638
_cell_formula_units_Z   1
loop_
 _symmetry_equiv_pos_site_id
 _symmetry_equiv_pos_as_xyz
  1  'x, y, z'
loop_
 _atom_site_type_symbol
 _atom_site_label
 _atom_site_symmetry_multiplicity
 _atom_site_fract_x
 _atom_site_fract_y
 _atom_site_fract_z
 _atom_site_occupancy
 _atom_site_pbe_bader_charge
 _atom_site_pbe_bader_spin_density
 _atom_site_pbe_cm5_charge
 _atom_site_pbe_ddec_charge
 _atom_site_pbe_ddec_spin_density
 _atom_site_pbe_ddec_sum_bond_order
 _atom_site_pbe_magmom
Zn  Zn0  1  0.42999464  0.55996492  0.56936135  1  1.317197  0  0.682051  0.964929  0  2.413146  0
Zn  Zn1  1  0.54471479  0.58384082  0.42041991  1  1.316855  0  0.67364  0.970493  0  2.3226  0
Zn  Zn2  1  0.42662244  0.44748346  0.45503369  1  1.315154  0  0.679567  0.972982  0  2.33051  0
Zn  Zn3  1  0.61719102  0.37851835  0.56997074  1  1.314822  0  0.671332  0.976874  0  2.300784  0
H  H4  1  0.74501558  0.34571549  0.06727009  1  0.074209  0  0.105519  0.106517  0  0.990195  0
H  H5  1  0.29223822  0.84585072  0.48737553  1  0.116302  0  0.107707  0.116743  0  0.996158  0
H  H6  1  0.54414369  0.51024004  0.19642153  1  0.072474  0  0.108171  0.111831  0  1.006647  0
H  H7  1  0.27005089  0.15043787  0.49610082  1  0.05189  0  0.109046  0.124652  0  1.001826  0
H  H8  1  0.23736841  0.01209699  0.49575474  1  0.054536  0  0.103135  0.102779  0  0.994139  0
H  H9  1  0.57457048  0.83183053  0.48926641  1  0.0758  0  0.105157  0.108532  0  1.014041  0
H  H10  1  0.71564461  0.11467780  0.55971822  1  0.081182  0  0.107157  0.110884  0  0.994102  0
H  H11  1  0.65964618  0.87401987  0.54056648  1  0.046126  0  0.104984  0.103929  0  1.006832  0
H  H12  1  0.77177572  0.94192981  0.56847886  1  0.045967  0  0.104773  0.101752  0  0.989061  0
H  H13  1  0.26172270  0.69543551  0.19652083  1  0.060769  0  0.10996  0.113176  0  0.982171  0
H  H14  1  0.29272265  0.73200820  0.91846876  1  0.094711  0  0.110994  0.114114  0  0.993952  0
H  H15  1  0.23278987  0.73876087  0.04717947  1  0.070764  0  0.107771  0.107754  0  0.987293  0
H  H16  1  0.78365557  0.30321585  0.94525233  1  0.065558  0  0.104262  0.104645  0  0.991398  0
H  H17  1  0.73771664  0.32202648  0.80340246  1  0.069514  0  0.109537  0.115401  0  0.98926  0
H  H18  1  0.47373137  0.53899148  0.80068560  1  0.104121  0  0.108308  0.112863  0  1.035628  0
H  H19  1  0.63272536  0.43464530  0.13971611  1  0.048412  0  0.104933  0.105059  0  1.009274  0
H  H20  1  0.19292037  0.62398707  0.76348047  1  0.070714  0  0.106341  0.077519  0  0.959927  0
H  H21  1  0.08219731  0.66137268  0.70758910  1  0.009963  0  0.092118  0.045545  0  1.000511  0
H  H22  1  0.25337286  0.70238520  0.64100714  1  0.055628  0  0.09357  0.0984  0  0.978568  0
H  H23  1  0.15064522  0.73023141  0.57980959  1  0.023298  0  0.086783  0.080623  0  0.983203  0
H  H24  1  0.05741454  0.84248266  0.65205157  1  -0.0072  0  0.07636  0.095485  0  1.019117  0
H  H25  1  0.15169860  0.87527497  0.61182225  1  0.000799  0  0.084935  0.114355  0  1.006322  0
H  H26  1  0.80264937  0.46975318  0.32084880  1  0.094069  0  0.105347  0.110896  0  0.993138  0
H  H27  1  0.16069532  0.81092436  0.71633658  1  0.041914  0  0.084084  0.117761  0  1.021482  0
H  H28  1  0.27684585  0.38691140  0.43383807  1  0.069832  0  0.101069  0.078892  0  1.048988  0
H  H29  1  0.23285385  0.29638333  0.43939853  1  0.04505  0  0.094256  0.05592  0  0.990651  0
H  H30  1  0.39273706  0.32544060  0.34209380  1  0.045243  0  0.09194  0.0969  0  0.987414  0
H  H31  1  0.34027389  0.24210019  0.34256713  1  0.017733  0  0.087155  0.079757  0  0.988735  0
H  H32  1  0.18543153  0.38447588  0.28169611  1  0.008215  0  0.080505  0.101675  0  1.015315  0
H  H33  1  0.27547544  0.38772273  0.21848459  1  0.029143  0  0.087409  0.1159  0  0.997971  0
H  H34  1  0.24394124  0.46507474  0.27662939  1  0.025745  0  0.082067  0.109765  0  1.021669  0
H  H35  1  0.47388243  0.67846664  0.79126676  1  0.067153  0  0.103569  0.040508  0  0.966147  0
H  H36  1  0.08162648  0.53510001  0.30804763  1  0.056485  0  0.102261  0.100532  0  1.011233  0
H  H37  1  0.94773793  0.49890162  0.27926785  1  0.046507  0  0.102303  0.102161  0  0.993807  0
H  H38  1  0.86949782  0.45606157  0.56106782  1  0.097096  0  0.104721  0.108266  0  1.013813  0
H  H39  1  0.93320913  0.50772508  0.62495322  1  0.058533  0  0.104983  0.103964  0  1.002053  0
H  H40  1  0.03102250  0.54038353  0.71222672  1  0.064967  0  0.108876  0.12064  0  0.990385  0
H  H41  1  0.18739225  0.54705641  0.40279653  1  0.066233  0  0.104062  0.109343  0  1.017957  0
C  C42  1  0.73964465  0.44979257  0.46558526  1  1.573496  0  0.223922  0.606427  0  4.162446  0
C  C43  1  0.42282240  0.62941976  0.90900556  1  -0.054697  0  -0.022431  -0.036994  0  4.005033  0
C  C44  1  0.35608832  0.67169217  0.95208789  1  -0.036373  0  -0.067601  -0.128013  0  3.933649  0
C  C45  1  0.26666684  0.52135357  0.54350941  1  1.566147  0  0.231349  0.62707  0  4.139618  0
C  C46  1  0.37052088  0.64380475  0.03735520  1  -0.00361  0  -0.006302  0.071313  0  4.027611  0
C  C47  1  0.45961145  0.57504496  0.07930022  1  -0.046956  0  0.004071  0.047131  0  3.943081  0
C  C48  1  0.30013604  0.68675693  0.08057167  1  -0.060865  0  -0.081495  -0.117144  0  3.989924  0
C  C49  1  0.31620437  0.66359711  0.16295295  1  -0.006868  0  -0.08583  -0.112021  0  4.006394  0
C  C50  1  0.47598388  0.55793081  0.16261844  1  -0.010867  0  -0.080288  -0.149339  0  3.93238  0
C  C51  1  0.92964805  0.49093067  0.34068103  1  -0.070612  0  -0.090993  -0.134  0  4.011491  0
C  C52  1  0.82971869  0.46049588  0.44406784  1  -0.015553  0  -0.019929  -0.030535  0  4.001814  0
C  C53  1  0.69168212  0.36704936  0.83437859  1  -0.03842  0  -0.082881  -0.089957  0  3.992408  0
C  C54  1  0.13887053  0.54038001  0.63329376  1  0.50119  0  0.095146  0.259018  0  4.039896  0
C  C55  1  0.05231897  0.53389941  0.65447232  1  -0.010399  0  -0.101866  -0.205631  0  4.034121  0
C  C56  1  0.99818170  0.51503873  0.60540017  1  -0.028493  0  -0.083377  -0.095104  0  4.018578  0
C  C57  1  0.46261079  0.73596572  0.47574687  1  1.508383  0  0.217214  0.594148  0  4.167116  0
C  C58  1  0.02423338  0.50750363  0.52991822  1  -0.06066  0  -0.00758  0.015819  0  3.962461  0
C  C59  1  0.10891814  0.51955747  0.50567431  1  0.002892  0  0.002359  0.082578  0  3.959218  0
C  C60  1  0.96611056  0.49147768  0.47609825  1  0.059017  0  -0.002439  0.037425  0  3.951463  0
C  C61  1  0.98815582  0.50121940  0.39543289  1  0.022559  0  -0.008663  0.073759  0  4.028537  0
C  C62  1  0.06794107  0.52371421  0.37077352  1  -0.066757  0  -0.091377  -0.135396  0  4.028313  0
C  C63  1  0.12686894  0.53037791  0.42367287  1  -0.001093  0  -0.089848  -0.126723  0  4.008713  0
C  C64  1  0.54302028  0.49254443  0.83250794  1  -0.073511  0  -0.07674  -0.133813  0  3.943469  0
C  C65  1  0.88755554  0.46755002  0.49947837  1  -0.082411  0  -0.081063  -0.142607  0  3.939234  0
C  C66  1  0.85024335  0.47361359  0.36353558  1  -0.053624  0  -0.089447  -0.102131  0  4.013615  0
C  C67  1  0.16966146  0.52883341  0.56066979  1  0.035367  0  -0.022101  -0.193535  0  3.883872  0
C  C68  1  0.31135870  0.97153603  0.49580428  1  -0.095327  0  -0.092068  -0.136529  0  4.005142  0
C  C69  1  0.55466050  0.24845391  0.51783356  1  1.561772  0  0.229736  0.615488  0  4.136017  0
C  C70  1  0.43672723  0.83154608  0.48591463  1  -0.039585  0  -0.025744  -0.048466  0  4.011666  0
C  C71  1  0.66642001  0.08433964  0.54735341  1  0.032854  0  -0.084479  -0.095479  0  3.994772  0
C  C72  1  0.69784878  0.98742696  0.55202576  1  -0.104052  0  -0.094816  -0.086912  0  4.070522  0
C  C73  1  0.63474020  0.94978004  0.53612729  1  0.004843  0  -0.085449  -0.12138  0  3.999563  0
C  C74  1  0.53831356  0.00616166  0.51734156  1  -0.017313  0  0.001164  0.047919  0  3.942842  0
C  C75  1  0.56823763  0.48779203  0.91086774  1  0.051425  0  -0.003837  0.030689  0  3.958045  0
C  C76  1  0.50508738  0.10563738  0.51392614  1  0.036452  0  0.000696  -0.029265  0  3.876566  0
C  C77  1  0.47366586  0.96258593  0.50396259  1  -0.051052  0  -0.008181  0.013927  0  3.956802  0
C  C78  1  0.37620180  0.01479458  0.50085631  1  -0.007379  0  -0.005389  0.104338  0  4.063933  0
C  C79  1  0.34493464  0.11093939  0.50055851  1  0.023976  0  -0.107102  -0.274535  0  4.022081  0
C  C80  1  0.40477850  0.15722053  0.50209272  1  0.514833  0  0.091673  0.229822  0  4.063933  0
C  C81  1  0.42630272  0.57780881  0.29254303  1  1.562326  0  0.234874  0.618302  0  4.152661  0
C  C82  1  0.50170977  0.87199958  0.49291270  1  0.001562  0  -0.076858  -0.128285  0  3.93835  0
C  C83  1  0.34101274  0.88064439  0.49032549  1  0.035176  0  -0.085153  -0.091088  0  4.003488  0
C  C84  1  0.57240419  0.14468468  0.52662491  1  -0.020604  0  -0.008602  -0.052264  0  3.878551  0
C  C85  1  0.57211725  0.44531843  0.71064811  1  1.545499  0  0.227841  0.607512  0  4.162223  0
C  C86  1  0.65610673  0.41561073  0.95273797  1  -0.078715  0  -0.00343  0.08433  0  4.008903  0
C  C87  1  0.60320184  0.43486950  0.79413372  1  0.035273  0  -0.01972  -0.038057  0  3.995254  0
C  C88  1  0.40576556  0.60041084  0.20367609  1  0.049014  0  -0.006457  -0.0043  0  3.976374  0
C  C89  1  0.71676137  0.35746234  0.91250713  1  -0.006011  0  -0.088548  -0.135192  0  3.991623  0
C  C90  1  0.15793039  0.64056505  0.70360884  1  0.401572  0  -0.061315  0.045663  0  3.869477  0
C  C91  1  0.17755005  0.72237947  0.64031523  1  -0.005051  0  -0.172909  -0.136344  0  3.972743  0
C  C92  1  0.13400103  0.81797632  0.65619005  1  -0.029367  0  -0.247062  -0.354255  0  3.985506  0
C  C93  1  0.29520057  0.31530887  0.42877252  1  0.398389  0  -0.072892  0.024559  0  3.859351  0
C  C94  1  0.32634345  0.31412170  0.34656692  1  -0.000269  0  -0.17439  -0.142035  0  3.97251  0
C  C95  1  0.25354796  0.39218803  0.27707300  1  -0.068793  0  -0.24456  -0.347035  0  3.977078  0
C  C96  1  0.40876505  0.68184423  0.82028153  1  0.947805  0  0.095524  0.265761  0  3.999484  0
C  C97  1  0.50675132  0.54837643  0.95112029  1  -0.038481  0  0.003595  0.003905  0  3.927724  0
C  C98  1  0.52771254  0.52546378  0.03536477  1  0.028116  0  -0.002166  0.0305  0  3.965068  0
C  C99  1  0.61531144  0.45167882  0.07541904  1  -0.04363  0  -0.087299  -0.121354  0  4.015077  0
C  C100  1  0.67822263  0.40097799  0.03535129  1  -0.039019  0  -0.08964  -0.133425  0  4.019472  0
O  O101  1  0.50818353  0.48942114  0.50501067  1  -1.233225  0  -0.577957  -1.035861  0  2.551551  0
O  O102  1  0.48405150  0.60954967  0.31268474  1  -1.154456  0  -0.307017  -0.533183  0  2.305053  0
O  O103  1  0.62247220  0.38260225  0.68125721  1  -1.168627  0  -0.311874  -0.541075  0  2.316098  0
O  O104  1  0.38433865  0.52842655  0.33929688  1  -1.173407  0  -0.311537  -0.545872  0  2.294605  0
O  O105  1  0.49679890  0.51788345  0.67571650  1  -1.177399  0  -0.318629  -0.550195  0  2.349327  0
O  O106  1  0.19397492  0.54991539  0.68770919  1  -1.061061  0  -0.203684  -0.235473  0  2.496415  0
O  O107  1  0.36967032  0.25265252  0.49442894  1  -1.082757  0  -0.193056  -0.214885  0  2.538177  0
O  O108  1  0.33218650  0.73185818  0.78040671  1  -1.094457  0  -0.263425  -0.361242  0  2.141763  0
O  O109  1  0.40420865  0.69418617  0.49637850  1  -1.191551  0  -0.328438  -0.572954  0  2.369174  0
O  O110  1  0.59850757  0.25929823  0.57319072  1  -1.164328  0  -0.317188  -0.555084  0  2.298726  0
O  O111  1  0.67124596  0.49951210  0.40958375  1  -1.200073  0  -0.326454  -0.564351  0  2.325321  0
O  O112  1  0.30990100  0.46282731  0.50686880  1  -1.176226  0  -0.309718  -0.556753  0  2.376521  0
O  O113  1  0.73565256  0.39474842  0.53634944  1  -1.164633  0  -0.316474  -0.546633  0  2.271557  0
O  O114  1  0.30095860  0.57120074  0.56823965  1  -1.151547  0  -0.299653  -0.524894  0  2.421083  0
O  O115  1  0.53796219  0.70013231  0.44593951  1  -1.149215  0  -0.320067  -0.544045  0  2.233208  0
O  O116  1  0.50516619  0.31695092  0.45492070  1  -1.17404  0  -0.316395  -0.556478  0  2.366555  0
