# generated using pymatgen
data_CdH12C18(NO2)2
_symmetry_space_group_name_H-M   'P 1'
_cell_length_a   8.61547645
_cell_length_b   13.10725289
_cell_length_c   14.86878260
_cell_angle_alpha   90.00032020
_cell_angle_beta   95.89832618
_cell_angle_gamma   89.99963425
_symmetry_Int_Tables_number   1
_chemical_formula_structural   CdH12C18(NO2)2
_chemical_formula_sum   'Cd4 H48 C72 N8 O16'
_cell_volume   1670.17142373
_cell_formula_units_Z   4
loop_
 _symmetry_equiv_pos_site_id
 _symmetry_equiv_pos_as_xyz
  1  'x, y, z'
loop_
 _atom_site_type_symbol
 _atom_site_label
 _atom_site_symmetry_multiplicity
 _atom_site_fract_x
 _atom_site_fract_y
 _atom_site_fract_z
 _atom_site_occupancy
 _atom_site_hle17_bader_spin_density
 _atom_site_hle17_ddec_charge
 _atom_site_hle17_ddec_spin_density
 _atom_site_hle17_ddec_sum_bond_order
 _atom_site_hle17_magmom
 _atom_site_hse06_10hf_bader_spin_density
 _atom_site_hse06_10hf_ddec_charge
 _atom_site_hse06_10hf_ddec_spin_density
 _atom_site_hse06_10hf_ddec_sum_bond_order
 _atom_site_hse06_10hf_magmom
 _atom_site_hse06_bader_spin_density
 _atom_site_hse06_ddec_charge
 _atom_site_hse06_ddec_spin_density
 _atom_site_hse06_ddec_sum_bond_order
 _atom_site_hse06_magmom
 _atom_site_pbe_bader_spin_density
 _atom_site_pbe_cm5_charge
 _atom_site_pbe_ddec_charge
 _atom_site_pbe_ddec_spin_density
 _atom_site_pbe_ddec_sum_bond_order
 _atom_site_pbe_magmom
Cd  Cd0  1  0.72790770  0.82276881  0.21207914  1  0  1.062607  0  1.68501  0  0  0.86279  0  2.126052  0  0  0.923092  0  2.075002  0  0  0.77053  0.820297  0  2.160651  0
Cd  Cd1  1  0.27209242  0.32277126  0.28792161  1  0  1.062582  0  1.685029  0  0  0.862791  0  2.126053  0  0  0.923091  0  2.075002  0  0  0.770548  0.820307  0  2.160649  0
Cd  Cd2  1  0.27209286  0.17723282  0.78792058  1  0  1.062614  0  1.684968  0  0  0.862824  0  2.125978  0  0  0.923125  0  2.074927  0  0  0.770525  0.820329  0  2.16058  0
Cd  Cd3  1  0.72790581  0.67722960  0.71207998  1  0  1.062605  0  1.684999  0  0  0.862777  0  2.126071  0  0  0.92308  0  2.075018  0  0  0.770548  0.820289  0  2.160667  0
H  H4  1  0.55412994  0.79322437  0.90260853  1  0  0.111694  0  0.98554  0  0  0.116568  0  1.055689  0  0  0.120494  0  1.052688  0  0  0.101457  0.113696  0  1.057967  0
H  H5  1  0.44587120  0.29322412  0.59739073  1  0  0.111682  0  0.985548  0  0  0.116542  0  1.055712  0  0  0.120467  0  1.052712  0  0  0.101445  0.11367  0  1.057989  0
H  H6  1  0.44587062  0.20677878  0.09739320  1  0  0.111678  0  0.985522  0  0  0.116561  0  1.055669  0  0  0.120485  0  1.052673  0  0  0.101449  0.113689  0  1.057947  0
H  H7  1  0.55412937  0.70677827  0.40260831  1  0  0.111701  0  0.985545  0  0  0.116578  0  1.055692  0  0  0.120503  0  1.052693  0  0  0.101453  0.113705  0  1.057969  0
H  H8  1  0.35816238  0.74522118  0.77425848  1  0  0.107745  0  0.95827  0  0  0.117667  0  1.01795  0  0  0.121054  0  1.016333  0  0  0.101904  0.115218  0  1.019249  0
H  H9  1  0.64184036  0.24522397  0.72574064  1  0  0.107821  0  0.958215  0  0  0.117705  0  1.017935  0  0  0.121092  0  1.016319  0  0  0.101906  0.115255  0  1.019232  0
H  H10  1  0.64184052  0.25477968  0.22574272  1  0  0.107747  0  0.958294  0  0  0.117628  0  1.018022  0  0  0.121014  0  1.016407  0  0  0.10189  0.115181  0  1.019321  0
H  H11  1  0.35816254  0.75477994  0.27425720  1  0  0.107709  0  0.958279  0  0  0.117631  0  1.01796  0  0  0.121018  0  1.016344  0  0  0.101892  0.115181  0  1.019257  0
H  H12  1  0.07463894  0.76928789  0.79008367  1  0  0.084409  0  0.986999  0  0  0.091423  0  1.055035  0  0  0.093612  0  1.054765  0  0  0.094581  0.089874  0  1.05522  0
H  H13  1  0.92536241  0.26929092  0.70991616  1  0  0.084448  0  0.986977  0  0  0.091433  0  1.055048  0  0  0.093622  0  1.054777  0  0  0.094574  0.089875  0  1.055241  0
H  H14  1  0.92536162  0.23071145  0.20991807  1  0  0.084385  0  0.987009  0  0  0.091407  0  1.055051  0  0  0.093596  0  1.054781  0  0  0.094582  0.089859  0  1.055236  0
H  H15  1  0.07464048  0.73071147  0.29008033  1  0  0.084381  0  0.987042  0  0  0.091408  0  1.055075  0  0  0.093597  0  1.054804  0  0  0.094582  0.089854  0  1.055263  0
H  H16  1  0.99080886  0.83770579  0.93270690  1  0  0.093375  0  0.969523  0  0  0.101994  0  1.035788  0  0  0.104784  0  1.035155  0  0  0.099483  0.100009  0  1.03629  0
H  H17  1  0.00919188  0.33770642  0.56729188  1  0  0.093387  0  0.969502  0  0  0.102018  0  1.035757  0  0  0.10481  0  1.035125  0  0  0.099482  0.100034  0  1.036261  0
H  H18  1  0.00919404  0.16229584  0.06729430  1  0  0.09337  0  0.969514  0  0  0.101988  0  1.035785  0  0  0.104779  0  1.035151  0  0  0.099472  0.100003  0  1.036289  0
H  H19  1  0.99080751  0.66229444  0.43270373  1  0  0.093389  0  0.969439  0  0  0.102016  0  1.035701  0  0  0.10481  0  1.035067  0  0  0.099481  0.100032  0  1.036203  0
H  H20  1  0.98698926  0.77581142  0.08743317  1  0  0.092075  0  0.9294  0  0  0.101719  0  0.991278  0  0  0.104833  0  0.988099  0  0  0.121446  0.099435  0  0.99358  0
H  H21  1  0.01301244  0.27581270  0.41256879  1  0  0.09219  0  0.92933  0  0  0.101788  0  0.99125  0  0  0.104903  0  0.988069  0  0  0.121427  0.099507  0  0.993554  0
H  H22  1  0.01301013  0.22418944  0.91256782  1  0  0.092114  0  0.929352  0  0  0.10174  0  0.991245  0  0  0.104854  0  0.988063  0  0  0.121436  0.099456  0  0.993547  0
H  H23  1  0.98698696  0.72419197  0.58742817  1  0  0.092104  0  0.929279  0  0  0.101759  0  0.99115  0  0  0.104873  0  0.987968  0  0  0.121426  0.099475  0  0.993453  0
H  H24  1  0.97609099  0.99401646  0.28867252  1  0  0.083197  0  0.952245  0  0  0.087898  0  1.021994  0  0  0.090965  0  1.01954  0  0  0.115521  0.085688  0  1.02375  0
H  H25  1  0.02390527  0.49401261  0.21132615  1  0  0.083248  0  0.952182  0  0  0.087958  0  1.021922  0  0  0.091027  0  1.019466  0  0  0.115548  0.085754  0  1.023669  0
H  H26  1  0.02391190  0.00598363  0.71132936  1  0  0.083165  0  0.952197  0  0  0.087874  0  1.021952  0  0  0.090942  0  1.019497  0  0  0.115514  0.085663  0  1.023711  0
H  H27  1  0.97609530  0.50599131  0.78867020  1  0  0.083135  0  0.952222  0  0  0.087875  0  1.021933  0  0  0.090943  0  1.019478  0  0  0.115486  0.08567  0  1.023679  0
H  H28  1  0.31033735  0.02840148  0.09464409  1  0  0.122046  0  0.93203  0  0  0.129035  0  0.998887  0  0  0.132713  0  0.995173  0  0  0.114941  0.126304  0  1.001594  0
H  H29  1  0.68965489  0.52839737  0.40535609  1  0  0.122052  0  0.932099  0  0  0.129055  0  0.998947  0  0  0.132733  0  0.995232  0  0  0.114952  0.126322  0  1.001656  0
H  H30  1  0.68965971  0.97160014  0.90535609  1  0  0.122049  0  0.932019  0  0  0.129037  0  0.998889  0  0  0.132715  0  0.995173  0  0  0.114943  0.126306  0  1.001597  0
H  H31  1  0.31034217  0.47160426  0.59464140  1  0  0.12205  0  0.932088  0  0  0.129073  0  0.998909  0  0  0.13275  0  0.995194  0  0  0.114958  0.12634  0  1.001619  0
H  H32  1  0.58489643  0.04053210  0.25298633  1  0  0.079212  0  0.937281  0  0  0.088858  0  0.998841  0  0  0.09071  0  0.998014  0  0  0.116092  0.087468  0  0.999486  0
H  H33  1  0.41510621  0.54053347  0.24701722  1  0  0.079173  0  0.937229  0  0  0.088833  0  0.998776  0  0  0.090664  0  0.99798  0  0  0.11605  0.087443  0  0.999422  0
H  H34  1  0.41511230  0.95946495  0.74701724  1  0  0.079216  0  0.937156  0  0  0.088888  0  0.998697  0  0  0.090713  0  0.997906  0  0  0.116076  0.087497  0  0.999342  0
H  H35  1  0.58489436  0.45946815  0.75298250  1  0  0.079174  0  0.93724  0  0  0.088839  0  0.99878  0  0  0.090665  0  0.997991  0  0  0.116051  0.087448  0  0.999427  0
H  H36  1  0.57364464  0.16550608  0.37849735  1  0  0.1122  0  0.98664  0  0  0.118805  0  1.050373  0  0  0.122077  0  1.049617  0  0  0.105071  0.116438  0  1.051087  0
H  H37  1  0.42635454  0.66550736  0.12150593  1  0  0.112176  0  0.986678  0  0  0.118813  0  1.05037  0  0  0.122085  0  1.049613  0  0  0.105083  0.116444  0  1.051081  0
H  H38  1  0.42635942  0.83449021  0.62150661  1  0  0.112138  0  0.9868  0  0  0.11875  0  1.050526  0  0  0.122021  0  1.049777  0  0  0.105051  0.116382  0  1.051237  0
H  H39  1  0.57364486  0.33449350  0.87849305  1  0  0.112169  0  0.986774  0  0  0.118806  0  1.050459  0  0  0.122077  0  1.049706  0  0  0.105077  0.116438  0  1.05117  0
H  H40  1  0.68881222  0.11602686  0.53506648  1  0  0.090556  0  0.959392  0  0  0.10118  0  1.019603  0  0  0.102675  0  1.020315  0  0  0.104194  0.100069  0  1.019113  0
H  H41  1  0.31118816  0.61602852  0.96493725  1  0  0.090611  0  0.959401  0  0  0.101209  0  1.019637  0  0  0.1027  0  1.020352  0  0  0.104211  0.100098  0  1.019144  0
H  H42  1  0.31119300  0.88396485  0.46493890  1  0  0.090532  0  0.959518  0  0  0.101122  0  1.019756  0  0  0.102617  0  1.020468  0  0  0.104149  0.100009  0  1.019263  0
H  H43  1  0.68880890  0.38396776  0.03506159  1  0  0.090578  0  0.959392  0  0  0.101184  0  1.019613  0  0  0.102671  0  1.020337  0  0  0.104179  0.100072  0  1.019121  0
H  H44  1  0.81026386  0.94132547  0.55814462  1  0  0.123536  0  0.982793  0  0  0.130098  0  1.044548  0  0  0.134373  0  1.042028  0  0  0.104694  0.127033  0  1.046428  0
H  H45  1  0.18973478  0.44132848  0.94185724  1  0  0.12353  0  0.982889  0  0  0.130151  0  1.044565  0  0  0.134427  0  1.042042  0  0  0.104693  0.127081  0  1.046444  0
H  H46  1  0.18974020  0.05866471  0.44185733  1  0  0.123509  0  0.982948  0  0  0.13008  0  1.044703  0  0  0.134358  0  1.042181  0  0  0.10463  0.127011  0  1.046583  0
H  H47  1  0.81026111  0.55866856  0.05814421  1  0  0.12352  0  0.982888  0  0  0.130133  0  1.044583  0  0  0.134409  0  1.042062  0  0  0.104674  0.127063  0  1.04646  0
H  H48  1  0.81619506  0.82708446  0.42349953  1  0  0.081575  0  0.937516  0  0  0.090737  0  1.000495  0  0  0.093091  0  0.998583  0  0  0.117094  0.088987  0  1.001937  0
H  H49  1  0.18380735  0.32708747  0.07650272  1  0  0.081472  0  0.937481  0  0  0.090639  0  1.000486  0  0  0.092995  0  0.998569  0  0  0.117052  0.088891  0  1.001924  0
H  H50  1  0.18380550  0.17290648  0.57650086  1  0  0.08148  0  0.937458  0  0  0.09063  0  1.00048  0  0  0.092987  0  0.998561  0  0  0.117042  0.088882  0  1.001923  0
H  H51  1  0.81619437  0.67291034  0.92350043  1  0  0.081499  0  0.937542  0  0  0.090664  0  1.000537  0  0  0.093021  0  0.998618  0  0  0.117057  0.088915  0  1.00198  0
C  C52  1  0.50969054  0.84804641  0.06761218  1  0  0.626634  0  3.932232  0  0  0.580407  0  4.218475  0  0  0.614906  0  4.213025  0  0  0.192363  0.557052  0  4.221242  0
C  C53  1  0.49031168  0.34804505  0.43238680  1  0  0.626613  0  3.932352  0  0  0.580378  0  4.218576  0  0  0.614878  0  4.213126  0  0  0.192396  0.557025  0  4.221345  0
C  C54  1  0.49031002  0.15195597  0.93239023  1  0  0.62654  0  3.932347  0  0  0.580298  0  4.218596  0  0  0.614797  0  4.213146  0  0  0.192358  0.556943  0  4.221362  0
C  C55  1  0.50969005  0.65195657  0.56761097  1  0  0.626552  0  3.932326  0  0  0.580366  0  4.218526  0  0  0.614865  0  4.213076  0  0  0.19238  0.557013  0  4.221293  0
C  C56  1  0.38400017  0.83847552  0.99038828  1  0  -0.09209  0  3.707005  0  0  -0.072686  0  3.936492  0  0  -0.081407  0  3.959079  0  0  -0.013092  -0.067102  0  3.921323  0
C  C57  1  0.61600057  0.33847247  0.50961118  1  0  -0.092214  0  3.707264  0  0  -0.072802  0  3.93668  0  0  -0.081527  0  3.95927  0  0  -0.0131  -0.067217  0  3.921513  0
C  C58  1  0.61600039  0.16152686  0.00961413  1  0  -0.092071  0  3.707049  0  0  -0.072605  0  3.936462  0  0  -0.081325  0  3.959048  0  0  -0.01303  -0.067022  0  3.921292  0
C  C59  1  0.38400233  0.66152839  0.49038666  1  0  -0.092022  0  3.706997  0  0  -0.072666  0  3.936576  0  0  -0.081386  0  3.959162  0  0  -0.013077  -0.067084  0  3.92141  0
C  C60  1  0.43000006  0.80208920  0.90848422  1  0  -0.08045  0  3.73264  0  0  -0.105241  0  3.983733  0  0  -0.104968  0  4.002979  0  0  -0.088338  -0.105212  0  3.97071  0
C  C61  1  0.56999983  0.30208992  0.59151568  1  0  -0.080382  0  3.732635  0  0  -0.105178  0  3.983731  0  0  -0.104905  0  4.002979  0  0  -0.088315  -0.105148  0  3.970704  0
C  C62  1  0.57000167  0.19791318  0.09151758  1  0  -0.080486  0  3.732817  0  0  -0.105318  0  3.98392  0  0  -0.105047  0  4.003168  0  0  -0.088394  -0.10529  0  3.970899  0
C  C63  1  0.42999956  0.69791323  0.40848262  1  0  -0.080527  0  3.732731  0  0  -0.105307  0  3.983854  0  0  -0.105035  0  4.003099  0  0  -0.088352  -0.105279  0  3.97083  0
C  C64  1  0.32022738  0.77604561  0.83658687  1  0  -0.079996  0  3.759547  0  0  -0.091797  0  4.009676  0  0  -0.094893  0  4.029842  0  0  -0.092854  -0.089741  0  3.995929  0
C  C65  1  0.67977741  0.27604556  0.66341252  1  0  -0.080087  0  3.759575  0  0  -0.091869  0  4.009733  0  0  -0.094966  0  4.029899  0  0  -0.092888  -0.089812  0  3.995981  0
C  C66  1  0.67977435  0.22395449  0.16341426  1  0  -0.079931  0  3.759718  0  0  -0.091697  0  4.009844  0  0  -0.094794  0  4.030013  0  0  -0.092828  -0.089643  0  3.9961  0
C  C67  1  0.32022665  0.72395378  0.33658471  1  0  -0.079904  0  3.7596  0  0  -0.091701  0  4.009718  0  0  -0.094796  0  4.029884  0  0  -0.092853  -0.089645  0  3.995966  0
C  C68  1  0.16170838  0.78826898  0.84594236  1  0  -0.060141  0  3.779338  0  0  -0.076049  0  4.032146  0  0  -0.076413  0  4.053807  0  0  -0.093858  -0.075558  0  4.017215  0
C  C69  1  0.83829397  0.28827049  0.65405561  1  0  -0.060146  0  3.779318  0  0  -0.076034  0  4.032129  0  0  -0.076399  0  4.053792  0  0  -0.093847  -0.075537  0  4.017198  0
C  C70  1  0.83829218  0.21173036  0.15405870  1  0  -0.060159  0  3.779357  0  0  -0.076084  0  4.03216  0  0  -0.07645  0  4.053823  0  0  -0.09386  -0.075594  0  4.017229  0
C  C71  1  0.16170893  0.71172961  0.34594022  1  0  -0.060214  0  3.779444  0  0  -0.076149  0  4.032249  0  0  -0.076514  0  4.053911  0  0  -0.093906  -0.075655  0  4.017314  0
C  C72  1  0.11462432  0.82611784  0.92654340  1  0  -0.132885  0  3.756695  0  0  -0.15189  0  4.005291  0  0  -0.15714  0  4.02869  0  0  -0.094836  -0.148346  0  3.989335  0
C  C73  1  0.88537652  0.32611864  0.57345466  1  0  -0.132918  0  3.756603  0  0  -0.151966  0  4.005162  0  0  -0.157223  0  4.028564  0  0  -0.094807  -0.148418  0  3.989202  0
C  C74  1  0.88537624  0.17388226  0.07345766  1  0  -0.132905  0  3.756608  0  0  -0.151918  0  4.005227  0  0  -0.157169  0  4.028628  0  0  -0.094858  -0.148374  0  3.989269  0
C  C75  1  0.11462521  0.67388222  0.42654109  1  0  -0.132933  0  3.756588  0  0  -0.151926  0  4.005218  0  0  -0.157182  0  4.028618  0  0  -0.09485  -0.148381  0  3.989258  0
C  C76  1  0.22361986  0.85172504  0.99977702  1  0  0.048806  0  3.750468  0  0  0.056483  0  3.97848  0  0  0.058482  0  4.003301  0  0  -0.000647  0.055334  0  3.961747  0
C  C77  1  0.77637842  0.35172431  0.50022169  1  0  0.048946  0  3.75052  0  0  0.0567  0  3.978369  0  0  0.058704  0  4.003188  0  0  -0.000608  0.055547  0  3.96164  0
C  C78  1  0.77638070  0.14827582  0.00022337  1  0  0.048884  0  3.750458  0  0  0.05655  0  3.978425  0  0  0.05855  0  4.003246  0  0  -0.000608  0.055403  0  3.961689  0
C  C79  1  0.22362098  0.64827655  0.49977527  1  0  0.049033  0  3.750382  0  0  0.056627  0  3.978459  0  0  0.058627  0  4.00328  0  0  -0.000556  0.055476  0  3.96173  0
C  C80  1  0.16386070  0.89344648  0.08202421  1  0  0.029525  0  3.745967  0  0  0.046929  0  3.984694  0  0  0.042294  0  4.00671  0  0  0.008567  0.049466  0  3.970047  0
C  C81  1  0.83613529  0.39344205  0.41797395  1  0  0.029625  0  3.746004  0  0  0.047064  0  3.984606  0  0  0.042427  0  4.006624  0  0  0.008598  0.049603  0  3.96996  0
C  C82  1  0.83613870  0.10655591  0.91797611  1  0  0.029521  0  3.746066  0  0  0.046966  0  3.984712  0  0  0.04233  0  4.00673  0  0  0.008563  0.049504  0  3.970064  0
C  C83  1  0.16386294  0.60655958  0.58202293  1  0  0.029366  0  3.746211  0  0  0.046898  0  3.984776  0  0  0.042262  0  4.006791  0  0  0.008522  0.049436  0  3.970131  0
C  C84  1  0.03802948  0.84573281  0.11719312  1  0  0.102679  0  3.63979  0  0  0.063558  0  3.886351  0  0  0.071784  0  3.902539  0  0  0.056634  0.058349  0  3.875299  0
C  C85  1  0.96196810  0.34572839  0.38280557  1  0  0.102393  0  3.639884  0  0  0.06331  0  3.886421  0  0  0.071538  0  3.902605  0  0  0.056681  0.058101  0  3.875374  0
C  C86  1  0.96196991  0.15426881  0.88280720  1  0  0.102565  0  3.639813  0  0  0.06347  0  3.886346  0  0  0.071697  0  3.902533  0  0  0.056658  0.058261  0  3.875295  0
C  C87  1  0.03803013  0.65427399  0.61719065  1  0  0.102711  0  3.639596  0  0  0.06357  0  3.886064  0  0  0.0718  0  3.902248  0  0  0.056795  0.058362  0  3.875015  0
C  C88  1  0.03119199  0.96636258  0.23054891  1  0  0.115328  0  3.697943  0  0  0.073129  0  3.94728  0  0  0.082494  0  3.965015  0  0  0.050077  0.066876  0  3.935726  0
C  C89  1  0.96879751  0.46635589  0.26944788  1  0  0.115176  0  3.698097  0  0  0.072962  0  3.947457  0  0  0.082329  0  3.965195  0  0  0.049983  0.066675  0  3.935965  0
C  C90  1  0.96880740  0.03363828  0.76945208  1  0  0.115435  0  3.697901  0  0  0.073225  0  3.947249  0  0  0.082589  0  3.964981  0  0  0.050112  0.066974  0  3.935696  0
C  C91  1  0.03119838  0.53364573  0.73054685  1  0  0.115261  0  3.697827  0  0  0.07302  0  3.947165  0  0  0.082384  0  3.964901  0  0  0.049965  0.066733  0  3.935674  0
C  C92  1  0.15402318  0.02076362  0.19904641  1  0  -0.098294  0  3.750289  0  0  -0.069972  0  3.984367  0  0  -0.08274  0  4.007113  0  0  -0.009073  -0.062091  0  3.969357  0
C  C93  1  0.84596680  0.52075819  0.30095158  1  0  -0.098204  0  3.750647  0  0  -0.069837  0  3.984657  0  0  -0.082613  0  4.007423  0  0  -0.009013  -0.061951  0  3.969639  0
C  C94  1  0.84597388  0.97923800  0.80095310  1  0  -0.098287  0  3.750497  0  0  -0.069952  0  3.984576  0  0  -0.082711  0  4.007309  0  0  -0.009021  -0.062073  0  3.96957  0
C  C95  1  0.15402677  0.47924267  0.69904301  1  0  -0.098333  0  3.750606  0  0  -0.069984  0  3.984659  0  0  -0.082752  0  4.007409  0  0  -0.009043  -0.062097  0  3.96964  0
C  C96  1  0.22001472  0.98426720  0.12332910  1  0  -0.019841  0  3.603208  0  0  -0.060844  0  3.853857  0  0  -0.053556  0  3.866576  0  0  -0.047293  -0.065233  0  3.84532  0
C  C97  1  0.77997696  0.48426274  0.37666857  1  0  -0.019921  0  3.603599  0  0  -0.060983  0  3.854237  0  0  -0.053692  0  3.866959  0  0  -0.047335  -0.065366  0  3.845694  0
C  C98  1  0.77998468  0.01573442  0.87667055  1  0  -0.019848  0  3.603313  0  0  -0.060881  0  3.85397  0  0  -0.053594  0  3.866685  0  0  -0.047309  -0.065269  0  3.845435  0
C  C99  1  0.22001661  0.51573735  0.62332736  1  0  -0.019774  0  3.603491  0  0  -0.060846  0  3.854081  0  0  -0.053556  0  3.866798  0  0  -0.047297  -0.065229  0  3.845541  0
C  C100  1  0.19854549  0.12180391  0.24128841  1  0  0.621742  0  3.967504  0  0  0.57351  0  4.254756  0  0  0.608029  0  4.249931  0  0  0.19209  0.550287  0  4.257073  0
C  C101  1  0.80144825  0.62180068  0.25871097  1  0  0.62168  0  3.967497  0  0  0.573426  0  4.254778  0  0  0.607947  0  4.249954  0  0  0.192109  0.550206  0  4.257084  0
C  C102  1  0.80145157  0.87819695  0.75871109  1  0  0.621626  0  3.967572  0  0  0.573369  0  4.254864  0  0  0.607884  0  4.250043  0  0  0.192065  0.550147  0  4.257179  0
C  C103  1  0.19854531  0.37820171  0.74128632  1  0  0.62161  0  3.967627  0  0  0.573341  0  4.254931  0  0  0.607859  0  4.250112  0  0  0.192091  0.550122  0  4.257235  0
C  C104  1  0.63413132  0.02204321  0.32159618  1  0  0.120278  0  3.721203  0  0  0.091157  0  3.966887  0  0  0.097452  0  3.987316  0  0  0.045111  0.087167  0  3.952898  0
C  C105  1  0.36586798  0.52204588  0.17840708  1  0  0.120279  0  3.720988  0  0  0.091167  0  3.966655  0  0  0.097474  0  3.987083  0  0  0.045204  0.087177  0  3.952667  0
C  C106  1  0.36587275  0.97795231  0.67840577  1  0  0.120334  0  3.720877  0  0  0.091222  0  3.966537  0  0  0.097536  0  3.986961  0  0  0.045268  0.087236  0  3.952545  0
C  C107  1  0.63413141  0.47795574  0.82159391  1  0  0.120302  0  3.721127  0  0  0.091183  0  3.966805  0  0  0.097494  0  3.987233  0  0  0.04518  0.087194  0  3.952815  0
C  C108  1  0.62714693  0.09105486  0.39213994  1  0  -0.118426  0  3.722836  0  0  -0.129022  0  3.968027  0  0  -0.136685  0  3.990514  0  0  -0.08378  -0.124134  0  3.952949  0
C  C109  1  0.37285058  0.59105629  0.10786288  1  0  -0.118368  0  3.722826  0  0  -0.128997  0  3.968012  0  0  -0.136658  0  3.990492  0  0  -0.083814  -0.124108  0  3.952927  0
C  C110  1  0.37285596  0.90893913  0.60786261  1  0  -0.118452  0  3.722864  0  0  -0.129083  0  3.968085  0  0  -0.136744  0  3.990563  0  0  -0.083856  -0.124193  0  3.953001  0
C  C111  1  0.62714765  0.40894228  0.89213670  1  0  -0.118434  0  3.722875  0  0  -0.129069  0  3.968069  0  0  -0.13673  0  3.990548  0  0  -0.08384  -0.12418  0  3.952986  0
C  C112  1  0.69240180  0.06333523  0.47849971  1  0  0.001233  0  3.711678  0  0  -0.01598  0  3.953289  0  0  -0.012675  0  3.973482  0  0  -0.062834  -0.017802  0  3.939412  0
C  C113  1  0.30759480  0.56333791  0.02150359  1  0  0.001183  0  3.711669  0  0  -0.016022  0  3.953307  0  0  -0.012715  0  3.973503  0  0  -0.062886  -0.017844  0  3.939426  0
C  C114  1  0.30760226  0.93665647  0.52150291  1  0  0.001343  0  3.711501  0  0  -0.015831  0  3.953108  0  0  -0.012527  0  3.973303  0  0  -0.062741  -0.01765  0  3.939225  0
C  C115  1  0.69239876  0.43666066  0.97849638  1  0  0.00131  0  3.711588  0  0  -0.01588  0  3.953196  0  0  -0.012573  0  3.973402  0  0  -0.062758  -0.017702  0  3.939316  0
C  C116  1  0.76133185  0.96733157  0.49150331  1  0  -0.128417  0  3.726876  0  0  -0.136284  0  3.967887  0  0  -0.144006  0  3.989277  0  0  -0.084644  -0.131298  0  3.953475  0
C  C117  1  0.23866581  0.46733239  0.00849868  1  0  -0.128511  0  3.726885  0  0  -0.13641  0  3.967834  0  0  -0.144131  0  3.989222  0  0  -0.08459  -0.131418  0  3.95342  0
C  C118  1  0.23866987  0.03266090  0.50849917  1  0  -0.128445  0  3.727006  0  0  -0.13631  0  3.967943  0  0  -0.144036  0  3.989338  0  0  -0.084551  -0.131317  0  3.95353  0
C  C119  1  0.76133009  0.53266390  0.99150143  1  0  -0.128549  0  3.726997  0  0  -0.136452  0  3.967959  0  0  -0.144176  0  3.989349  0  0  -0.084683  -0.131459  0  3.953543  0
C  C120  1  0.76426546  0.90301961  0.41718364  1  0  0.124094  0  3.709431  0  0  0.095163  0  3.955098  0  0  0.101487  0  3.975382  0  0  0.045371  0.091136  0  3.941191  0
C  C121  1  0.23573628  0.40302167  0.08281895  1  0  0.124327  0  3.709248  0  0  0.095399  0  3.954923  0  0  0.101723  0  3.975209  0  0  0.045391  0.091372  0  3.941016  0
C  C122  1  0.23573744  0.09697439  0.58281756  1  0  0.124203  0  3.709523  0  0  0.095287  0  3.955182  0  0  0.101609  0  3.975474  0  0  0.045359  0.091259  0  3.941275  0
C  C123  1  0.76426428  0.59697843  0.91718346  1  0  0.124263  0  3.709483  0  0  0.095335  0  3.955146  0  0  0.10166  0  3.975431  0  0  0.045425  0.091309  0  3.941235  0
N  N124  1  0.70237369  0.92992900  0.33361371  1  0  -0.351369  0  3.295706  0  0  -0.269321  0  3.559855  0  0  -0.290771  0  3.580105  0  0  -0.337126  -0.254665  0  3.5456  0
N  N125  1  0.29762547  0.42993134  0.16638885  1  0  -0.351433  0  3.29552  0  0  -0.269422  0  3.559696  0  0  -0.290872  0  3.579942  0  0  -0.337183  -0.254767  0  3.545445  0
N  N126  1  0.29762920  0.07006576  0.66638816  1  0  -0.351419  0  3.295566  0  0  -0.269416  0  3.559744  0  0  -0.290866  0  3.579987  0  0  -0.337199  -0.25476  0  3.545493  0
N  N127  1  0.70237276  0.57006876  0.83361274  1  0  -0.351376  0  3.29574  0  0  -0.269363  0  3.559921  0  0  -0.290811  0  3.580163  0  0  -0.33712  -0.254706  0  3.545667  0
N  N128  1  0.97260224  0.88192096  0.18912250  1  0  -0.337281  0  3.325705  0  0  -0.253117  0  3.596284  0  0  -0.275024  0  3.614912  0  0  -0.334479  -0.238252  0  3.583088  0
N  N129  1  0.02739385  0.38191773  0.31087696  1  0  -0.337127  0  3.325703  0  0  -0.253004  0  3.596299  0  0  -0.274911  0  3.614928  0  0  -0.334526  -0.23813  0  3.583093  0
N  N130  1  0.02739715  0.11807990  0.81087849  1  0  -0.337271  0  3.325602  0  0  -0.253132  0  3.596189  0  0  -0.27504  0  3.614817  0  0  -0.334518  -0.238267  0  3.582993  0
N  N131  1  0.97260321  0.61808619  0.68911986  1  0  -0.33718  0  3.325202  0  0  -0.253034  0  3.595791  0  0  -0.274943  0  3.614421  0  0  -0.334479  -0.23816  0  3.582585  0
O  O132  1  0.47297169  0.82957224  0.14796559  1  0  -0.651028  0  1.987467  0  0  -0.583885  0  2.229311  0  0  -0.613912  0  2.219902  0  0  -0.334698  -0.562742  0  2.23488  0
O  O133  1  0.52703186  0.32957098  0.35203338  1  0  -0.651014  0  1.987539  0  0  -0.583862  0  2.229375  0  0  -0.613889  0  2.219966  0  0  -0.334711  -0.562713  0  2.234932  0
O  O134  1  0.52702887  0.17043091  0.85203615  1  0  -0.650926  0  1.987484  0  0  -0.583782  0  2.229332  0  0  -0.613809  0  2.219923  0  0  -0.334677  -0.562638  0  2.2349  0
O  O135  1  0.47296987  0.67042988  0.64796439  1  0  -0.650964  0  1.987468  0  0  -0.583821  0  2.229296  0  0  -0.613847  0  2.219886  0  0  -0.33469  -0.562677  0  2.234861  0
O  O136  1  0.64918192  0.86568287  0.05200976  1  0  -0.622923  0  1.905436  0  0  -0.566322  0  2.131591  0  0  -0.594179  0  2.123095  0  0  -0.331372  -0.546771  0  2.13666  0
O  O137  1  0.35081899  0.36568296  0.44798789  1  0  -0.622921  0  1.905439  0  0  -0.566322  0  2.131593  0  0  -0.594179  0  2.123097  0  0  -0.331393  -0.54677  0  2.136661  0
O  O138  1  0.35081864  0.13431875  0.94799265  1  0  -0.622953  0  1.905404  0  0  -0.566357  0  2.131571  0  0  -0.594214  0  2.123074  0  0  -0.331409  -0.546806  0  2.136641  0
O  O139  1  0.64918158  0.63431714  0.55200914  1  0  -0.622936  0  1.905412  0  0  -0.56634  0  2.131553  0  0  -0.594197  0  2.123056  0  0  -0.331403  -0.546789  0  2.136621  0
O  O140  1  0.27086434  0.18395240  0.19367532  1  0  -0.628329  0  1.992942  0  0  -0.558602  0  2.236855  0  0  -0.588894  0  2.227492  0  0  -0.324893  -0.537441  0  2.242442  0
O  O141  1  0.72913351  0.68395130  0.30632730  1  0  -0.628338  0  1.99289  0  0  -0.558596  0  2.236783  0  0  -0.588894  0  2.227435  0  0  -0.32492  -0.537437  0  2.242366  0
O  O142  1  0.72913505  0.81604846  0.80632567  1  0  -0.628296  0  1.992939  0  0  -0.558544  0  2.236846  0  0  -0.588845  0  2.227505  0  0  -0.324896  -0.537384  0  2.24243  0
O  O143  1  0.27086238  0.31604879  0.69367415  1  0  -0.628355  0  1.99293  0  0  -0.558607  0  2.236855  0  0  -0.588894  0  2.227475  0  0  -0.32495  -0.537447  0  2.242437  0
O  O144  1  0.15808093  0.14388133  0.31846938  1  0  -0.633062  0  1.934816  0  0  -0.578081  0  2.162531  0  0  -0.604112  0  2.152246  0  0  -0.323407  -0.55979  0  2.168798  0
O  O145  1  0.84191961  0.64388201  0.18153321  1  0  -0.633004  0  1.934829  0  0  -0.578023  0  2.162547  0  0  -0.604054  0  2.152263  0  0  -0.323391  -0.559722  0  2.168789  0
O  O146  1  0.84191730  0.85612030  0.68153020  1  0  -0.633021  0  1.934799  0  0  -0.578026  0  2.162517  0  0  -0.604057  0  2.152237  0  0  -0.323399  -0.559729  0  2.168764  0
O  O147  1  0.15807628  0.35612648  0.81846555  1  0  -0.632917  0  1.934823  0  0  -0.577949  0  2.162555  0  0  -0.603981  0  2.152275  0  0  -0.323355  -0.559649  0  2.168796  0
