# generated using pymatgen
data_MnH7C7NO6
_symmetry_space_group_name_H-M   'P 1'
_cell_length_a   6.92189962
_cell_length_b   7.68917502
_cell_length_c   9.32288735
_cell_angle_alpha   69.88772371
_cell_angle_beta   69.23960486
_cell_angle_gamma   77.62808832
_symmetry_Int_Tables_number   1
_chemical_formula_structural   MnH7C7NO6
_chemical_formula_sum   'Mn2 H14 C14 N2 O12'
_cell_volume   433.26993395
_cell_formula_units_Z   2
loop_
 _symmetry_equiv_pos_site_id
 _symmetry_equiv_pos_as_xyz
  1  'x, y, z'
loop_
 _atom_site_type_symbol
 _atom_site_label
 _atom_site_symmetry_multiplicity
 _atom_site_fract_x
 _atom_site_fract_y
 _atom_site_fract_z
 _atom_site_occupancy
 _atom_site_hle17_ddec_charge
 _atom_site_hle17_ddec_spin_density
 _atom_site_hle17_ddec_sum_bond_order
 _atom_site_hle17_magmom
 _atom_site_hse06_10hf_ddec_charge
 _atom_site_hse06_10hf_ddec_spin_density
 _atom_site_hse06_10hf_ddec_sum_bond_order
 _atom_site_hse06_10hf_magmom
 _atom_site_hse06_ddec_charge
 _atom_site_hse06_ddec_spin_density
 _atom_site_hse06_ddec_sum_bond_order
 _atom_site_hse06_magmom
 _atom_site_pbe_cm5_charge
 _atom_site_pbe_ddec_charge
 _atom_site_pbe_ddec_spin_density
 _atom_site_pbe_ddec_sum_bond_order
 _atom_site_pbe_magmom
Mn  Mn0  1  0.96700426  0.23178757  0.75185855  1  1.227048  -4.801736  1.688885  -4.675  1.07012  -4.726374  2.179884  -4.531  1.128536  -4.773526  2.107287  -4.596  0.618988  1.024984  -4.675616  2.233124  -4.464
Mn  Mn1  1  0.03300479  0.76820030  0.24815352  1  1.227139  4.8017  1.688908  4.674  1.070243  4.726297  2.179948  4.531  1.12865  4.773465  2.107344  4.596  0.618979  1.02507  4.67552  2.233269  4.464
H  H2  1  0.24994366  0.46284096  0.73424606  1  0.42163  8.2e-05  0.824019  -0.001  0.403337  -0.000629  0.881376  -0.001  0.411845  -0.000334  0.872083  -0.001  0.319992  0.39696  -0.000901  0.888452  -0.002
H  H3  1  0.75004693  0.53715618  0.26576772  1  0.421624  -7.3e-05  0.824089  0.001  0.403361  0.00063  0.881376  0.001  0.411871  0.000334  0.872082  0.001  0.320016  0.396985  0.000902  0.888453  0.002
H  H4  1  0.13209944  0.54618628  0.60280871  1  0.414468  -0.00055  0.896969  0.0  0.383033  -0.001186  0.965056  -0.001  0.39423  -0.000989  0.948996  0.0  0.294069  0.375124  -0.001363  0.976344  -0.001
H  H5  1  0.86790039  0.45381115  0.39720243  1  0.414423  0.000546  0.896944  0.0  0.382993  0.001186  0.965087  0.001  0.394189  0.000989  0.94903  0.0  0.294072  0.375086  0.001363  0.976376  0.001
H  H6  1  0.00438652  0.29292615  0.02206240  1  0.414776  -0.000424  0.896338  -0.001  0.379917  -0.001177  0.967288  -0.002  0.391807  -0.000896  0.950134  -0.002  0.284461  0.371465  -0.001401  0.979464  -0.002
H  H7  1  0.99560545  0.70707887  0.97793289  1  0.414735  0.000427  0.896384  0.001  0.379869  0.001177  0.967319  0.002  0.391745  0.000896  0.950182  0.002  0.284455  0.371429  0.001401  0.979491  0.002
H  H8  1  0.84009052  0.44601572  0.94793273  1  0.427978  0.000101  0.855122  -0.001  0.39821  -0.000676  0.922829  -0.002  0.408789  -0.000394  0.90733  -0.001  0.300927  0.390679  -0.000915  0.933838  -0.002
H  H9  1  0.15989803  0.55399299  0.05207009  1  0.427996  -9.9e-05  0.855209  0.001  0.398294  0.000675  0.922731  0.002  0.408847  0.000393  0.907256  0.001  0.301016  0.390767  0.000914  0.933735  0.002
H  H10  1  0.36992417  0.10773810  0.85184244  1  0.088214  -0.000341  0.937981  0.0  0.095586  -0.000913  1.002613  -0.001  0.098335  -0.00072  0.999796  0.0  0.124351  0.093536  -0.00111  1.004907  -0.001
H  H11  1  0.63006212  0.89226390  0.14815627  1  0.088205  0.000356  0.937969  0.0  0.095586  0.000913  1.002595  0.001  0.098338  0.000719  0.999774  0.0  0.124357  0.093534  0.00111  1.004892  0.001
H  H12  1  0.44044704  0.69086360  0.53494921  1  0.126237  -0.000489  0.947287  0.0  0.135461  -0.000653  1.006204  0.0  0.139558  -0.000518  1.003968  0.0  0.114561  0.132417  -0.000788  1.008173  0.0
H  H13  1  0.55956570  0.30912785  0.46504803  1  0.126201  0.000484  0.947352  0.0  0.135427  0.000654  1.006286  0.0  0.139525  0.000518  1.004048  0.0  0.114523  0.132382  0.000789  1.008257  0.0
H  H14  1  0.12547015  0.91762361  0.59207432  1  0.082959  -0.000517  0.944871  0.0  0.088184  -0.001178  1.016147  -0.001  0.091078  -0.000958  1.012787  0.0  0.118365  0.086116  -0.00139  1.018593  -0.001
H  H15  1  0.87453822  0.08236737  0.40793071  1  0.082937  0.000519  0.944653  0.0  0.088088  0.001179  1.01603  0.001  0.090983  0.000958  1.012673  0.0  0.118333  0.086023  0.00139  1.018473  0.001
C  C16  1  0.38704477  0.01097097  0.78499765  1  0.160515  -0.006411  3.650179  -0.006  0.118317  -0.008798  3.906977  -0.007  0.128967  -0.007873  3.921437  -0.006  0.0684  0.111178  -0.010311  3.897686  -0.008
C  C17  1  0.61295583  0.98902861  0.21499876  1  0.160543  0.006336  3.650368  0.006  0.118306  0.008797  3.907167  0.007  0.128954  0.007868  3.921629  0.006  0.068413  0.111169  0.010309  3.897873  0.008
C  C18  1  0.56351105  0.88265197  0.76572644  1  -0.12296  0.001461  3.698015  0.001  -0.10699  -8e-05  3.934864  0.0  -0.11829  0.001154  3.954677  0.001  -0.002837  -0.09962  -0.000992  3.922731  0.0
C  C19  1  0.43649532  0.11735052  0.23426869  1  -0.122974  -0.001423  3.698338  -0.001  -0.106968  8.2e-05  3.935137  0.0  -0.118278  -0.001149  3.954957  -0.001  -0.002823  -0.099597  0.000995  3.923007  0.0
C  C20  1  0.58345935  0.76440317  0.67451237  1  0.007931  -0.006349  3.693388  -0.006  0.015012  -0.007804  3.927734  -0.006  0.017769  -0.00676  3.943584  -0.005  0.017589  0.012704  -0.009761  3.91784  -0.008
C  C21  1  0.41655254  0.23560257  0.32547503  1  0.007865  0.006318  3.693709  0.006  0.014814  0.007805  3.928116  0.006  0.017574  0.006762  3.943964  0.005  0.017519  0.012501  0.009765  3.918228  0.008
C  C22  1  0.42459588  0.77691989  0.61075933  1  -0.143508  0.002565  3.707716  0.002  -0.164448  0.000816  3.96025  0.001  -0.171714  0.001724  3.97917  0.001  -0.083305  -0.160198  0.000179  3.948822  0.001
C  C23  1  0.57540942  0.22307972  0.38923791  1  -0.143446  -0.002525  3.707833  -0.002  -0.164379  -0.000814  3.960408  -0.001  -0.171646  -0.001721  3.979329  -0.001  -0.083303  -0.160125  -0.000176  3.948977  -0.001
C  C24  1  0.25187677  0.90504199  0.64012322  1  0.144921  -0.006088  3.699992  -0.006  0.108033  -0.008325  3.965989  -0.007  0.117481  -0.007304  3.98226  -0.006  0.052048  0.101672  -0.009782  3.955303  -0.008
C  C25  1  0.74811695  0.09494963  0.35986532  1  0.144866  0.006052  3.700123  0.006  0.108025  0.008325  3.966169  0.007  0.117469  0.007302  3.982447  0.006  0.052075  0.101668  0.009783  3.955475  0.008
C  C26  1  0.72470575  0.87635382  0.84123625  1  0.691872  -0.009324  3.87595  -0.009  0.634383  -0.014005  4.180931  -0.013  0.670556  -0.010509  4.172317  -0.01  0.227968  0.608604  -0.018225  4.187023  -0.016
C  C27  1  0.27529651  0.12365659  0.15876445  1  0.691875  0.009346  3.875653  0.009  0.6345  0.014018  4.180438  0.013  0.670688  0.010517  4.171803  0.01  0.228048  0.60872  0.018245  4.18653  0.016
C  C28  1  0.77442758  0.63159416  0.63883756  1  0.681135  -0.001271  3.873221  -0.001  0.623509  -0.001669  4.172333  -0.001  0.659525  -0.001709  4.162283  -0.001  0.229822  0.598162  -0.001337  4.178659  0.0
C  C29  1  0.22555767  0.36837650  0.36118017  1  0.680728  0.001275  3.873727  0.001  0.623312  0.001686  4.172589  0.001  0.659322  0.001716  4.16255  0.001  0.229692  0.597968  0.001359  4.178913  0.0
N  N30  1  0.23324897  0.02186852  0.72517317  1  -0.366197  -0.025007  3.279961  -0.008  -0.295259  -0.027473  3.567073  -0.005  -0.316753  -0.024222  3.58071  -0.003  -0.331492  -0.28  -0.030498  3.55751  -0.008
N  N31  1  0.76674873  0.97812852  0.27481826  1  -0.36607  0.025037  3.280229  0.008  -0.295114  0.027472  3.567311  0.005  -0.316599  0.024223  3.580945  0.003  -0.331467  -0.279857  0.030495  3.557743  0.008
O  O32  1  0.76025205  0.03262785  0.84058001  1  -0.665913  -0.034763  2.041131  -0.019  -0.600361  -0.043243  2.323445  -0.023  -0.632261  -0.038088  2.306574  -0.018  -0.316044  -0.576305  -0.048415  2.334895  -0.027
O  O33  1  0.23973039  0.96736968  0.15942414  1  -0.666106  0.034787  2.040799  0.02  -0.600566  0.043247  2.323049  0.023  -0.632464  0.038095  2.306157  0.018  -0.316216  -0.576505  0.048419  2.334502  0.027
O  O34  1  0.81080173  0.71823487  0.90333593  1  -0.639662  -0.005333  1.964371  -0.006  -0.578551  -0.008909  2.184636  -0.01  -0.603817  -0.006821  2.172315  -0.008  -0.30633  -0.561403  -0.011313  2.193664  -0.012
O  O35  1  0.18919149  0.28177281  0.09666156  1  -0.639587  0.005314  1.964315  0.006  -0.578574  0.008916  2.184585  0.01  -0.603843  0.006824  2.172237  0.008  -0.30631  -0.561426  0.011322  2.193612  0.012
O  O36  1  0.94426064  0.70015159  0.54771465  1  -0.658602  0.011346  1.998597  0.001  -0.597413  0.016022  2.242195  0.003  -0.625825  0.015257  2.229654  0.003  -0.296799  -0.57667  0.016274  2.250528  0.002
O  O37  1  0.05578158  0.29986008  0.45227350  1  -0.658048  -0.011334  1.999897  -0.001  -0.59688  -0.016012  2.243329  -0.003  -0.625275  -0.015246  2.230784  -0.003  -0.296487  -0.576155  -0.016265  2.251668  -0.002
O  O38  1  0.74847806  0.46030786  0.70215164  1  -0.621744  -0.027751  2.023766  -0.016  -0.552925  -0.028224  2.277474  -0.013  -0.583548  -0.025944  2.262257  -0.011  -0.303994  -0.529831  -0.030567  2.287248  -0.015
O  O39  1  0.25154011  0.53971757  0.29783006  1  -0.621903  0.027776  2.022844  0.016  -0.553183  0.028244  2.27651  0.013  -0.583827  0.02596  2.261309  0.011  -0.304176  -0.530059  0.03059  2.286258  0.015
O  O40  1  0.21602048  0.43230536  0.65344056  1  -0.830231  -0.026979  1.912487  -0.018  -0.778472  -0.035379  2.119994  -0.024  -0.801742  -0.031906  2.091457  -0.021  -0.560887  -0.760693  -0.038623  2.140035  -0.026
O  O41  1  0.78398452  0.56769798  0.34656440  1  -0.830162  0.02697  1.912557  0.018  -0.77841  0.03538  2.120043  0.024  -0.801679  0.031908  2.091507  0.021  -0.560857  -0.760626  0.038623  2.14008  0.026
O  O42  1  0.89393191  0.31332928  0.96874352  1  -0.840839  -0.033924  1.898588  -0.022  -0.778662  -0.042426  2.108598  -0.027  -0.80451  -0.037611  2.074014  -0.023  -0.569788  -0.758864  -0.046939  2.13271  -0.031
O  O43  1  0.10604497  0.68666505  0.03126729  1  -0.840866  0.033911  1.89874  0.022  -0.778762  0.042428  2.108687  0.027  -0.804559  0.037614  2.074199  0.023  -0.569926  -0.75897  0.04694  2.132714  0.031
