# generated using pymatgen
data_ZnH16C23Br2N2(ClO2)2
_symmetry_space_group_name_H-M   'P 1'
_cell_length_a   10.07570167
_cell_length_b   11.33321261
_cell_length_c   12.49439686
_cell_angle_alpha   104.12414018
_cell_angle_beta   96.85313599
_cell_angle_gamma   96.45617884
_symmetry_Int_Tables_number   1
_chemical_formula_structural   ZnH16C23Br2N2(ClO2)2
_chemical_formula_sum   'Zn2 H32 C46 Br4 N4 Cl4 O8'
_cell_volume   1358.79086342
_cell_formula_units_Z   2
loop_
 _symmetry_equiv_pos_site_id
 _symmetry_equiv_pos_as_xyz
  1  'x, y, z'
loop_
 _atom_site_type_symbol
 _atom_site_label
 _atom_site_symmetry_multiplicity
 _atom_site_fract_x
 _atom_site_fract_y
 _atom_site_fract_z
 _atom_site_occupancy
 _atom_site_hle17_bader_spin_density
 _atom_site_hle17_ddec_charge
 _atom_site_hle17_ddec_spin_density
 _atom_site_hle17_ddec_sum_bond_order
 _atom_site_hle17_magmom
 _atom_site_hse06_10hf_bader_spin_density
 _atom_site_hse06_10hf_ddec_charge
 _atom_site_hse06_10hf_ddec_spin_density
 _atom_site_hse06_10hf_ddec_sum_bond_order
 _atom_site_hse06_10hf_magmom
 _atom_site_hse06_bader_spin_density
 _atom_site_hse06_ddec_charge
 _atom_site_hse06_ddec_spin_density
 _atom_site_hse06_ddec_sum_bond_order
 _atom_site_hse06_magmom
 _atom_site_pbe_bader_spin_density
 _atom_site_pbe_cm5_charge
 _atom_site_pbe_ddec_charge
 _atom_site_pbe_ddec_spin_density
 _atom_site_pbe_ddec_sum_bond_order
 _atom_site_pbe_magmom
Zn  Zn0  1  0.48605856  0.80215356  0.17575067  1  0  0.827528  0  2.152126  0  0  0.647971  0  2.652972  0  0  0.6879  0  2.60564  0  0  0.551698  0.620421  0  2.68513  0
Zn  Zn1  1  0.51394105  0.19784542  0.82424994  1  0  0.827489  0  2.152156  0  0  0.647933  0  2.652978  0  0  0.687866  0  2.605641  0  0  0.551693  0.62038  0  2.685149  0
H  H2  1  0.30785265  0.99110854  0.22201526  1  0  0.082539  0  0.950717  0  0  0.089516  0  1.016218  0  0  0.091942  0  1.014459  0  0  0.11417  0.087941  0  1.017084  0
H  H3  1  0.69214682  0.00888951  0.77798594  1  0  0.082555  0  0.950741  0  0  0.089539  0  1.016231  0  0  0.091965  0  1.014472  0  0  0.114168  0.08796  0  1.017099  0
H  H4  1  0.15847933  0.10066086  0.11479148  1  0  0.129239  0  0.94971  0  0  0.135199  0  1.013374  0  0  0.139341  0  1.010571  0  0  0.114789  0.132313  0  1.015401  0
H  H5  1  0.84151913  0.89933720  0.88520962  1  0  0.129178  0  0.949693  0  0  0.135159  0  1.013345  0  0  0.139303  0  1.010538  0  0  0.114774  0.132269  0  1.015371  0
H  H6  1  0.30239061  0.91309050  0.81644146  1  0  0.123502  0  0.941287  0  0  0.131094  0  1.003553  0  0  0.134487  0  1.002128  0  0  0.114666  0.128648  0  1.004737  0
H  H7  1  0.69761274  0.08691307  0.18356052  1  0  0.123576  0  0.941247  0  0  0.131159  0  1.00351  0  0  0.134557  0  1.002085  0  0  0.114675  0.128717  0  1.004695  0
H  H8  1  0.44135176  0.80713387  0.93530182  1  0  0.07616  0  0.961359  0  0  0.080149  0  1.03216  0  0  0.083099  0  1.029843  0  0  0.105015  0.077909  0  1.034068  0
H  H9  1  0.55865044  0.19286878  0.06469824  1  0  0.076148  0  0.96134  0  0  0.080156  0  1.032132  0  0  0.083105  0  1.029821  0  0  0.105008  0.077915  0  1.034037  0
H  H10  1  0.21189375  0.22298593  0.70067088  1  0  0.118389  0  0.961824  0  0  0.123803  0  1.033025  0  0  0.127274  0  1.030981  0  0  0.099226  0.121658  0  1.033798  0
H  H11  1  0.78810915  0.77701488  0.29932725  1  0  0.118346  0  0.961873  0  0  0.123782  0  1.033044  0  0  0.127253  0  1.031001  0  0  0.09922  0.121637  0  1.033809  0
H  H12  1  0.88993749  0.93686348  0.69290309  1  0  0.124067  0  0.953885  0  0  0.133436  0  1.015206  0  0  0.136835  0  1.013478  0  0  0.107284  0.130941  0  1.016612  0
H  H13  1  0.11006656  0.06313826  0.30709935  1  0  0.124056  0  0.95384  0  0  0.133429  0  1.015161  0  0  0.136829  0  1.013433  0  0  0.107293  0.130937  0  1.016571  0
H  H14  1  0.74843117  0.99460652  0.54020247  1  0  0.109107  0  0.946756  0  0  0.118277  0  1.007445  0  0  0.121109  0  1.006205  0  0  0.100558  0.116905  0  1.006922  0
H  H15  1  0.25157129  0.00539154  0.45979822  1  0  0.109068  0  0.946753  0  0  0.118228  0  1.007457  0  0  0.121056  0  1.00622  0  0  0.100552  0.116859  0  1.006936  0
H  H16  1  0.19036785  0.34763540  0.55872892  1  0  0.116949  0  0.945928  0  0  0.125659  0  1.008423  0  0  0.12965  0  1.00573  0  0  0.10283  0.122819  0  1.010353  0
H  H17  1  0.80963106  0.65236541  0.44126963  1  0  0.116943  0  0.94592  0  0  0.125655  0  1.008414  0  0  0.129646  0  1.005721  0  0  0.102828  0.12281  0  1.010344  0
H  H18  1  0.82654151  0.28308566  0.32208583  1  0  0.10189  0  0.978276  0  0  0.105922  0  1.052264  0  0  0.109782  0  1.049786  0  0  0.09303  0.103141  0  1.054095  0
H  H19  1  0.17345596  0.71691238  0.67791438  1  0  0.101915  0  0.978225  0  0  0.105926  0  1.052242  0  0  0.109787  0  1.049764  0  0  0.093026  0.103143  0  1.054077  0
H  H20  1  0.72427863  0.12216933  0.40768900  1  0  0.106418  0  0.970041  0  0  0.116234  0  1.031676  0  0  0.119299  0  1.02971  0  0  0.093635  0.11397  0  1.033212  0
H  H21  1  0.27572083  0.87782872  0.59231139  1  0  0.106432  0  0.97004  0  0  0.116242  0  1.031678  0  0  0.119308  0  1.029711  0  0  0.093643  0.113975  0  1.033214  0
H  H22  1  0.27114255  0.78272515  0.31665029  1  0  0.079709  0  0.971052  0  0  0.084638  0  1.041055  0  0  0.086499  0  1.040605  0  0  0.111889  0.083614  0  1.040638  0
H  H23  1  0.72885521  0.21727474  0.68334954  1  0  0.079667  0  0.971116  0  0  0.084626  0  1.041075  0  0  0.086489  0  1.040625  0  0  0.111896  0.083602  0  1.040661  0
H  H24  1  0.13639816  0.61849091  0.37792745  1  0  0.112097  0  0.987498  0  0  0.114251  0  1.061208  0  0  0.11667  0  1.062228  0  0  0.108044  0.112573  0  1.060559  0
H  H25  1  0.86359960  0.38150897  0.62207318  1  0  0.112095  0  0.98753  0  0  0.114247  0  1.061233  0  0  0.116672  0  1.06223  0  0  0.108049  0.112566  0  1.060588  0
H  H26  1  0.30600330  0.35010057  0.14460811  1  0  0.125375  0  0.947687  0  0  0.132325  0  1.009808  0  0  0.13601  0  1.008082  0  0  0.108227  0.129656  0  1.011441  0
H  H27  1  0.69399446  0.64989932  0.85539173  1  0  0.125362  0  0.94774  0  0  0.132375  0  1.00979  0  0  0.13606  0  1.008062  0  0  0.108235  0.129705  0  1.011428  0
H  H28  1  0.43275936  0.52523948  0.09173913  1  0  0.080415  0  0.975027  0  0  0.080682  0  1.053249  0  0  0.083635  0  1.050631  0  0  0.101013  0.078378  0  1.055595  0
H  H29  1  0.56723925  0.47475949  0.90826138  1  0  0.080432  0  0.975008  0  0  0.080681  0  1.053264  0  0  0.083634  0  1.050646  0  0  0.101018  0.078375  0  1.055608  0
H  H30  1  0.93354840  0.56288879  0.18380179  1  0  0.118174  0  0.944725  0  0  0.127883  0  1.007308  0  0  0.129001  0  1.007817  0  0  0.097505  0.126866  0  1.00757  0
H  H31  1  0.06645221  0.43711018  0.81619892  1  0  0.118194  0  0.944732  0  0  0.127904  0  1.007316  0  0  0.129022  0  1.007824  0  0  0.097512  0.126886  0  1.007574  0
H  H32  1  0.80391894  0.54601223  0.06516686  1  0  0.122478  0  0.964937  0  0  0.129692  0  1.031059  0  0  0.131141  0  1.031027  0  0  0.091051  0.128763  0  1.031173  0
H  H33  1  0.19608126  0.45399042  0.93483382  1  0  0.122479  0  0.964958  0  0  0.129713  0  1.031056  0  0  0.131163  0  1.031023  0  0  0.09106  0.128781  0  1.031173  0
C  C34  1  0.30091472  0.97553741  0.13174110  1  0  0.134364  0  3.663545  0  0  0.104777  0  3.909342  0  0  0.110911  0  3.926982  0  0  0.052048  0.100499  0  3.897711  0
C  C35  1  0.69908489  0.02446157  0.86825952  1  0  0.134298  0  3.663594  0  0  0.104699  0  3.909422  0  0  0.110831  0  3.927062  0  0  0.052051  0.100426  0  3.897783  0
C  C36  1  0.21904610  0.03577835  0.07224832  1  0  -0.091853  0  3.665093  0  0  -0.115282  0  3.912911  0  0  -0.119612  0  3.931968  0  0  -0.066803  -0.112535  0  3.9004  0
C  C37  1  0.78095266  0.96422154  0.92775321  1  0  -0.091728  0  3.665019  0  0  -0.115164  0  3.912865  0  0  -0.11949  0  3.93192  0  0  -0.066791  -0.11241  0  3.900346  0
C  C38  1  0.21729229  0.01240938  0.95706033  1  0  -0.00146  0  3.739259  0  0  0.011335  0  3.977947  0  0  0.009374  0  3.997126  0  0  0.008947  0.012744  0  3.965187  0
C  C39  1  0.78270891  0.98759327  0.04294044  1  0  -0.001509  0  3.739112  0  0  0.011251  0  3.977879  0  0  0.009289  0  3.997062  0  0  0.008911  0.012654  0  3.96512  0
C  C40  1  0.29913732  0.93074925  0.90559711  1  0  -0.110644  0  3.686656  0  0  -0.137951  0  3.944839  0  0  -0.142317  0  3.964577  0  0  -0.073239  -0.135178  0  3.932024  0
C  C41  1  0.70086388  0.06925340  0.09440366  1  0  -0.110762  0  3.686695  0  0  -0.138031  0  3.944876  0  0  -0.142405  0  3.964623  0  0  -0.073239  -0.13526  0  3.932061  0
C  C42  1  0.37681976  0.87289239  0.97070468  1  0  0.119665  0  3.717102  0  0  0.08682  0  3.973539  0  0  0.092371  0  3.99228  0  0  0.042212  0.083083  0  3.961463  0
C  C43  1  0.62318215  0.12710842  0.02929576  1  0  0.119704  0  3.717073  0  0  0.086831  0  3.97352  0  0  0.092379  0  3.992263  0  0  0.042218  0.083094  0  3.961439  0
C  C44  1  0.12518988  0.07339970  0.89226176  1  0  0.597213  0  3.794562  0  0  0.548298  0  4.089077  0  0  0.581047  0  4.078599  0  0  0.241999  0.525696  0  4.096156  0
C  C45  1  0.87481202  0.92660112  0.10773868  1  0  0.59742  0  3.794483  0  0  0.548477  0  4.089049  0  0  0.581225  0  4.078566  0  0  0.242162  0.525882  0  4.096125  0
C  C46  1  0.10965665  0.17645843  0.66620276  1  0  -0.208293  0  3.69454  0  0  -0.239216  0  3.947104  0  0  -0.244623  0  3.966697  0  0  -0.096154  -0.235418  0  3.933019  0
C  C47  1  0.89034641  0.82354330  0.33379559  1  0  -0.208201  0  3.69464  0  0  -0.239142  0  3.947232  0  0  -0.244548  0  3.966825  0  0  -0.096161  -0.235338  0  3.933134  0
C  C48  1  0.05495578  0.08158152  0.70527413  1  0  0.286028  0  3.776547  0  0  0.273797  0  4.047098  0  0  0.28389  0  4.063555  0  0  0.079351  0.266916  0  4.035612  0
C  C49  1  0.94504827  0.91842021  0.29472672  1  0  0.286043  0  3.776779  0  0  0.273801  0  4.047344  0  0  0.283894  0  4.063802  0  0  0.079399  0.266915  0  4.03587  0
C  C50  1  0.92489338  0.01510954  0.66204607  1  0  -0.167243  0  3.741782  0  0  -0.193398  0  4.002794  0  0  -0.198112  0  4.023098  0  0  -0.096965  -0.190046  0  3.988856  0
C  C51  1  0.07510837  0.98489035  0.33795575  1  0  -0.167282  0  3.741862  0  0  -0.193453  0  4.002906  0  0  -0.198161  0  4.023192  0  0  -0.097006  -0.190097  0  3.988969  0
C  C52  1  0.84848127  0.04597307  0.57666765  1  0  -0.086347  0  3.729561  0  0  -0.102329  0  3.978834  0  0  -0.103664  0  3.999756  0  0  -0.082041  -0.101039  0  3.963174  0
C  C53  1  0.15152149  0.95402683  0.42333347  1  0  -0.086193  0  3.729592  0  0  -0.102167  0  3.978829  0  0  -0.103508  0  3.999775  0  0  -0.081975  -0.100878  0  3.963167  0
C  C54  1  0.90054432  0.14188256  0.53142096  1  0  0.031437  0  3.780879  0  0  0.046573  0  4.004965  0  0  0.04464  0  4.030619  0  0  -0.010637  0.047616  0  3.988131  0
C  C55  1  0.09945730  0.85811641  0.46857824  1  0  0.031282  0  3.781056  0  0  0.046482  0  4.005054  0  0  0.044544  0  4.030708  0  0  -0.0107  0.047527  0  3.988217  0
C  C56  1  0.03384634  0.20752052  0.57657918  1  0  0.085576  0  3.807401  0  0  0.107134  0  4.030272  0  0  0.107422  0  4.056535  0  0  -0.005127  0.106756  0  4.012977  0
C  C57  1  0.96615527  0.79247846  0.42342002  1  0  0.085557  0  3.807451  0  0  0.107093  0  4.030329  0  0  0.107384  0  4.05659  0  0  -0.005114  0.106717  0  4.013024  0
C  C58  1  0.08888743  0.29779258  0.52660611  1  0  -0.214203  0  3.71114  0  0  -0.245303  0  3.963701  0  0  -0.250074  0  3.981319  0  0  -0.097022  -0.242035  0  3.951756  0
C  C59  1  0.91111333  0.70220731  0.47339242  1  0  -0.214147  0  3.71117  0  0  -0.24525  0  3.963728  0  0  -0.250023  0  3.981348  0  0  -0.096995  -0.241982  0  3.951776  0
C  C60  1  0.01383283  0.31979548  0.43616646  1  0  0.274855  0  3.78107  0  0  0.263927  0  4.052322  0  0  0.274318  0  4.067385  0  0  0.073585  0.256773  0  4.042111  0
C  C61  1  0.98616578  0.68020349  0.56383165  1  0  0.274806  0  3.781248  0  0  0.263913  0  4.052468  0  0  0.274306  0  4.067527  0  0  0.073554  0.25676  0  4.042248  0
C  C62  1  0.88141742  0.25966847  0.39279825  1  0  -0.166687  0  3.756469  0  0  -0.191616  0  4.016124  0  0  -0.195856  0  4.034248  0  0  -0.102398  -0.18877  0  4.004014  0
C  C63  1  0.11858204  0.74032958  0.60720215  1  0  -0.166715  0  3.756616  0  0  -0.191632  0  4.01627  0  0  -0.195871  0  4.034391  0  0  -0.102388  -0.188782  0  4.004155  0
C  C64  1  0.82569987  0.17219315  0.44075993  1  0  -0.078218  0  3.716129  0  0  -0.095641  0  3.961878  0  0  -0.096237  0  3.981657  0  0  -0.084453  -0.095356  0  3.948816  0
C  C65  1  0.17430060  0.82780490  0.55923977  1  0  -0.078194  0  3.716228  0  0  -0.095628  0  3.961952  0  0  -0.096221  0  3.981727  0  0  -0.084448  -0.095344  0  3.948885  0
C  C66  1  0.14695239  0.36773373  0.30528471  1  0  0.591269  0  3.787441  0  0  0.540802  0  4.085744  0  0  0.574026  0  4.074597  0  0  0.244739  0.518285  0  4.09259  0
C  C67  1  0.85304622  0.63226524  0.69471421  1  0  0.591243  0  3.787447  0  0  0.540749  0  4.085767  0  0  0.573973  0  4.074619  0  0  0.244703  0.518233  0  4.092613  0
C  C68  1  0.27422193  0.68559706  0.27977983  1  0  0.137388  0  3.667816  0  0  0.10805  0  3.912217  0  0  0.114272  0  3.929599  0  0  0.052381  0.104307  0  3.900235  0
C  C69  1  0.72577669  0.31440191  0.72022069  1  0  0.137389  0  3.66779  0  0  0.10803  0  3.912188  0  0  0.114248  0  3.929569  0  0  0.052337  0.104285  0  3.900204  0
C  C70  1  0.20024126  0.59410432  0.31403089  1  0  -0.111618  0  3.681168  0  0  -0.133869  0  3.928268  0  0  -0.138127  0  3.948562  0  0  -0.073874  -0.131072  0  3.914914  0
C  C71  1  0.79975721  0.40589372  0.68596701  1  0  -0.11163  0  3.68113  0  0  -0.133892  0  3.928183  0  0  -0.138152  0  3.948494  0  0  -0.073872  -0.131082  0  3.914825  0
C  C72  1  0.21311376  0.47137283  0.26698377  1  0  -0.017062  0  3.760713  0  0  -0.001221  0  3.996182  0  0  -0.003986  0  4.015977  0  0  0.002816  0.000512  0  3.983271  0
C  C73  1  0.78688414  0.52862797  0.73301628  1  0  -0.017038  0  3.760726  0  0  -0.001107  0  3.996096  0  0  -0.003874  0  4.015895  0  0  0.002827  0.000615  0  3.983197  0
C  C74  1  0.29557909  0.44463804  0.18444935  1  0  -0.10685  0  3.686461  0  0  -0.130051  0  3.932003  0  0  -0.134953  0  3.952546  0  0  -0.072666  -0.127762  0  3.920217  0
C  C75  1  0.70441853  0.55536092  0.81554947  1  0  -0.106908  0  3.686499  0  0  -0.130204  0  3.932027  0  0  -0.135106  0  3.952567  0  0  -0.072694  -0.127917  0  3.92025  0
C  C76  1  0.36548491  0.54136547  0.15433756  1  0  0.124322  0  3.690952  0  0  0.093125  0  3.944383  0  0  0.098692  0  3.962776  0  0  0.04415  0.089114  0  3.933339  0
C  C77  1  0.63451385  0.45863441  0.84566157  1  0  0.124327  0  3.690916  0  0  0.093133  0  3.94435  0  0  0.098701  0  3.96274  0  0  0.044167  0.08913  0  3.933292  0
C  C78  1  0.85076089  0.50147653  0.12510511  1  0  -0.085633  0  3.458274  0  0  -0.125679  0  3.748288  0  0  -0.117533  0  3.749611  0  0  -0.151168  -0.1312  0  3.747273  0
C  C79  1  0.14923787  0.49852336  0.87489482  1  0  -0.085688  0  3.458293  0  0  -0.125767  0  3.748342  0  0  -0.11762  0  3.749663  0  0  -0.1512  -0.131278  0  3.747317  0
Br  Br80  1  0.92116712  0.35840155  0.04584018  1  0  -0.023583  0  1.281606  0  0  -0.011624  0  1.556344  0  0  -0.018056  0  1.548494  0  0  0.027238  -0.006321  0  1.562352  0
Br  Br81  1  0.07883079  0.64159926  0.95415907  1  0  -0.023541  0  1.281549  0  0  -0.011571  0  1.556296  0  0  -0.018004  0  1.548448  0  0  0.027263  -0.006266  0  1.562303  0
Br  Br82  1  0.71168708  0.46039627  0.21175065  1  0  -0.075129  0  1.191206  0  0  -0.051571  0  1.437172  0  0  -0.058666  0  1.427172  0  0  0.014972  -0.046779  0  1.444941  0
Br  Br83  1  0.28831097  0.53960545  0.78824882  1  0  -0.075122  0  1.191203  0  0  -0.051552  0  1.437175  0  0  -0.05865  0  1.427177  0  0  0.014974  -0.046762  0  1.444944  0
N  N84  1  0.37687537  0.89444858  0.08156652  1  0  -0.313154  0  3.343855  0  0  -0.227632  0  3.614626  0  0  -0.245671  0  3.631777  0  0  -0.331436  -0.215808  0  3.603464  0
N  N85  1  0.62312439  0.10555131  0.91843351  1  0  -0.313161  0  3.343889  0  0  -0.227636  0  3.61468  0  0  -0.245675  0  3.63183  0  0  -0.331465  -0.215815  0  3.603519  0
N  N86  1  0.35631030  0.65966680  0.20236903  1  0  -0.303775  0  3.315114  0  0  -0.219282  0  3.581979  0  0  -0.236557  0  3.597489  0  0  -0.324616  -0.207592  0  3.571419  0
N  N87  1  0.64368731  0.34033217  0.79762978  1  0  -0.303683  0  3.315032  0  0  -0.219185  0  3.581882  0  0  -0.236458  0  3.597391  0  0  -0.324585  -0.207495  0  3.571316  0
Cl  Cl88  1  0.54031795  0.92986402  0.34525643  1  0  -0.561996  0  0.91053  0  0  -0.503744  0  1.169521  0  0  -0.518443  0  1.145702  0  0  -0.327936  -0.493654  0  1.184445  0
Cl  Cl89  1  0.45968081  0.07013587  0.65474430  1  0  -0.561984  0  0.910546  0  0  -0.503737  0  1.169529  0  0  -0.518435  0  1.145707  0  0  -0.327924  -0.493639  0  1.184455  0
Cl  Cl90  1  0.62416340  0.71083238  0.06602688  1  0  -0.55176  0  0.997741  0  0  -0.490877  0  1.293091  0  0  -0.506035  0  1.269891  0  0  -0.298217  -0.479453  0  1.309227  0
Cl  Cl91  1  0.37583636  0.28916751  0.93397314  1  0  -0.551749  0  0.997732  0  0  -0.49086  0  1.293072  0  0  -0.506019  0  1.269874  0  0  -0.29821  -0.479434  0  1.309213  0
O  O92  1  0.04706454  0.14052539  0.93175871  1  0  -0.498667  0  1.971908  0  0  -0.462917  0  2.19592  0  0  -0.481409  0  2.18984  0  0  -0.272588  -0.450298  0  2.200395  0
O  O93  1  0.95293466  0.85947726  0.06824427  1  0  -0.498765  0  1.972058  0  0  -0.463012  0  2.196104  0  0  -0.481506  0  2.19002  0  0  -0.272661  -0.450394  0  2.200578  0
O  O94  1  0.13762270  0.03959932  0.78232654  1  0  -0.338343  0  2.37762  0  0  -0.265337  0  2.606623  0  0  -0.28842  0  2.608429  0  0  -0.13428  -0.249125  0  2.604686  0
O  O95  1  0.86237979  0.96040517  0.21767556  1  0  -0.338398  0  2.377616  0  0  -0.265373  0  2.606638  0  0  -0.288455  0  2.608439  0  0  -0.134364  -0.249168  0  2.60471  0
O  O96  1  0.07052292  0.40859172  0.38601408  1  0  -0.33051  0  2.299918  0  0  -0.261826  0  2.528208  0  0  -0.28258  0  2.526085  0  0  -0.13967  -0.24724  0  2.528676  0
O  O97  1  0.92947369  0.59140725  0.61398384  1  0  -0.330465  0  2.299941  0  0  -0.261831  0  2.528256  0  0  -0.282587  0  2.526131  0  0  -0.139651  -0.247247  0  2.528723  0
O  O98  1  0.16268192  0.26061269  0.27122810  1  0  -0.493133  0  1.960963  0  0  -0.455019  0  2.171845  0  0  -0.473717  0  2.164178  0  0  -0.257779  -0.442158  0  2.176765  0
O  O99  1  0.83731784  0.73938720  0.72877192  1  0  -0.493131  0  1.960861  0  0  -0.455007  0  2.171768  0  0  -0.473708  0  2.1641  0  0  -0.257773  -0.442144  0  2.176682  0
