# generated using pymatgen
data_Zn2B8H22C6N4O15
_symmetry_space_group_name_H-M   'P 1'
_cell_length_a   8.15341518
_cell_length_b   10.76739168
_cell_length_c   11.45366967
_cell_angle_alpha   89.47278964
_cell_angle_beta   90.00002238
_cell_angle_gamma   90.00007707
_symmetry_Int_Tables_number   1
_chemical_formula_structural   Zn2B8H22C6N4O15
_chemical_formula_sum   'Zn4 B16 H44 C12 N8 O30'
_cell_volume   1005.48671519
_cell_formula_units_Z   2
loop_
 _symmetry_equiv_pos_site_id
 _symmetry_equiv_pos_as_xyz
  1  'x, y, z'
loop_
 _atom_site_type_symbol
 _atom_site_label
 _atom_site_symmetry_multiplicity
 _atom_site_fract_x
 _atom_site_fract_y
 _atom_site_fract_z
 _atom_site_occupancy
 _atom_site_hle17_bader_spin_density
 _atom_site_hle17_ddec_charge
 _atom_site_hle17_ddec_spin_density
 _atom_site_hle17_ddec_sum_bond_order
 _atom_site_hle17_magmom
 _atom_site_hse06_10hf_bader_spin_density
 _atom_site_hse06_10hf_ddec_charge
 _atom_site_hse06_10hf_ddec_spin_density
 _atom_site_hse06_10hf_ddec_sum_bond_order
 _atom_site_hse06_10hf_magmom
 _atom_site_hse06_bader_spin_density
 _atom_site_hse06_ddec_charge
 _atom_site_hse06_ddec_spin_density
 _atom_site_hse06_ddec_sum_bond_order
 _atom_site_hse06_magmom
 _atom_site_pbe_bader_spin_density
 _atom_site_pbe_cm5_charge
 _atom_site_pbe_ddec_charge
 _atom_site_pbe_ddec_spin_density
 _atom_site_pbe_ddec_sum_bond_order
 _atom_site_pbe_magmom
Zn  Zn0  1  0.74054753  0.10065146  0.34658148  1  0  1.11835  0  1.703181  0  0  0.928177  0  2.16294  0  0  0.971741  0  2.110228  0  0  0.768033  0.897605  0  2.199089  0
Zn  Zn1  1  0.24054622  0.39934954  0.15341774  1  0  1.118352  0  1.703224  0  0  0.928161  0  2.162988  0  0  0.97173  0  2.110279  0  0  0.768112  0.897685  0  2.199123  0
Zn  Zn2  1  0.25945299  0.89934910  0.65341858  1  0  1.118363  0  1.703243  0  0  0.928169  0  2.163009  0  0  0.971742  0  2.110292  0  0  0.768064  0.897653  0  2.199142  0
Zn  Zn3  1  0.75945307  0.60065103  0.84658145  1  0  1.118371  0  1.703226  0  0  0.928194  0  2.162988  0  0  0.971761  0  2.110274  0  0  0.768018  0.897602  0  2.19914  0
B  B4  1  0.02786106  0.28918166  0.32795255  1  0  1.218017  0  2.772911  0  0  1.044946  0  3.112416  0  0  1.078164  0  3.085915  0  0  0.065803  1.02196  0  3.130499  0
B  B5  1  0.52786002  0.21081819  0.17204662  1  0  1.218051  0  2.772847  0  0  1.044993  0  3.112304  0  0  1.078212  0  3.085796  0  0  0.065797  1.021993  0  3.13043  0
B  B6  1  0.97213823  0.71081891  0.67204664  1  0  1.21804  0  2.772878  0  0  1.044986  0  3.112338  0  0  1.078211  0  3.085824  0  0  0.065794  1.02198  0  3.130477  0
B  B7  1  0.47213928  0.78918143  0.82795432  1  0  1.218011  0  2.772861  0  0  1.044944  0  3.112377  0  0  1.078168  0  3.08587  0  0  0.065791  1.02196  0  3.130469  0
B  B8  1  0.07201912  0.10929433  0.45744689  1  0  1.241159  0  2.76908  0  0  1.066617  0  3.116428  0  0  1.100896  0  3.087716  0  0  0.073934  1.04305  0  3.135534  0
B  B9  1  0.57201955  0.39070650  0.04255229  1  0  1.241183  0  2.769013  0  0  1.066709  0  3.11617  0  0  1.100988  0  3.087458  0  0  0.073926  1.043122  0  3.135302  0
B  B10  1  0.92798018  0.89070624  0.54255230  1  0  1.241166  0  2.768979  0  0  1.066683  0  3.116164  0  0  1.100961  0  3.087453  0  0  0.073888  1.0431  0  3.135286  0
B  B11  1  0.42798097  0.60929406  0.95744777  1  0  1.241222  0  2.768908  0  0  1.066691  0  3.116254  0  0  1.100972  0  3.087539  0  0  0.07393  1.043099  0  3.135398  0
B  B12  1  0.29062446  0.16522452  0.31337237  1  0  1.186347  0  2.838643  0  0  1.024632  0  3.165807  0  0  1.067985  0  3.12247  0  0  0.12522  0.993954  0  3.196497  0
B  B13  1  0.79062487  0.33477560  0.18662686  1  0  1.186376  0  2.838629  0  0  1.024644  0  3.165831  0  0  1.067997  0  3.122498  0  0  0.125247  0.993997  0  3.196489  0
B  B14  1  0.70937361  0.83477604  0.68662769  1  0  1.186471  0  2.838431  0  0  1.024762  0  3.165598  0  0  1.068124  0  3.122253  0  0  0.125292  0.994101  0  3.196293  0
B  B15  1  0.20937443  0.66522404  0.81337233  1  0  1.18644  0  2.838502  0  0  1.024736  0  3.165659  0  0  1.068096  0  3.122316  0  0  0.125271  0.994074  0  3.196338  0
B  B16  1  0.07215425  0.32528333  0.53755570  1  0  1.146862  0  2.911963  0  0  0.987923  0  3.249572  0  0  1.030131  0  3.206245  0  0  0.095049  0.957243  0  3.282092  0
B  B17  1  0.57215330  0.17471731  0.96244371  1  0  1.146855  0  2.911889  0  0  0.98791  0  3.249518  0  0  1.030119  0  3.206188  0  0  0.095032  0.957212  0  3.282038  0
B  B18  1  0.92784628  0.67471724  0.46244348  1  0  1.146876  0  2.911887  0  0  0.987931  0  3.249509  0  0  1.03014  0  3.20618  0  0  0.095051  0.957258  0  3.282018  0
B  B19  1  0.42784600  0.82528231  0.03755722  1  0  1.146853  0  2.91193  0  0  0.987915  0  3.249539  0  0  1.030125  0  3.20621  0  0  0.095034  0.957226  0  3.28205  0
H  H20  1  0.04076143  0.48804486  0.61169617  1  0  0.430039  0  0.874845  0  0  0.396344  0  0.942419  0  0  0.40741  0  0.926434  0  0  0.317523  0.388732  0  0.953368  0
H  H21  1  0.54076138  0.01195575  0.88830324  1  0  0.430018  0  0.874886  0  0  0.39636  0  0.942416  0  0  0.407429  0  0.926424  0  0  0.317517  0.388755  0  0.953359  0
H  H22  1  0.95923909  0.51195477  0.38830389  1  0  0.430035  0  0.874853  0  0  0.396339  0  0.94243  0  0  0.407405  0  0.926444  0  0  0.317516  0.388734  0  0.95337  0
H  H23  1  0.45923792  0.98804574  0.11169683  1  0  0.430008  0  0.874891  0  0  0.396351  0  0.942421  0  0  0.40742  0  0.92643  0  0  0.317507  0.388739  0  0.953373  0
H  H24  1  0.79323656  0.87240825  0.32663199  1  0  0.317402  0  0.930702  0  0  0.301425  0  0.988885  0  0  0.30909  0  0.983447  0  0  0.295724  0.296035  0  0.992665  0
H  H25  1  0.29323723  0.62759210  0.17336781  1  0  0.317405  0  0.930707  0  0  0.301423  0  0.988893  0  0  0.309091  0  0.983453  0  0  0.295707  0.296023  0  0.992676  0
H  H26  1  0.20676274  0.12759139  0.67336720  1  0  0.317398  0  0.930727  0  0  0.301417  0  0.98891  0  0  0.309082  0  0.983475  0  0  0.295719  0.296031  0  0.992684  0
H  H27  1  0.70676329  0.37240846  0.82663226  1  0  0.31739  0  0.930731  0  0  0.301408  0  0.988919  0  0  0.309073  0  0.983482  0  0  0.295701  0.296  0  0.992708  0
H  H28  1  0.65939327  0.91383525  0.22073597  1  0  0.298726  0  0.922413  0  0  0.287368  0  0.980175  0  0  0.293382  0  0.976404  0  0  0.294641  0.283062  0  0.982937  0
H  H29  1  0.15939270  0.58616497  0.27926379  1  0  0.298721  0  0.922423  0  0  0.287353  0  0.980202  0  0  0.293369  0  0.976429  0  0  0.294623  0.283039  0  0.982965  0
H  H30  1  0.34060725  0.08616439  0.77926322  1  0  0.298732  0  0.922418  0  0  0.287368  0  0.980183  0  0  0.293383  0  0.976412  0  0  0.294641  0.283063  0  0.982943  0
H  H31  1  0.84060660  0.41383559  0.72073627  1  0  0.298731  0  0.922421  0  0  0.287364  0  0.980198  0  0  0.293378  0  0.976426  0  0  0.294633  0.28305  0  0.98296  0
H  H32  1  0.00003149  0.62916266  0.98692526  1  0  0.294679  0  0.906773  0  0  0.286626  0  0.959585  0  0  0.292145  0  0.956281  0  0  0.302307  0.282696  0  0.961997  0
H  H33  1  0.50003187  0.87083813  0.51307470  1  0  0.294663  0  0.906785  0  0  0.286621  0  0.959585  0  0  0.292139  0  0.956281  0  0  0.302302  0.282693  0  0.961994  0
H  H34  1  0.99996904  0.37083791  0.01307393  1  0  0.294697  0  0.90675  0  0  0.286645  0  0.959563  0  0  0.292164  0  0.956258  0  0  0.302332  0.282734  0  0.961967  0
H  H35  1  0.49996865  0.12916243  0.48692536  1  0  0.294678  0  0.906765  0  0  0.286633  0  0.959572  0  0  0.292151  0  0.95627  0  0  0.302298  0.282691  0  0.961989  0
H  H36  1  0.83957999  0.56816701  0.05800991  1  0  0.321031  0  0.908907  0  0  0.307402  0  0.962921  0  0  0.314867  0  0.957349  0  0  0.299128  0.302106  0  0.966898  0
H  H37  1  0.33958012  0.93183339  0.44198990  1  0  0.321021  0  0.908915  0  0  0.307393  0  0.962927  0  0  0.314859  0  0.957355  0  0  0.299121  0.302095  0  0.966906  0
H  H38  1  0.16042053  0.43183263  0.94198928  1  0  0.321037  0  0.908947  0  0  0.307413  0  0.962948  0  0  0.314877  0  0.95738  0  0  0.299128  0.302121  0  0.966922  0
H  H39  1  0.66042040  0.06816717  0.55801016  1  0  0.321041  0  0.90893  0  0  0.307415  0  0.962939  0  0  0.314881  0  0.957367  0  0  0.299126  0.302108  0  0.966919  0
H  H40  1  0.01253923  0.97901510  0.22748600  1  0  0.074156  0  0.922088  0  0  0.091354  0  0.981063  0  0  0.092473  0  0.98026  0  0  0.114817  0.090452  0  0.981765  0
H  H41  1  0.51253914  0.52098589  0.27251373  1  0  0.074216  0  0.922094  0  0  0.091346  0  0.9811  0  0  0.092465  0  0.980296  0  0  0.114793  0.090419  0  0.981806  0
H  H42  1  0.98746129  0.02098545  0.77251407  1  0  0.07419  0  0.922085  0  0  0.091363  0  0.981048  0  0  0.092482  0  0.980244  0  0  0.114843  0.090479  0  0.981755  0
H  H43  1  0.48746016  0.47901374  0.72748633  1  0  0.07418  0  0.922102  0  0  0.091348  0  0.981063  0  0  0.092467  0  0.98026  0  0  0.114816  0.090441  0  0.981772  0
H  H44  1  0.87813881  0.00447590  0.10797297  1  0  0.053458  0  0.918707  0  0  0.073851  0  0.976722  0  0  0.073834  0  0.977377  0  0  0.104923  0.073775  0  0.976375  0
H  H45  1  0.37813780  0.49552430  0.39202716  1  0  0.053478  0  0.918729  0  0  0.073852  0  0.976718  0  0  0.073834  0  0.977373  0  0  0.104904  0.073757  0  0.976365  0
H  H46  1  0.12186172  0.99552374  0.89202621  1  0  0.053478  0  0.918726  0  0  0.073846  0  0.976728  0  0  0.073827  0  0.977385  0  0  0.10493  0.073783  0  0.976373  0
H  H47  1  0.62186027  0.50447532  0.60797378  1  0  0.053499  0  0.918718  0  0  0.073862  0  0.976717  0  0  0.073844  0  0.977372  0  0  0.104935  0.07379  0  0.97636  0
H  H48  1  0.71020983  0.75509735  0.08041582  1  0  0.062899  0  0.941805  0  0  0.085099  0  0.996824  0  0  0.085568  0  0.996783  0  0  0.119531  0.08476  0  0.996877  0
H  H49  1  0.21020962  0.74490291  0.41958483  1  0  0.062911  0  0.9418  0  0  0.085115  0  0.996827  0  0  0.085585  0  0.996785  0  0  0.119518  0.084755  0  0.996886  0
H  H50  1  0.28978946  0.24490320  0.91958512  1  0  0.062848  0  0.941924  0  0  0.085092  0  0.996887  0  0  0.08556  0  0.996846  0  0  0.119527  0.084752  0  0.996942  0
H  H51  1  0.78978968  0.25509765  0.58041523  1  0  0.062921  0  0.941809  0  0  0.085113  0  0.99682  0  0  0.085582  0  0.996778  0  0  0.119527  0.084758  0  0.996877  0
H  H52  1  0.82718812  0.82694784  0.96895905  1  0  0.052987  0  0.916893  0  0  0.073123  0  0.975488  0  0  0.073301  0  0.975686  0  0  0.10696  0.072873  0  0.975509  0
H  H53  1  0.32718879  0.67305235  0.53104187  1  0  0.05303  0  0.916867  0  0  0.073173  0  0.975461  0  0  0.073351  0  0.97566  0  0  0.106981  0.072911  0  0.975476  0
H  H54  1  0.17281241  0.17305271  0.03104188  1  0  0.053007  0  0.916874  0  0  0.07314  0  0.97548  0  0  0.073318  0  0.975677  0  0  0.10697  0.072894  0  0.975492  0
H  H55  1  0.67281173  0.32694820  0.46895907  1  0  0.053001  0  0.916901  0  0  0.073131  0  0.975486  0  0  0.073308  0  0.975683  0  0  0.106958  0.072877  0  0.975504  0
H  H56  1  0.96411451  0.74610451  0.20795216  1  0  0.096284  0  0.948332  0  0  0.11506  0  1.00381  0  0  0.116301  0  1.004294  0  0  0.100914  0.114038  0  1.00367  0
H  H57  1  0.46411424  0.75389600  0.29204855  1  0  0.0963  0  0.94826  0  0  0.115052  0  1.003787  0  0  0.116294  0  1.00427  0  0  0.100896  0.11402  0  1.003659  0
H  H58  1  0.03588602  0.25389512  0.79204790  1  0  0.096289  0  0.948288  0  0  0.115054  0  1.003777  0  0  0.116295  0  1.00426  0  0  0.100909  0.114029  0  1.003637  0
H  H59  1  0.53588628  0.24610362  0.70795238  1  0  0.096288  0  0.948324  0  0  0.11506  0  1.003815  0  0  0.116301  0  1.004299  0  0  0.100894  0.114019  0  1.003688  0
H  H60  1  0.07767986  0.81882027  0.09458971  1  0  0.076279  0  0.940086  0  0  0.094906  0  0.998991  0  0  0.095801  0  0.998999  0  0  0.097145  0.094264  0  0.998974  0
H  H61  1  0.57768012  0.68117985  0.40541091  1  0  0.076252  0  0.940028  0  0  0.094856  0  0.998984  0  0  0.095751  0  0.99899  0  0  0.097115  0.094204  0  0.99897  0
H  H62  1  0.92231944  0.18117935  0.90541123  1  0  0.076265  0  0.940063  0  0  0.09488  0  0.998984  0  0  0.095775  0  0.99899  0  0  0.097127  0.094236  0  0.998966  0
H  H63  1  0.42231918  0.31881978  0.59458916  1  0  0.076283  0  0.940089  0  0  0.094915  0  0.998993  0  0  0.095811  0  0.999001  0  0  0.097144  0.094273  0  0.998978  0
C  C64  1  0.90777754  0.94000847  0.18007961  1  0  0.094597  0  3.605934  0  0  0.035791  0  3.875769  0  0  0.040462  0  3.887593  0  0  -0.067155  0.032686  0  3.867639  0
C  C65  1  0.40777695  0.55999107  0.31992022  1  0  0.094477  0  3.606141  0  0  0.035815  0  3.875796  0  0  0.040489  0  3.887621  0  0  -0.067131  0.032719  0  3.867648  0
C  C66  1  0.09222298  0.05999116  0.81992045  1  0  0.094528  0  3.606077  0  0  0.035819  0  3.875754  0  0  0.04049  0  3.887578  0  0  -0.067131  0.032716  0  3.867623  0
C  C67  1  0.59222235  0.44000856  0.68007985  1  0  0.094522  0  3.606063  0  0  0.035846  0  3.875714  0  0  0.040517  0  3.887538  0  0  -0.067126  0.032736  0  3.867587  0
C  C68  1  0.83418978  0.76221642  0.04376613  1  0  0.094956  0  3.619765  0  0  0.035399  0  3.885927  0  0  0.040163  0  3.898363  0  0  -0.068851  0.03225  0  3.877281  0
C  C69  1  0.33418957  0.73778398  0.45623369  1  0  0.094868  0  3.619741  0  0  0.035279  0  3.88596  0  0  0.040042  0  3.898396  0  0  -0.068869  0.032152  0  3.877302  0
C  C70  1  0.16581075  0.23778321  0.95623394  1  0  0.094947  0  3.61987  0  0  0.035351  0  3.886017  0  0  0.04012  0  3.898446  0  0  -0.068857  0.032209  0  3.877363  0
C  C71  1  0.66581095  0.26221658  0.54376638  1  0  0.094888  0  3.61988  0  0  0.035373  0  3.88599  0  0  0.040141  0  3.898417  0  0  -0.068862  0.032228  0  3.877341  0
C  C72  1  0.95454555  0.81170254  0.13393226  1  0  -0.184876  0  3.665842  0  0  -0.220345  0  3.922258  0  0  -0.223504  0  3.937184  0  0  -0.167247  -0.217919  0  3.911879  0
C  C73  1  0.45454521  0.68829703  0.36606845  1  0  -0.184795  0  3.665673  0  0  -0.220268  0  3.922088  0  0  -0.223426  0  3.937015  0  0  -0.167267  -0.217874  0  3.911725  0
C  C74  1  0.04545498  0.18829616  0.86606780  1  0  -0.184862  0  3.665782  0  0  -0.22033  0  3.922155  0  0  -0.223491  0  3.937082  0  0  -0.167261  -0.217911  0  3.911775  0
C  C75  1  0.54545409  0.31170259  0.63393248  1  0  -0.184875  0  3.665866  0  0  -0.220401  0  3.922252  0  0  -0.223562  0  3.937179  0  0  -0.167279  -0.217984  0  3.911886  0
N  N76  1  0.76627244  0.93830046  0.26241580  1  0  -0.657027  0  3.077684  0  0  -0.590195  0  3.347934  0  0  -0.610514  0  3.340885  0  0  -0.626209  -0.576089  0  3.352707  0
N  N77  1  0.26627303  0.56169893  0.23758399  1  0  -0.657017  0  3.077862  0  0  -0.590183  0  3.34805  0  0  -0.610509  0  3.341009  0  0  -0.626204  -0.576107  0  3.352832  0
N  N78  1  0.23372686  0.06169917  0.73758426  1  0  -0.657024  0  3.077841  0  0  -0.590188  0  3.348032  0  0  -0.610508  0  3.340985  0  0  -0.626196  -0.576087  0  3.352799  0
N  N79  1  0.73372627  0.43830070  0.76241607  1  0  -0.657018  0  3.077809  0  0  -0.590201  0  3.348006  0  0  -0.610516  0  3.340952  0  0  -0.626218  -0.576097  0  3.352786  0
N  N80  1  0.87576024  0.63668100  0.99932303  1  0  -0.649695  0  3.090564  0  0  -0.584442  0  3.359454  0  0  -0.604199  0  3.35285  0  0  -0.619612  -0.570718  0  3.363862  0
N  N81  1  0.37576001  0.86331925  0.50067703  1  0  -0.649667  0  3.090565  0  0  -0.58441  0  3.359451  0  0  -0.604166  0  3.352848  0  0  -0.6196  -0.570687  0  3.363853  0
N  N82  1  0.12424029  0.36331865  0.00067528  1  0  -0.649687  0  3.090587  0  0  -0.584444  0  3.359492  0  0  -0.604202  0  3.352886  0  0  -0.619605  -0.570729  0  3.363894  0
N  N83  1  0.62424052  0.13668130  0.49932391  1  0  -0.649679  0  3.090594  0  0  -0.584455  0  3.359465  0  0  -0.604213  0  3.35286  0  0  -0.619616  -0.570727  0  3.36387  0
O  O84  1  0.96406130  0.17024048  0.36787285  1  0  -0.966586  0  2.235991  0  0  -0.83166  0  2.522218  0  0  -0.861162  0  2.501824  0  0  -0.2343  -0.810901  0  2.535445  0
O  O85  1  0.46405986  0.32975979  0.13212818  1  0  -0.966599  0  2.235946  0  0  -0.831659  0  2.522123  0  0  -0.861168  0  2.501741  0  0  -0.234292  -0.810926  0  2.535375  0
O  O86  1  0.03593922  0.82976007  0.63212808  1  0  -0.966596  0  2.235948  0  0  -0.831673  0  2.522159  0  0  -0.861181  0  2.501771  0  0  -0.234212  -0.810901  0  2.535395  0
O  O87  1  0.53593944  0.67024076  0.86787276  1  0  -0.966601  0  2.235981  0  0  -0.831694  0  2.522221  0  0  -0.861202  0  2.501833  0  0  -0.234239  -0.810916  0  2.535445  0
O  O88  1  0.19619417  0.26636162  0.27750443  1  0  -0.895504  0  2.219991  0  0  -0.760838  0  2.500387  0  0  -0.790992  0  2.474319  0  0  -0.201484  -0.739574  0  2.51749  0
O  O89  1  0.69619442  0.23363656  0.22249391  1  0  -0.895515  0  2.21995  0  0  -0.760847  0  2.500352  0  0  -0.790999  0  2.474277  0  0  -0.201496  -0.739615  0  2.51748  0
O  O90  1  0.80380635  0.73363802  0.72249476  1  0  -0.895521  0  2.219957  0  0  -0.76085  0  2.500349  0  0  -0.791003  0  2.474273  0  0  -0.201479  -0.739589  0  2.517466  0
O  O91  1  0.30380487  0.76636215  0.77750528  1  0  -0.895507  0  2.219941  0  0  -0.760836  0  2.500339  0  0  -0.790987  0  2.474256  0  0  -0.201472  -0.739572  0  2.517444  0
O  O92  1  0.94052405  0.35400651  0.23566631  1  0  -0.873762  0  2.145407  0  0  -0.762688  0  2.421983  0  0  -0.78903  0  2.395451  0  0  -0.194252  -0.744158  0  2.439717  0
O  O93  1  0.44052481  0.14599376  0.26433384  1  0  -0.873771  0  2.145383  0  0  -0.762711  0  2.421971  0  0  -0.789042  0  2.39543  0  0  -0.194287  -0.744183  0  2.439712  0
O  O94  1  0.05947647  0.64599221  0.76433201  1  0  -0.873794  0  2.145363  0  0  -0.762751  0  2.421959  0  0  -0.789107  0  2.395433  0  0  -0.194299  -0.744222  0  2.439704  0
O  O95  1  0.55947694  0.85400864  0.73566797  1  0  -0.873782  0  2.145293  0  0  -0.762723  0  2.42188  0  0  -0.789084  0  2.395359  0  0  -0.194307  -0.744229  0  2.439643  0
O  O96  1  0.04270893  0.37519269  0.42774290  1  0  -0.894066  0  2.148122  0  0  -0.778962  0  2.398897  0  0  -0.80683  0  2.377052  0  0  -0.202437  -0.759151  0  2.413128  0
O  O97  1  0.54270646  0.12480623  0.07225801  1  0  -0.894065  0  2.148046  0  0  -0.778972  0  2.398821  0  0  -0.806849  0  2.376994  0  0  -0.202398  -0.759131  0  2.413025  0
O  O98  1  0.95729159  0.62480600  0.57225803  1  0  -0.894088  0  2.148047  0  0  -0.778981  0  2.398811  0  0  -0.806851  0  2.376973  0  0  -0.202453  -0.759156  0  2.413016  0
O  O99  1  0.45729284  0.87519433  0.92774205  1  0  -0.89406  0  2.148016  0  0  -0.778962  0  2.398788  0  0  -0.806828  0  2.37694  0  0  -0.202451  -0.759158  0  2.413017  0
O  O100  1  0.06925740  0.40072002  0.63421149  1  0  -0.827421  0  1.942551  0  0  -0.756524  0  2.167816  0  0  -0.778917  0  2.137687  0  0  -0.383503  -0.740455  0  2.188223  0
O  O101  1  0.56925626  0.09928063  0.86578705  1  0  -0.827398  0  1.942581  0  0  -0.756554  0  2.167793  0  0  -0.778946  0  2.137663  0  0  -0.38349  -0.740476  0  2.188191  0
O  O102  1  0.93074313  0.59928055  0.36578770  1  0  -0.827413  0  1.942522  0  0  -0.756526  0  2.167796  0  0  -0.778918  0  2.137666  0  0  -0.383521  -0.740503  0  2.188219  0
O  O103  1  0.43074426  0.90071994  0.13421214  1  0  -0.827393  0  1.942606  0  0  -0.756541  0  2.167807  0  0  -0.778935  0  2.137678  0  0  -0.383502  -0.740493  0  2.18823  0
O  O104  1  0.10146579  0.20115039  0.55372514  1  0  -0.885007  0  2.121519  0  0  -0.771918  0  2.375737  0  0  -0.800086  0  2.354436  0  0  -0.20362  -0.752079  0  2.389844  0
O  O105  1  0.60146628  0.29885027  0.94627515  1  0  -0.885  0  2.121526  0  0  -0.771914  0  2.375731  0  0  -0.800084  0  2.354429  0  0  -0.203566  -0.752005  0  2.389804  0
O  O106  1  0.89853351  0.79884924  0.44627492  1  0  -0.885027  0  2.121554  0  0  -0.771929  0  2.375747  0  0  -0.800103  0  2.354451  0  0  -0.203562  -0.752044  0  2.389826  0
O  O107  1  0.39853302  0.70115122  0.05372491  1  0  -0.885027  0  2.121542  0  0  -0.771927  0  2.375745  0  0  -0.800101  0  2.354447  0  0  -0.203583  -0.752052  0  2.389828  0
O  O108  1  0.99999950  0.00000043  0.49999894  1  0  -0.919477  0  2.134414  0  0  -0.808272  0  2.424838  0  0  -0.833652  0  2.401224  0  0  -0.218286  -0.790489  0  2.44051  0
O  O109  1  0.50000074  0.49999990  0.00000035  1  0  -0.919511  0  2.134392  0  0  -0.808316  0  2.424813  0  0  -0.833697  0  2.4012  0  0  -0.218254  -0.790471  0  2.440479  0
O  O110  1  0.23710451  0.08659715  0.40004703  1  0  -0.884564  0  2.06681  0  0  -0.774355  0  2.322226  0  0  -0.801676  0  2.29817  0  0  -0.203866  -0.755275  0  2.338349  0
O  O111  1  0.73710256  0.41340291  0.09995306  1  0  -0.88457  0  2.066833  0  0  -0.774368  0  2.322246  0  0  -0.801687  0  2.298184  0  0  -0.203876  -0.755301  0  2.338368  0
O  O112  1  0.76289724  0.91340248  0.59995303  1  0  -0.884624  0  2.066777  0  0  -0.774429  0  2.322194  0  0  -0.801747  0  2.298126  0  0  -0.203896  -0.755352  0  2.338331  0
O  O113  1  0.26289674  0.58659766  0.90004613  1  0  -0.884624  0  2.066767  0  0  -0.774417  0  2.32218  0  0  -0.801735  0  2.298116  0  0  -0.203874  -0.755334  0  2.33831  0
