# generated using pymatgen
data_MnH12C16(N4O)2
_symmetry_space_group_name_H-M   'P 1'
_cell_length_a   7.10970430
_cell_length_b   10.23239038
_cell_length_c   12.25444585
_cell_angle_alpha   89.99999552
_cell_angle_beta   89.99995267
_cell_angle_gamma   103.82183214
_symmetry_Int_Tables_number   1
_chemical_formula_structural   MnH12C16(N4O)2
_chemical_formula_sum   'Mn2 H24 C32 N16 O4'
_cell_volume   865.68704935
_cell_formula_units_Z   2
loop_
 _symmetry_equiv_pos_site_id
 _symmetry_equiv_pos_as_xyz
  1  'x, y, z'
loop_
 _atom_site_type_symbol
 _atom_site_label
 _atom_site_symmetry_multiplicity
 _atom_site_fract_x
 _atom_site_fract_y
 _atom_site_fract_z
 _atom_site_occupancy
 _atom_site_pbe_cm5_charge
 _atom_site_pbe_ddec_charge
 _atom_site_pbe_ddec_spin_density
 _atom_site_pbe_ddec_sum_bond_order
 _atom_site_pbe_magmom
Mn  Mn0  1  0.99999802  0.99999882  0.99999925  1  0.650813  1.012639  -4.587214  2.571705  -4.389
Mn  Mn1  1  0.49999725  0.49999841  0.50000044  1  0.650815  1.012635  -4.587251  2.571558  -4.389
H  H2  1  0.96843570  0.21975231  0.20197054  1  0.130826  0.115101  -0.000128  1.005237  0.0
H  H3  1  0.46843376  0.71975018  0.29802966  1  0.13084  0.115114  -0.000128  1.005243  0.0
H  H4  1  0.03156444  0.78024851  0.79802870  1  0.130825  0.115086  -0.000128  1.005247  0.0
H  H5  1  0.53156636  0.28024661  0.70197367  1  0.130833  0.115132  -0.000128  1.005216  0.0
H  H6  1  0.85159832  0.20955748  0.39744249  1  0.115863  0.133004  8.5e-05  0.987146  0.0
H  H7  1  0.35159739  0.70955742  0.10255859  1  0.11589  0.133048  8.5e-05  0.987098  0.0
H  H8  1  0.14840392  0.79044131  0.60255758  1  0.115881  0.133053  8.5e-05  0.987082  0.0
H  H9  1  0.64840765  0.29044135  0.89744311  1  0.11586  0.133017  8.5e-05  0.987102  0.0
H  H10  1  0.57016155  0.15331143  0.52056522  1  0.094927  0.100936  0.000291  1.020926  0.0
H  H11  1  0.07016006  0.65331528  0.97943470  1  0.094915  0.100901  0.000291  1.020899  0.0
H  H12  1  0.42984209  0.84668736  0.47943403  1  0.094915  0.10091  0.000291  1.020923  0.0
H  H13  1  0.92984467  0.34669056  0.02056455  1  0.094898  0.100897  0.000291  1.020959  0.0
H  H14  1  0.33940131  0.07077698  0.46988326  1  0.095505  0.103624  -0.000433  0.984075  0.0
H  H15  1  0.83940037  0.57077857  0.03011620  1  0.095506  0.103619  -0.000433  0.984055  0.0
H  H16  1  0.66059951  0.92922182  0.53011762  1  0.095497  0.103632  -0.000433  0.984032  0.0
H  H17  1  0.16060261  0.42922627  0.96988224  1  0.095498  0.103652  -0.000433  0.984042  0.0
H  H18  1  0.31677795  0.94938459  0.28599976  1  0.108653  0.117985  -7e-05  1.043275  0.0
H  H19  1  0.81677600  0.44938372  0.21399886  1  0.108631  0.117963  -7e-05  1.043274  0.0
H  H20  1  0.68321834  0.05061726  0.71400030  1  0.108659  0.118007  -7e-05  1.043296  0.0
H  H21  1  0.18322100  0.55062014  0.78599794  1  0.108648  0.117995  -7e-05  1.043315  0.0
H  H22  1  0.45148105  0.97219797  0.09573491  1  0.131048  0.121954  0.000347  1.025031  0.0
H  H23  1  0.95147635  0.47219806  0.40426447  1  0.131039  0.121937  0.000347  1.025043  0.0
H  H24  1  0.54851873  0.02780185  0.90426516  1  0.131041  0.121948  0.000347  1.025048  0.0
H  H25  1  0.04851710  0.52779978  0.59573315  1  0.13104  0.121949  0.000347  1.025032  0.0
C  C26  1  0.82624685  0.16266212  0.22759801  1  0.037887  -0.043172  -0.016148  3.890518  -0.013
C  C27  1  0.32624390  0.66266101  0.27240144  1  0.037889  -0.043161  -0.016145  3.890565  -0.013
C  C28  1  0.17375153  0.83733770  0.77240123  1  0.03787  -0.043144  -0.016147  3.890507  -0.013
C  C29  1  0.67375412  0.33733781  0.72759944  1  0.037871  -0.043242  -0.016145  3.890598  -0.013
C  C30  1  0.75870761  0.15402703  0.33381499  1  -0.076001  -0.152576  0.005547  3.95102  0.005
C  C31  1  0.25870939  0.65402694  0.16618450  1  -0.076001  -0.152595  0.005547  3.950991  0.005
C  C32  1  0.24129077  0.84597279  0.66618507  1  -0.075998  -0.152601  0.005547  3.95096  0.005
C  C33  1  0.74129251  0.34597488  0.83381638  1  -0.076008  -0.152575  0.005547  3.951  0.005
C  C34  1  0.57229089  0.07765579  0.35865255  1  0.008398  0.155176  -0.019071  3.940694  -0.016
C  C35  1  0.07228849  0.57765573  0.14134621  1  0.008377  0.155124  -0.01907  3.940826  -0.016
C  C36  1  0.42770925  0.92234503  0.64134669  1  0.008384  0.155139  -0.019071  3.940726  -0.016
C  C37  1  0.92771272  0.42234811  0.85865222  1  0.008376  0.155155  -0.019069  3.94083  -0.016
C  C38  1  0.49248461  0.06652358  0.47237783  1  -0.157477  -0.194324  -0.001469  3.91851  -0.001
C  C39  1  0.99248543  0.56652616  0.02762155  1  -0.15742  -0.194187  -0.001468  3.918525  -0.001
C  C40  1  0.50751586  0.93347422  0.52762305  1  -0.157446  -0.19428  -0.001469  3.918461  -0.001
C  C41  1  0.00751895  0.43347867  0.97237606  1  -0.157445  -0.194337  -0.001469  3.918584  -0.001
C  C42  1  0.46251948  0.00996684  0.27187020  1  -0.082898  -0.169269  0.004531  3.970482  0.004
C  C43  1  0.96251611  0.50996635  0.22812839  1  -0.082858  -0.169216  0.00453  3.970528  0.004
C  C44  1  0.53748066  0.99003399  0.72813068  1  -0.082893  -0.169262  0.004531  3.970509  0.004
C  C45  1  0.03748018  0.49003550  0.77186923  1  -0.082856  -0.169263  0.00453  3.970482  0.004
C  C46  1  0.53313916  0.01980074  0.16634930  1  0.041071  -0.031127  -0.014237  3.860268  -0.011
C  C47  1  0.03313507  0.51980063  0.33364949  1  0.041044  -0.031151  -0.014237  3.860359  -0.011
C  C48  1  0.46685853  0.98020110  0.83365077  1  0.041067  -0.031146  -0.014237  3.860335  -0.011
C  C49  1  0.96685910  0.48019922  0.66634812  1  0.041079  -0.031124  -0.014237  3.860252  -0.011
C  C50  1  0.66010207  0.74371705  0.90264447  1  0.309643  0.448422  -0.021309  4.270649  -0.021
C  C51  1  0.16011097  0.24371655  0.59735622  1  0.309635  0.448299  -0.021299  4.270566  -0.021
C  C52  1  0.33989945  0.25627973  0.09735641  1  0.309523  0.448343  -0.021307  4.270672  -0.021
C  C53  1  0.83990852  0.75629121  0.40264058  1  0.309427  0.448203  -0.021309  4.270671  -0.021
C  C54  1  0.52850348  0.61928026  0.75259692  1  0.309472  0.442162  -0.024243  4.271406  -0.024
C  C55  1  0.02850791  0.11927570  0.74740221  1  0.309365  0.442078  -0.024247  4.271352  -0.024
C  C56  1  0.47149663  0.38071653  0.24740396  1  0.309422  0.442087  -0.024244  4.271232  -0.024
C  C57  1  0.97149116  0.88072210  0.25259378  1  0.309537  0.442236  -0.024246  4.270973  -0.024
N  N58  1  0.71323047  0.09720842  0.14500190  1  -0.116411  0.310363  -0.00463  3.97293  -0.005
N  N59  1  0.21322703  0.59720627  0.35499599  1  -0.11637  0.31042  -0.004629  3.972862  -0.005
N  N60  1  0.28676826  0.90279241  0.85499817  1  -0.1164  0.310346  -0.004629  3.972919  -0.005
N  N61  1  0.78676782  0.40279155  0.64500408  1  -0.116395  0.310381  -0.00463  3.97291  -0.005
N  N62  1  0.76662301  0.82696217  0.95420695  1  -0.364653  -0.546305  -0.035752  3.130578  -0.013
N  N63  1  0.26662492  0.32695366  0.54579694  1  -0.364609  -0.546143  -0.035751  3.130809  -0.013
N  N64  1  0.23337782  0.17303663  0.04579230  1  -0.364563  -0.546256  -0.035751  3.130528  -0.013
N  N65  1  0.73337308  0.67304112  0.45420475  1  -0.364566  -0.546269  -0.03575  3.130451  -0.013
N  N66  1  0.53403977  0.64835865  0.85532127  1  -0.312475  -0.395642  -0.013868  3.540736  -0.012
N  N67  1  0.03404048  0.14835112  0.64468112  1  -0.312418  -0.395537  -0.013868  3.540408  -0.012
N  N68  1  0.46596139  0.35163713  0.14468043  1  -0.312396  -0.395572  -0.013867  3.540629  -0.012
N  N69  1  0.96596351  0.85164867  0.35532384  1  -0.312444  -0.395578  -0.013867  3.540291  -0.012
N  N70  1  0.50288104  0.58215830  0.66148550  1  -0.371273  -0.533784  -0.033077  3.140542  -0.007
N  N71  1  0.00287798  0.08215679  0.83851772  1  -0.371272  -0.533822  -0.033078  3.140415  -0.007
N  N72  1  0.49711626  0.41783850  0.33851619  1  -0.371294  -0.533754  -0.033077  3.140434  -0.007
N  N73  1  0.99711792  0.91784003  0.16148316  1  -0.371271  -0.533769  -0.033077  3.140569  -0.007
O  O74  1  0.77980573  0.10834645  0.04354972  1  -0.227512  -0.488862  -0.032755  2.088348  -0.018
O  O75  1  0.27979789  0.60834027  0.45645058  1  -0.227575  -0.488957  -0.032757  2.088256  -0.018
O  O76  1  0.22019406  0.89165336  0.95644953  1  -0.227507  -0.488843  -0.032754  2.088372  -0.018
O  O77  1  0.72019589  0.39165454  0.54355030  1  -0.227501  -0.488823  -0.032754  2.088321  -0.018
