# generated using pymatgen
data_CuH4C8(NO2)2
_symmetry_space_group_name_H-M   'P 1'
_cell_length_a   6.69189909
_cell_length_b   7.43853700
_cell_length_c   15.73301267
_cell_angle_alpha   90.00091820
_cell_angle_beta   90.00053312
_cell_angle_gamma   90.00021669
_symmetry_Int_Tables_number   1
_chemical_formula_structural   CuH4C8(NO2)2
_chemical_formula_sum   'Cu4 H16 C32 N8 O16'
_cell_volume   783.15694447
_cell_formula_units_Z   4
loop_
 _symmetry_equiv_pos_site_id
 _symmetry_equiv_pos_as_xyz
  1  'x, y, z'
loop_
 _atom_site_type_symbol
 _atom_site_label
 _atom_site_symmetry_multiplicity
 _atom_site_fract_x
 _atom_site_fract_y
 _atom_site_fract_z
 _atom_site_occupancy
 _atom_site_hle17_ddec_charge
 _atom_site_hle17_ddec_spin_density
 _atom_site_hle17_ddec_sum_bond_order
 _atom_site_hle17_magmom
 _atom_site_pbe_cm5_charge
 _atom_site_pbe_ddec_charge
 _atom_site_pbe_ddec_spin_density
 _atom_site_pbe_ddec_sum_bond_order
 _atom_site_pbe_magmom
Cu  Cu0  1  0.25001669  0.93017134  0.31965732  1  0.741542  0.298834  1.728008  0.207  0.680966  0.662382  0.308114  2.159966  0.226
Cu  Cu1  1  0.24998573  0.43018488  0.18035091  1  0.741569  0.296833  1.728288  0.206  0.680966  0.66253  0.307519  2.160044  0.226
Cu  Cu2  1  0.75000207  0.57055763  0.82041356  1  0.760959  -0.496844  1.741871  -0.326  0.69505  0.684426  -0.48545  2.171451  -0.351
Cu  Cu3  1  0.74999499  0.07059669  0.67957916  1  0.761101  0.472788  1.741975  0.326  0.695155  0.684656  0.482079  2.17168  0.351
H  H4  1  0.56341892  0.00446507  0.44296906  1  0.106343  0.000566  0.962719  0.001  0.127487  0.107058  0.00068  1.034311  0.001
H  H5  1  0.56337688  0.50454873  0.05705057  1  0.106476  0.000212  0.962463  0.001  0.127435  0.107082  0.000258  1.034252  0.001
H  H6  1  0.93662837  0.00446302  0.44296598  1  0.106256  0.000566  0.962836  0.001  0.127428  0.107061  0.00068  1.03436  0.001
H  H7  1  0.06322511  0.49492406  0.94298921  1  0.107101  -0.000631  0.963491  -0.001  0.127984  0.108251  -0.000628  1.034649  -0.001
H  H8  1  0.43679750  0.99490754  0.55701171  1  0.107208  0.000825  0.963529  0.001  0.127987  0.108267  0.000963  1.034735  0.001
H  H9  1  0.43678872  0.49492067  0.94298677  1  0.10709  -0.000633  0.963562  -0.001  0.128013  0.10825  -0.000628  1.0347  -0.001
H  H10  1  0.06318009  0.99490152  0.55701415  1  0.107108  0.000822  0.963551  0.001  0.127962  0.108192  0.000962  1.034763  0.001
H  H11  1  0.93659680  0.50455340  0.05705003  1  0.106458  0.000216  0.962356  0.001  0.127449  0.107157  0.000258  1.034069  0.001
H  H12  1  0.56302488  0.82033762  0.19308482  1  0.10215  0.000331  0.940138  0.001  0.127124  0.10706  0.000421  1.006042  0.001
H  H13  1  0.56297726  0.32023854  0.30689268  1  0.102106  0.000472  0.940321  0.001  0.127133  0.10701  0.00061  1.006164  0.001
H  H14  1  0.93700093  0.82033423  0.19308556  1  0.101949  0.000333  0.940241  0.001  0.127098  0.10695  0.000422  1.006053  0.001
H  H15  1  0.06271319  0.68019816  0.69333841  1  0.102089  -0.000874  0.939902  -0.001  0.127475  0.10733  -0.000857  1.005362  -0.001
H  H16  1  0.43729166  0.18019784  0.80665633  1  0.102076  0.000935  0.939975  0.001  0.127463  0.107283  0.001013  1.00544  0.001
H  H17  1  0.43728250  0.68019879  0.69333725  1  0.10219  -0.000878  0.939829  -0.001  0.127533  0.107431  -0.000857  1.005299  -0.001
H  H18  1  0.06270143  0.18020393  0.80665813  1  0.10207  0.000935  0.939912  0.001  0.127458  0.107311  0.001014  1.005327  0.001
H  H19  1  0.93699664  0.32023918  0.30689405  1  0.102101  0.000474  0.940361  0.001  0.127189  0.10702  0.000611  1.00619  0.001
C  C20  1  0.24998672  0.36402007  0.42038225  1  0.195619  0.007685  3.860873  0.007  0.101569  0.173763  0.00807  4.134531  0.008
C  C21  1  0.25000048  0.86405880  0.07961849  1  0.195983  0.007709  3.861107  0.007  0.10161  0.173921  0.00794  4.134974  0.008
C  C22  1  0.75000972  0.13613655  0.92004447  1  0.197516  -0.010973  3.859262  -0.01  0.100922  0.174369  -0.004863  4.134776  -0.005
C  C23  1  0.75000256  0.63618470  0.57995954  1  0.197366  0.010189  3.859021  0.01  0.101004  0.174317  0.004812  4.134505  0.005
C  C24  1  0.25000129  0.47922285  0.50003812  1  0.206863  0.009919  3.864493  0.009  0.10803  0.182814  0.010133  4.13993  0.01
C  C25  1  0.24999686  0.97927498  0.99996921  1  0.206904  0.009941  3.863787  0.009  0.108286  0.182859  0.010109  4.139193  0.01
C  C26  1  0.75001034  0.01932864  0.99924946  1  0.207349  -0.017546  3.867555  -0.014  0.107158  0.184177  -0.011311  4.142573  -0.011
C  C27  1  0.75000145  0.51938887  0.50074796  1  0.207371  0.016463  3.867678  0.014  0.107013  0.184026  0.011128  4.142908  0.011
C  C28  1  0.24999653  0.64254836  0.44390199  1  0.191767  0.008851  3.868524  0.008  0.092595  0.162345  0.009341  4.140067  0.008
C  C29  1  0.24999123  0.14261949  0.05609963  1  0.191254  0.008992  3.868741  0.008  0.092551  0.161829  0.009331  4.140255  0.008
C  C30  1  0.75000251  0.85757718  0.94228004  1  0.189207  -0.001687  3.862616  0.003  0.090646  0.160558  0.001342  4.135055  0.006
C  C31  1  0.75000024  0.35762013  0.55770656  1  0.188943  0.000679  3.86222  -0.003  0.090585  0.160477  -0.001485  4.134616  -0.006
C  C32  1  0.24998351  0.52988512  0.36826888  1  0.164887  0.006829  3.897761  0.006  0.079164  0.136536  0.007363  4.179662  0.006
C  C33  1  0.24999930  0.02994271  0.13173825  1  0.164779  0.006915  3.897497  0.006  0.079004  0.13639  0.007363  4.179485  0.006
C  C34  1  0.75000491  0.97134423  0.86727132  1  0.16413  -0.016872  3.902099  -0.018  0.077091  0.134092  -0.006689  4.184891  -0.009
C  C35  1  0.75000130  0.47136421  0.63273140  1  0.164153  0.01588  3.902572  0.018  0.077195  0.134124  0.006572  4.185285  0.009
C  C36  1  0.64629216  0.96018714  0.38764519  1  0.099626  -2.2e-05  3.629873  0.0  0.064491  0.067461  0.001224  3.875523  0.001
C  C37  1  0.64627614  0.46025885  0.11237055  1  0.099483  -0.000717  3.630276  0.0  0.06445  0.067411  0.000637  3.875905  0.001
C  C38  1  0.85374448  0.96018481  0.38764560  1  0.099723  -4e-05  3.629845  0.0  0.064561  0.067506  0.001224  3.875398  0.001
C  C39  1  0.14631163  0.53946159  0.88776617  1  0.099945  0.000813  3.632718  0.0  0.064927  0.067571  -0.000764  3.877703  -0.001
C  C40  1  0.35368666  0.03941400  0.61223070  1  0.099667  -0.000374  3.632418  0.0  0.064845  0.067437  0.001581  3.877409  0.001
C  C41  1  0.35369820  0.53946060  0.88776531  1  0.100064  0.000783  3.632777  0.0  0.06498  0.067696  -0.000764  3.877733  -0.001
C  C42  1  0.14630009  0.03941365  0.61222902  1  0.100144  -0.000388  3.632118  0.0  0.065141  0.067835  0.00158  3.877136  0.001
C  C43  1  0.85369409  0.46026055  0.11237096  1  0.099737  -0.000737  3.630026  0.0  0.06456  0.06748  0.000636  3.875698  0.001
C  C44  1  0.64620226  0.85859625  0.24956509  1  0.097959  0.000446  3.618494  0.001  0.060272  0.065709  0.001495  3.863086  0.001
C  C45  1  0.64617283  0.35853691  0.25043527  1  0.098293  0.000273  3.617798  0.0  0.060439  0.066142  0.001383  3.86219  0.001
C  C46  1  0.85382345  0.85859930  0.24956486  1  0.098551  0.000424  3.618312  0.001  0.060455  0.066158  0.001494  3.86295  0.001
C  C47  1  0.14619377  0.64172933  0.74970463  1  0.100159  -0.001036  3.616907  -0.001  0.06116  0.067423  -0.002014  3.861852  -0.002
C  C48  1  0.35379897  0.14172143  0.75029428  1  0.10006  0.00052  3.617079  0.001  0.061121  0.067386  0.001717  3.861989  0.002
C  C49  1  0.35380449  0.64172969  0.74970313  1  0.099969  -0.001062  3.616917  -0.001  0.061097  0.067229  -0.002014  3.861849  -0.002
C  C50  1  0.14619422  0.14172107  0.75029387  1  0.10026  0.000497  3.616911  0.001  0.061288  0.067557  0.001716  3.861825  0.002
C  C51  1  0.85380298  0.35853727  0.25043313  1  0.098445  0.000256  3.617908  0.0  0.060436  0.066232  0.001383  3.862289  0.001
N  N52  1  0.54200401  0.90979819  0.31870187  1  -0.247369  0.021463  3.345806  0.025  -0.337145  -0.181503  0.018938  3.62445  0.023
N  N53  1  0.54197456  0.40979294  0.18129719  1  -0.247587  0.021068  3.345471  0.025  -0.337176  -0.181887  0.018379  3.624109  0.022
N  N54  1  0.95802941  0.90979890  0.31870015  1  -0.24749  0.021466  3.345638  0.025  -0.337154  -0.181577  0.018941  3.624257  0.023
N  N55  1  0.04240176  0.59012342  0.81883911  1  -0.2496  -0.036349  3.346608  -0.041  -0.336805  -0.183599  -0.028842  3.624105  -0.034
N  N56  1  0.45759225  0.09009468  0.68116385  1  -0.249485  0.034256  3.346214  0.041  -0.336733  -0.183507  0.028165  3.623738  0.034
N  N57  1  0.45760079  0.59012144  0.81883675  1  -0.249547  -0.036319  3.346646  -0.041  -0.336793  -0.18354  -0.028844  3.624139  -0.034
N  N58  1  0.04239173  0.09009397  0.68116303  1  -0.249706  0.034274  3.346023  0.041  -0.336889  -0.183696  0.028168  3.623542  0.034
N  N59  1  0.95799846  0.40979365  0.18129674  1  -0.247698  0.021069  3.345547  0.025  -0.337193  -0.181874  0.018379  3.624164  0.022
O  O60  1  0.24999071  0.19903175  0.40705488  1  -0.460606  0.025252  2.078545  0.031  -0.293786  -0.424471  0.019348  2.338126  0.025
O  O61  1  0.25000327  0.69910320  0.09294272  1  -0.460582  0.025287  2.079313  0.031  -0.293658  -0.424303  0.019264  2.338685  0.025
O  O62  1  0.75000694  0.30144303  0.90743721  1  -0.46528  -0.033024  2.079699  -0.038  -0.29648  -0.430148  -0.011497  2.340259  -0.015
O  O63  1  0.75000454  0.80147548  0.59257313  1  -0.465298  0.031315  2.079959  0.038  -0.296489  -0.430094  0.011388  2.340463  0.015
O  O64  1  0.25002299  0.45057069  0.57716310  1  -0.426125  0.025301  2.016042  0.03  -0.281361  -0.389516  0.017971  2.233477  0.022
O  O65  1  0.25000093  0.95058488  0.92283875  1  -0.425896  0.025278  2.015644  0.03  -0.281414  -0.389411  0.017947  2.233046  0.022
O  O66  1  0.75000627  0.04654265  0.07651911  1  -0.431506  -0.047295  2.016832  -0.053  -0.284985  -0.395693  -0.017297  2.234708  -0.02
O  O67  1  0.74999468  0.54665366  0.42348441  1  -0.431652  0.044747  2.017037  0.053  -0.284966  -0.395628  0.016809  2.234871  0.02
O  O68  1  0.25001490  0.81012446  0.45183626  1  -0.440391  0.047591  2.113627  0.059  -0.269237  -0.383591  0.039021  2.361513  0.051
O  O69  1  0.24998403  0.31017246  0.04817107  1  -0.439974  0.047186  2.114294  0.059  -0.269259  -0.383253  0.038783  2.362076  0.05
O  O70  1  0.75000074  0.68932916  0.94939566  1  -0.439437  -0.10349  2.114768  -0.124  -0.272883  -0.386255  -0.06674  2.366767  -0.087
O  O71  1  0.75000130  0.18936112  0.55059350  1  -0.4392  0.098331  2.114508  0.124  -0.272768  -0.386089  0.066208  2.366499  0.087
O  O72  1  0.24997829  0.57931422  0.29116813  1  -0.49052  0.047782  2.229324  0.062  -0.301169  -0.450643  0.039498  2.54064  0.054
O  O73  1  0.25000772  0.07937042  0.20883556  1  -0.49055  0.047929  2.229412  0.062  -0.301137  -0.450627  0.039309  2.540598  0.054
O  O74  1  0.74999948  0.92291806  0.78987019  1  -0.50345  0.006975  2.232956  0.009  -0.307831  -0.461466  0.023567  2.545197  0.031
O  O75  1  0.74999606  0.42290977  0.71010928  1  -0.503172  -0.007988  2.233713  -0.009  -0.307693  -0.461164  -0.023715  2.545936  -0.031
