# generated using pymatgen
data_ZnH3C17I2N3(Cl3O2)2
_symmetry_space_group_name_H-M   'P 1'
_cell_length_a   10.85850291
_cell_length_b   16.17521015
_cell_length_c   17.24857491
_cell_angle_alpha   89.36480012
_cell_angle_beta   90.70202075
_cell_angle_gamma   91.72794936
_symmetry_Int_Tables_number   1
_chemical_formula_structural   ZnH3C17I2N3(Cl3O2)2
_chemical_formula_sum   'Zn2 H6 C34 I4 N6 Cl12 O8'
_cell_volume   3027.73599887
_cell_formula_units_Z   2
loop_
 _symmetry_equiv_pos_site_id
 _symmetry_equiv_pos_as_xyz
  1  'x, y, z'
loop_
 _atom_site_type_symbol
 _atom_site_label
 _atom_site_symmetry_multiplicity
 _atom_site_fract_x
 _atom_site_fract_y
 _atom_site_fract_z
 _atom_site_occupancy
 _atom_site_pbe_bader_charge
 _atom_site_pbe_bader_spin_density
 _atom_site_pbe_cm5_charge
 _atom_site_pbe_ddec_charge
 _atom_site_pbe_ddec_spin_density
 _atom_site_pbe_ddec_sum_bond_order
 _atom_site_pbe_magmom
Zn  Zn0  1  0.50929928  0.58883503  0.48741310  1  1.300248  0  0.67085  0.861223  0  2.341576  0
Zn  Zn1  1  0.49042841  0.41110085  0.51264211  1  1.301185  0  0.670633  0.860887  0  2.342046  0
H  H2  1  0.09100108  0.42309743  0.39473783  1  0.095621  0  0.103784  0.110439  0  0.977553  0
H  H3  1  0.90876691  0.57699076  0.60512084  1  0.094867  0  0.103783  0.11029  0  0.977549  0
H  H4  1  0.63231659  0.29437912  0.43311577  1  0.178678  0  0.117115  0.109376  0  1.034445  0
H  H5  1  0.36778831  0.70561083  0.56703337  1  0.177222  0  0.117277  0.109581  0  1.034661  0
H  H6  1  0.07064922  0.64594163  0.49120292  1  0.078566  0  0.102778  0.107789  0  0.974829  0
H  H7  1  0.92912242  0.35414944  0.50868351  1  0.079364  0  0.102723  0.10763  0  0.975131  0
C  C8  1  0.48250259  0.47530546  0.35061224  1  1.61806  0  0.206183  0.602896  0  4.21046  0
C  C9  1  0.57787460  0.76949837  0.44243809  1  0.665336  0  0.144357  0.22089  0  4.04426  0
C  C10  1  0.42245360  0.14364341  0.54927508  1  0.190159  0  0.023023  0.001245  0  3.988491  0
C  C11  1  0.57743999  0.85628740  0.45066696  1  0.193726  0  0.022583  0.001141  0  3.989161  0
C  C12  1  0.50311746  0.11008594  0.49501587  1  0.411051  0  0.100742  0.093308  0  3.992733  0
C  C13  1  0.49695202  0.88989284  0.50503450  1  0.408903  0  0.100882  0.093335  0  3.992867  0
C  C14  1  0.57985529  0.16565796  0.45256204  1  0.131102  0  0.024898  0.050784  0  4.020705  0
C  C15  1  0.42030927  0.83431636  0.54758135  1  0.066188  0  0.024314  0.050065  0  4.020184  0
C  C16  1  0.57452362  0.25002620  0.46519781  1  0.492205  0  0.051379  0.057078  0  3.894503  0
C  C17  1  0.42554034  0.74993899  0.53491203  1  0.556838  0  0.051557  0.057266  0  3.895756  0
C  C18  1  0.73700716  0.49333887  0.49421041  1  1.571721  0  0.212611  0.600046  0  4.181904  0
C  C19  1  0.51753676  0.52446868  0.64943799  1  1.615892  0  0.206239  0.60335  0  4.20865  0
C  C20  1  0.26275105  0.50670366  0.50572176  1  1.57647  0  0.212328  0.599675  0  4.182004  0
C  C21  1  0.96372281  0.53257964  0.43196790  1  -0.139221  0  -0.031473  0.063362  0  3.532296  0
C  C22  1  0.03606320  0.46751156  0.56790686  1  -0.138504  0  -0.031494  0.0628  0  3.533547  0
C  C23  1  0.04863370  0.45672110  0.44155907  1  -0.029596  0  -0.075402  -0.080235  0  3.624888  0
C  C24  1  0.95114428  0.54336598  0.55829552  1  -0.025793  0  -0.074975  -0.079707  0  3.625626  0
C  C25  1  0.12559099  0.50645897  0.50453184  1  0.032552  0  -0.007373  -0.03489  0  3.632991  0
C  C26  1  0.87419180  0.49362457  0.49532918  1  0.033533  0  -0.007355  -0.034841  0  3.633758  0
C  C27  1  0.03904487  0.58131632  0.49541630  1  -0.02464  0  -0.080143  -0.084271  0  3.643561  0
C  C28  1  0.96072625  0.41875787  0.50445541  1  -0.021577  0  -0.080364  -0.083998  0  3.644076  0
C  C29  1  0.47342742  0.46908507  0.26313477  1  0.044435  0  -0.015543  -0.070966  0  3.927246  0
C  C30  1  0.46618604  0.48080041  0.09938623  1  0.443832  0  0.080976  0.066776  0  3.997919  0
C  C31  1  0.52712411  0.53077531  0.73690427  1  0.005954  0  -0.015604  -0.071982  0  3.927501  0
C  C32  1  0.56498603  0.43299881  0.21909593  1  -0.15839  0  -0.053112  -0.020432  0  3.878243  0
C  C33  1  0.43613886  0.56730271  0.78108241  1  -0.153343  0  -0.052637  -0.019576  0  3.87868  0
C  C34  1  0.56354376  0.43982043  0.13767463  1  0.155167  0  0.011342  0.060614  0  4.008153  0
C  C35  1  0.43812021  0.56074924  0.86250941  1  0.166027  0  0.011411  0.060314  0  4.009536  0
C  C36  1  0.53532831  0.51940591  0.90064850  1  0.450635  0  0.080837  0.066416  0  3.998307  0
C  C37  1  0.36757717  0.50885881  0.14377951  1  0.0721  0  0.014988  0.039577  0  4.013615  0
C  C38  1  0.63344446  0.49092899  0.85607099  1  0.059752  0  0.014568  0.039467  0  4.011093  0
C  C39  1  0.37263410  0.50443344  0.22491434  1  0.14137  0  0.008148  0.068248  0  4.02628  0
C  C40  1  0.62789581  0.49521201  0.77492989  1  0.172657  0  0.008827  0.069381  0  4.024654  0
C  C41  1  0.42191341  0.23043887  0.55748575  1  0.665841  0  0.144355  0.220582  0  4.043494  0
I  I42  1  0.91338009  0.58348020  0.32252610  1  0.07249  0  0.029933  -0.066098  0  1.441608  0
I  I43  1  0.08672327  0.41678207  0.67734470  1  0.072758  0  0.030045  -0.065776  0  1.442048  0
I  I44  1  0.29398285  0.63243710  0.72586296  1  0.155501  0  0.080936  -0.003577  0  1.62077  0
I  I45  1  0.70697197  0.36795078  0.27460835  1  0.156494  0  0.081259  -0.003148  0  1.621708  0
N  N46  1  0.45243767  0.48980050  0.01795465  1  -0.443186  0  -0.134943  -0.080082  0  3.292897  0
N  N47  1  0.54924100  0.51042228  0.98205983  1  -0.404109  0  -0.135042  -0.080857  0  3.293917  0
N  N48  1  0.49621181  0.28124266  0.51617986  1  -1.195998  0  -0.308767  -0.213525  0  3.481569  0
N  N49  1  0.50366474  0.71871529  0.48383185  1  -1.195186  0  -0.308616  -0.21382  0  3.482492  0
N  N50  1  0.50203541  0.02625630  0.47292690  1  -0.427078  0  -0.114965  -0.059344  0  3.271067  0
N  N51  1  0.49806777  0.97369579  0.52711403  1  -0.359987  0  -0.114634  -0.058833  0  3.271868  0
Cl  Cl52  1  0.68155133  0.13078448  0.38606249  1  -0.157195  0  0.020081  -0.034763  0  1.540846  0
Cl  Cl53  1  0.32468642  0.27470198  0.62034846  1  -0.10769  0  0.043923  -0.020365  0  1.691449  0
Cl  Cl54  1  0.67888058  0.91644766  0.39863221  1  -0.121062  0  0.024703  -0.023303  0  1.652223  0
Cl  Cl55  1  0.32085043  0.08347107  0.60118152  1  -0.121355  0  0.0246  -0.023311  0  1.651917  0
Cl  Cl56  1  0.31886248  0.86921780  0.61420962  1  -0.155903  0  0.020409  -0.034369  0  1.541586  0
Cl  Cl57  1  0.32794665  0.60769824  0.91539635  1  -0.163231  0  0.000263  -0.051071  0  1.704086  0
Cl  Cl58  1  0.67467585  0.39351215  0.08502475  1  -0.160518  0  0.000295  -0.051343  0  1.702859  0
Cl  Cl59  1  0.24378967  0.55216915  0.09811490  1  -0.148364  0  0.004085  -0.043919  0  1.617078  0
Cl  Cl60  1  0.75711707  0.44724092  0.90152090  1  -0.148128  0  0.00421  -0.043714  0  1.616341  0
Cl  Cl61  1  0.25291170  0.54142791  0.27765339  1  -0.16949  0  0.002552  -0.049595  0  1.654384  0
Cl  Cl62  1  0.74704366  0.45777123  0.72198554  1  -0.168731  0  0.002186  -0.050017  0  1.655278  0
Cl  Cl63  1  0.67481157  0.72522276  0.37940882  1  -0.108805  0  0.044029  -0.020308  0  1.691763  0
O  O64  1  0.49868836  0.54865495  0.37473823  1  -1.141815  0  -0.312524  -0.543844  0  2.360446  0
O  O65  1  0.50093089  0.45114125  0.62533959  1  -1.140216  0  -0.31281  -0.543903  0  2.359437  0
O  O66  1  0.47351175  0.40936301  0.39035059  1  -1.16527  0  -0.311807  -0.538211  0  2.33226  0
O  O67  1  0.52661532  0.59040571  0.60967731  1  -1.164698  0  -0.31174  -0.538539  0  2.332121  0
O  O68  1  0.69129900  0.56454489  0.48835622  1  -1.14841  0  -0.318047  -0.542194  0  2.371644  0
O  O69  1  0.30843105  0.43547746  0.51138804  1  -1.148741  0  -0.317468  -0.541843  0  2.372376  0
O  O70  1  0.67843167  0.42423698  0.50077621  1  -1.174654  0  -0.315961  -0.552719  0  2.339784  0
O  O71  1  0.32137395  0.57582282  0.49942852  1  -1.173617  0  -0.316202  -0.552541  0  2.339124  0
