# generated using pymatgen
data_CoH13C19N5O4
_symmetry_space_group_name_H-M   'P 1'
_cell_length_a   7.72255524
_cell_length_b   10.08035451
_cell_length_c   12.55860198
_cell_angle_alpha   66.84647925
_cell_angle_beta   75.86930845
_cell_angle_gamma   86.74782581
_symmetry_Int_Tables_number   1
_chemical_formula_structural   CoH13C19N5O4
_chemical_formula_sum   'Co2 H26 C38 N10 O8'
_cell_volume   870.84907229
_cell_formula_units_Z   2
loop_
 _symmetry_equiv_pos_site_id
 _symmetry_equiv_pos_as_xyz
  1  'x, y, z'
loop_
 _atom_site_type_symbol
 _atom_site_label
 _atom_site_symmetry_multiplicity
 _atom_site_fract_x
 _atom_site_fract_y
 _atom_site_fract_z
 _atom_site_occupancy
 _atom_site_hle17_ddec_charge
 _atom_site_hle17_ddec_spin_density
 _atom_site_hle17_ddec_sum_bond_order
 _atom_site_hle17_magmom
 _atom_site_hse06_10hf_ddec_charge
 _atom_site_hse06_10hf_ddec_spin_density
 _atom_site_hse06_10hf_ddec_sum_bond_order
 _atom_site_hse06_10hf_magmom
 _atom_site_hse06_ddec_charge
 _atom_site_hse06_ddec_spin_density
 _atom_site_hse06_ddec_sum_bond_order
 _atom_site_hse06_magmom
 _atom_site_pbe_cm5_charge
 _atom_site_pbe_ddec_charge
 _atom_site_pbe_ddec_spin_density
 _atom_site_pbe_ddec_sum_bond_order
 _atom_site_pbe_magmom
Co  Co0  1  0.82675662  0.93847461  0.28642597  1  0.678716  1.26579  2.517866  1.028  0.660301  1.071853  2.965692  0.932  0.730421  1.06466  2.887864  0.941  0.655173  0.620257  1.067195  3.013136  0.916
Co  Co1  1  0.17324362  0.06149300  0.71353789  1  0.678909  -1.265794  2.517171  -1.028  0.660167  -1.071818  2.964935  -0.932  0.730315  -1.064614  2.887106  -0.94  0.655179  0.620124  -1.067175  3.012389  -0.916
H  H2  1  0.02852729  0.63326302  0.06901125  1  0.317095  4e-05  0.898739  0.0  0.29643  8e-06  0.962824  0.0  0.305265  8e-06  0.955417  0.0  0.316714  0.290181  2.6e-05  0.968108  0.0
H  H3  1  0.97149091  0.36679677  0.93093437  1  0.316966  -4.1e-05  0.898629  0.0  0.296178  -8e-06  0.962835  0.0  0.305003  -9e-06  0.95546  0.0  0.316597  0.289906  -2.6e-05  0.968124  0.0
H  H4  1  0.87321014  0.87464027  0.91752671  1  0.340197  -0.000219  0.883474  0.0  0.313193  -0.00043  0.956231  0.0  0.324004  -0.000348  0.945163  0.0  0.318458  0.305271  -0.000495  0.964536  0.0
H  H5  1  0.12668945  0.12542756  0.08243319  1  0.340083  0.00022  0.883652  0.0  0.313289  0.000432  0.956124  0.0  0.324097  0.000349  0.945056  0.0  0.318565  0.305373  0.000497  0.964421  0.0
H  H6  1  0.44985421  0.00087448  0.26624245  1  0.083214  0.000979  0.962544  0.002  0.086692  0.00079  1.03643  0.001  0.089992  0.000555  1.032136  0.001  0.114671  0.084411  0.001061  1.039587  0.002
H  H7  1  0.55025447  0.99919795  0.73380446  1  0.083528  -0.000983  0.962086  -0.002  0.086708  -0.000792  1.03628  -0.001  0.090008  -0.000556  1.031981  -0.001  0.114572  0.084444  -0.001063  1.039426  -0.002
H  H8  1  0.09538713  0.73808985  0.59789027  1  0.10439  0.000369  0.933787  0.001  0.114316  -7.1e-05  0.997647  0.0  0.117636  -5e-05  0.994069  0.0  0.109205  0.111722  -7.3e-05  1.000654  0.0
H  H9  1  0.90455475  0.26192144  0.40208689  1  0.104534  -0.00037  0.933609  -0.001  0.1144  7.1e-05  0.997511  0.0  0.117731  5e-05  0.993922  0.0  0.109223  0.111771  7.3e-05  1.000553  0.0
H  H10  1  0.67089453  0.72334286  0.53728201  1  0.08705  0.000912  0.933464  0.002  0.095067  0.000703  0.998389  0.001  0.098304  0.000522  0.994627  0.001  0.117144  0.092732  0.000898  1.001323  0.002
H  H11  1  0.32902375  0.27656544  0.46272174  1  0.087151  -0.000914  0.933206  -0.002  0.095074  -0.000703  0.998244  -0.001  0.098299  -0.000522  0.994497  -0.001  0.117153  0.092738  -0.000898  1.001185  -0.002
H  H12  1  0.22640417  0.52510826  0.00396482  1  0.084501  -1e-05  0.970549  0.0  0.095944  -2e-06  1.032804  0.0  0.098936  -1e-06  1.030754  0.0  0.099722  0.093661  1.4e-05  1.034617  0.0
H  H13  1  0.77372623  0.47492159  0.99603592  1  0.084458  9e-06  0.970405  0.0  0.095788  2e-06  1.032827  0.0  0.098781  1e-06  1.030775  0.0  0.099648  0.093528  -1.4e-05  1.034613  0.0
H  H14  1  0.40121054  0.31050866  0.01654501  1  0.09395  2e-06  0.944629  0.0  0.107935  -1.1e-05  0.99876  0.0  0.110735  -1.7e-05  0.997808  0.0  0.103114  0.105777  3e-06  0.999697  0.0
H  H15  1  0.59876399  0.68947412  0.98344901  1  0.093913  -2e-06  0.944444  0.0  0.107906  1.1e-05  0.99857  0.0  0.110708  1.7e-05  0.997615  0.0  0.103103  0.105693  -3e-06  0.999574  0.0
H  H16  1  0.55413477  0.27755992  0.82793466  1  0.082942  1.7e-05  0.971869  0.0  0.09668  2.3e-05  1.030397  0.0  0.0986  1.5e-05  1.030313  0.0  0.098118  0.095097  3.6e-05  1.030875  0.0
H  H17  1  0.44590369  0.72240996  0.17206950  1  0.082849  -1.7e-05  0.972069  0.0  0.096508  -2.3e-05  1.03068  0.0  0.098425  -1.5e-05  1.030601  0.0  0.098094  0.09494  -3.6e-05  1.031142  0.0
H  H18  1  0.53369312  0.46338382  0.63289365  1  0.090579  -1.9e-05  0.949091  0.0  0.101234  1.9e-05  1.009939  0.0  0.103989  1.7e-05  1.009856  0.0  0.099668  0.099212  2e-05  1.010181  0.0
H  H19  1  0.46627245  0.53657077  0.36711007  1  0.090454  1.9e-05  0.948946  0.0  0.101057  -1.9e-05  1.009855  0.0  0.10381  -1.7e-05  1.009777  0.0  0.099601  0.099037  -2e-05  1.010095  0.0
H  H20  1  0.02927106  0.61769100  0.41373709  1  0.103317  7.2e-05  0.957578  0.0  0.112645  -5.6e-05  1.017813  0.0  0.115447  -4.3e-05  1.015838  0.0  0.118375  0.11051  -6.9e-05  1.019622  0.0
H  H21  1  0.97088533  0.38234908  0.58619020  1  0.103436  -7.1e-05  0.95735  0.0  0.112772  5.6e-05  1.017594  0.0  0.115552  4.3e-05  1.01562  0.0  0.118493  0.110649  6.9e-05  1.019413  0.0
H  H22  1  0.13610659  0.47216792  0.26164236  1  0.115597  -0.000105  0.937651  0.0  0.130887  -3.6e-05  0.986148  0.0  0.13381  -3.3e-05  0.984656  0.0  0.128775  0.128646  -1.7e-05  0.987541  0.0
H  H23  1  0.86405417  0.52785042  0.73827535  1  0.115485  0.000105  0.937765  0.0  0.130839  3.5e-05  0.986219  0.0  0.133754  3.3e-05  0.984746  0.0  0.128795  0.128603  1.7e-05  0.987606  0.0
H  H24  1  0.68774646  0.09709270  0.86929962  1  0.110776  -4.3e-05  0.970298  0.0  0.11929  4.5e-05  1.032798  0.0  0.122048  4.6e-05  1.031574  0.0  0.122766  0.117336  4.9e-05  1.033794  0.0
H  H25  1  0.31210914  0.90288745  0.13079819  1  0.110595  4.2e-05  0.970264  0.0  0.119162  -4.6e-05  1.032649  0.0  0.121912  -4.6e-05  1.031448  0.0  0.122743  0.117208  -5e-05  1.03364  0.0
H  H26  1  0.62529382  0.16712217  0.07008035  1  0.105384  0.00014  0.95452  0.0  0.115549  0.0  1.013127  0.0  0.118099  -3e-06  1.011247  0.0  0.120474  0.113798  7e-06  1.014382  0.0
H  H27  1  0.37458125  0.83284203  0.93001719  1  0.10551  -0.00014  0.954554  0.0  0.115573  -1e-06  1.013201  0.0  0.118111  3e-06  1.011349  0.0  0.120511  0.113832  -7e-06  1.014448  0.0
C  C28  1  0.42889153  0.91954394  0.35668928  1  0.119871  -0.014155  3.655096  -0.018  0.079593  -0.00307  3.908353  -0.005  0.089837  -0.00316  3.923855  -0.005  0.049969  0.071647  -0.003262  3.899548  -0.005
C  C29  1  0.57111296  0.08050600  0.64334289  1  0.119504  0.014188  3.655018  0.018  0.079437  0.003076  3.908276  0.005  0.089675  0.003162  3.923774  0.005  0.049952  0.071491  0.003267  3.899462  0.005
C  C30  1  0.25411954  0.87711992  0.42573369  1  -0.100737  0.009286  3.745031  0.012  -0.073234  0.002249  3.977215  0.003  -0.085361  0.002319  3.997607  0.003  -0.011538  -0.065733  0.002455  3.964734  0.004
C  C31  1  0.74585888  0.12295644  0.57427967  1  -0.100599  -0.009306  3.745542  -0.012  -0.0731  -0.002254  3.977553  -0.003  -0.085232  -0.002322  3.997943  -0.003  -0.011304  -0.065637  -0.002458  3.965137  -0.004
C  C32  1  0.22975045  0.77311767  0.54192107  1  -0.035961  -0.015807  3.654876  -0.018  -0.075964  -0.00422  3.906464  -0.005  -0.066577  -0.003471  3.918453  -0.004  -0.059622  -0.083113  -0.005503  3.899746  -0.006
C  C33  1  0.77020786  0.22692679  0.45808263  1  -0.036188  0.015846  3.654258  0.018  -0.076053  0.004227  3.905756  0.005  -0.066673  0.003474  3.917729  0.004  -0.059712  -0.08317  0.005515  3.899079  0.006
C  C34  1  0.38048285  0.71510203  0.58482153  1  0.011327  0.011626  3.782293  0.015  0.028095  0.003182  4.022384  0.004  0.022327  0.003095  4.044987  0.004  -0.001134  0.031795  0.003502  4.007632  0.005
C  C35  1  0.61944318  0.28486296  0.41519614  1  0.011575  -0.01165  3.782132  -0.015  0.028353  -0.003185  4.022201  -0.004  0.022609  -0.003098  4.044714  -0.004  -0.001035  0.03205  -0.003504  4.00745  -0.005
C  C36  1  0.54942333  0.76316588  0.50766365  1  0.083636  -0.012827  3.641851  -0.016  0.046196  -0.002151  3.898287  -0.004  0.055911  -0.002371  3.911463  -0.004  0.050134  0.039013  -0.002264  3.890197  -0.004
C  C37  1  0.45049896  0.23676983  0.49235769  1  0.083243  0.012874  3.64182  0.016  0.045831  0.002161  3.898341  0.004  0.055577  0.002379  3.911434  0.004  0.049914  0.038631  0.002274  3.890283  0.004
C  C38  1  0.10658552  0.93908426  0.36422420  1  0.618232  -0.00165  3.900791  -0.003  0.575513  0.000184  4.199088  -0.001  0.612881  0.000279  4.194558  -0.001  0.198784  0.549497  -5e-05  4.201452  -0.001
C  C39  1  0.89340657  0.06101562  0.63574997  1  0.618437  0.001661  3.901195  0.003  0.575815  -0.000179  4.199311  0.001  0.613183  -0.000275  4.194782  0.001  0.198894  0.549809  5.5e-05  4.201683  0.001
C  C40  1  0.37381712  0.60434300  0.70591612  1  0.049061  0.00021  3.753696  0.0  0.058285  0.00064  3.980717  0.001  0.060768  0.000314  4.00491  0.0  -0.001536  0.056396  0.000994  3.964549  0.001
C  C41  1  0.62612862  0.39561359  0.29409881  1  0.049064  -0.000206  3.753376  0.0  0.05814  -0.00064  3.980539  -0.001  0.060612  -0.000313  4.004739  0.0  -0.001549  0.056257  -0.000994  3.964369  -0.001
C  C42  1  0.28338951  0.62036817  0.81230631  1  -0.101286  0.002221  3.710989  0.003  -0.086254  0.000784  3.945992  0.001  -0.093833  0.000616  3.966475  0.001  -0.017028  -0.080968  0.000904  3.93211  0.001
C  C43  1  0.71662019  0.37961547  0.18770824  1  -0.101729  -0.002224  3.710991  -0.003  -0.086521  -0.000783  3.945896  -0.001  -0.094099  -0.000616  3.966382  -0.001  -0.017122  -0.081241  -0.000903  3.932026  -0.001
C  C44  1  0.29574438  0.51281907  0.92217318  1  -0.071851  0.000185  3.771047  0.0  -0.097678  0.000161  4.026935  0.0  -0.097418  1.8e-05  4.046904  0.0  -0.090856  -0.098071  0.000441  4.013924  0.0
C  C45  1  0.70428909  0.48715733  0.07783841  1  -0.07132  -0.000181  3.770593  0.0  -0.097084  -0.000161  4.026434  0.0  -0.096823  -1.8e-05  4.046407  0.0  -0.090544  -0.097493  -0.000441  4.013396  0.0
C  C46  1  0.39507761  0.39146411  0.92932758  1  -0.072084  0.000699  3.772108  0.001  -0.089906  0.000229  4.031967  0.0  -0.093178  0.000206  4.053831  0.0  -0.09692  -0.087683  0.000294  4.017313  0.0
C  C47  1  0.60493164  0.60851286  0.07067486  1  -0.072165  -0.000701  3.772204  -0.001  -0.089991  -0.000229  4.03204  0.0  -0.093264  -0.000207  4.053897  0.0  -0.096972  -0.087731  -0.000294  4.017408  0.0
C  C48  1  0.48014973  0.37359712  0.82464493  1  -0.061243  0.000371  3.792789  0.0  -0.08017  0.000242  4.051517  0.0  -0.080822  5.5e-05  4.073581  0.0  -0.094853  -0.080046  0.000558  4.036973  0.0
C  C49  1  0.51987155  0.62638422  0.17534626  1  -0.061253  -0.000368  3.792992  0.0  -0.080106  -0.000243  4.051754  0.0  -0.080756  -5.5e-05  4.073814  0.0  -0.094891  -0.079987  -0.000557  4.03719  0.0
C  C50  1  0.46872232  0.47881325  0.71448894  1  -0.121813  0.00089  3.751479  0.001  -0.14129  0.000313  4.001896  0.0  -0.145848  0.0003  4.024032  0.0  -0.092487  -0.138114  0.000357  3.987086  0.0
C  C51  1  0.53125396  0.52114361  0.28550921  1  -0.121564  -0.000892  3.750982  -0.001  -0.140959  -0.000313  4.001424  0.0  -0.145515  -0.0003  4.023561  0.0  -0.092351  -0.137787  -0.000358  3.98662  0.0
C  C52  1  0.17853645  0.75043280  0.81505806  1  0.63214  0.002392  3.878443  0.002  0.586245  0.000448  4.183986  0.0  0.623929  -1e-06  4.175682  0.0  0.207681  0.560231  0.000888  4.18902  0.001
C  C53  1  0.82152895  0.24957549  0.18494862  1  0.63241  -0.002381  3.877804  -0.002  0.586426  -0.000446  4.183446  0.0  0.624104  4e-06  4.175141  0.0  0.207779  0.560417  -0.000885  4.188485  -0.001
C  C54  1  0.00870907  0.64246232  0.32573361  1  -0.002983  -0.005453  3.710339  -0.007  -0.033127  -0.001316  3.98126  -0.002  -0.027822  -0.000922  3.997642  -0.001  0.000364  -0.037025  -0.001451  3.971163  -0.002
C  C55  1  0.99139604  0.35755985  0.67421144  1  -0.00303  0.00545  3.710581  0.007  -0.033201  0.00132  3.981471  0.002  -0.02786  0.000924  3.997835  0.001  0.000168  -0.037125  0.001454  3.971393  0.002
C  C56  1  0.06239235  0.56936118  0.25102476  1  -0.003882  0.002689  3.680949  0.003  -0.046878  6.5e-05  3.952335  0.0  -0.044862  2.6e-05  3.968795  0.0  0.00659  -0.048432  -6.7e-05  3.941637  0.0
C  C57  1  0.93773487  0.43063560  0.74894017  1  -0.00399  -0.002685  3.681992  -0.003  -0.047129  -6.7e-05  3.953512  0.0  -0.045123  -2.8e-05  3.969967  0.0  0.00655  -0.048706  6.5e-05  3.942797  0.0
C  C58  1  0.92080882  0.76136009  0.16260028  1  0.252743  -0.008337  3.811413  -0.009  0.226524  -0.001478  4.074211  -0.002  0.241174  -0.000695  4.086179  -0.001  0.216242  0.216891  -0.001763  4.065979  -0.002
C  C59  1  0.07920744  0.23860353  0.83737035  1  0.252675  0.008341  3.811382  0.009  0.226372  0.00148  4.07429  0.002  0.241032  0.000696  4.086231  0.001  0.216092  0.216675  0.001764  4.066101  0.002
C  C60  1  0.83823408  0.87871726  0.08878047  1  0.247435  -0.008812  3.796516  -0.01  0.222257  -0.00176  4.057628  -0.002  0.236627  -0.000922  4.069178  -0.001  0.212343  0.212234  -0.002447  4.050144  -0.003
C  C61  1  0.16176391  0.12125381  0.91120173  1  0.24754  0.008799  3.796457  0.01  0.222102  0.001759  4.057839  0.002  0.236463  0.000923  4.069362  0.001  0.212462  0.21212  0.002446  4.050372  0.003
C  C62  1  0.72061317  0.04412083  0.95464065  1  0.011138  0.003212  3.680229  0.004  -0.035401  5.3e-05  3.955379  0.0  -0.033203  5.7e-05  3.972116  0.0  0.007006  -0.03715  2.2e-05  3.944554  0.0
C  C63  1  0.27920065  0.95585214  0.04545722  1  0.011877  -0.00319  3.679593  -0.004  -0.034612  -5e-05  3.9547  0.0  -0.032415  -5.5e-05  3.971433  0.0  0.007415  -0.036356  -1.9e-05  3.943889  0.0
C  C64  1  0.69209061  0.07697823  0.05427062  1  -0.001384  -0.006311  3.698949  -0.008  -0.033787  -0.001504  3.978284  -0.002  -0.028766  -0.001046  3.994469  -0.001  -9.9e-05  -0.037238  -0.001738  3.967619  -0.002
C  C65  1  0.30780292  0.92297553  0.94583458  1  -0.002196  0.006295  3.698961  0.008  -0.034587  0.0015  3.978274  0.002  -0.029588  0.001043  3.994464  0.001  -0.000506  -0.038023  0.001734  3.967609  0.002
N  N66  1  0.57403797  0.86331123  0.39571554  1  -0.252618  0.053718  3.328849  0.084  -0.206467  0.035802  3.619018  0.057  -0.228434  0.029841  3.632501  0.048  -0.320901  -0.191231  0.041902  3.609278  0.065
N  N67  1  0.42592690  0.13664809  0.60431703  1  -0.252345  -0.05374  3.328894  -0.084  -0.206065  -0.035811  3.618873  -0.057  -0.228006  -0.029855  3.632343  -0.048  -0.32079  -0.190839  -0.041901  3.609154  -0.065
N  N68  1  0.92004103  0.76272046  0.26962220  1  -0.342492  -0.005669  3.32891  -0.008  -0.30714  -0.002995  3.629325  -0.007  -0.332164  -0.002948  3.642528  -0.007  -0.355208  -0.292024  -0.002464  3.620493  -0.006
N  N69  1  0.07999577  0.23725960  0.73033752  1  -0.342475  0.005678  3.328739  0.008  -0.306874  0.003  3.628886  0.007  -0.331928  0.002953  3.642104  0.007  -0.354927  -0.291737  0.002472  3.620065  0.006
N  N70  1  0.00500152  0.64607947  0.14884519  1  -0.300269  -0.003071  3.446959  -0.004  -0.238474  -0.000631  3.680554  -0.001  -0.252791  -0.000285  3.69405  0.0  -0.371647  -0.228648  -0.000818  3.671069  -0.001
N  N71  1  0.99506602  0.35389683  0.85112052  1  -0.299828  0.003068  3.447155  0.004  -0.237837  0.000631  3.680805  0.001  -0.252155  0.000287  3.694303  0.0  -0.371441  -0.227916  0.000819  3.67125  0.001
N  N72  1  0.76784246  0.97348718  0.13767240  1  -0.342709  -0.006511  3.349435  -0.009  -0.309213  -0.003288  3.655696  -0.008  -0.334751  -0.002983  3.668959  -0.007  -0.359835  -0.293314  -0.002847  3.646877  -0.007
N  N73  1  0.23217274  0.02646198  0.86235004  1  -0.342824  0.006503  3.348971  0.009  -0.308941  0.003277  3.654829  0.008  -0.334462  0.00297  3.668074  0.007  -0.359735  -0.293083  0.002836  3.646052  0.007
N  N74  1  0.81258671  0.91938738  0.97802065  1  -0.301222  -0.004317  3.440624  -0.006  -0.236845  -0.001777  3.673565  -0.002  -0.250307  -0.001175  3.683717  -0.001  -0.370298  -0.228029  -0.002111  3.667448  -0.002
N  N75  1  0.18729325  0.08060483  0.02198107  1  -0.301329  0.004312  3.440891  0.006  -0.237111  0.001781  3.673811  0.002  -0.250569  0.001179  3.683947  0.001  -0.37071  -0.228323  0.002115  3.667739  0.002
O  O76  1  0.14834974  0.02814840  0.25744183  1  -0.608405  0.015023  1.960927  0.02  -0.571497  0.016801  2.1973  0.023  -0.599818  0.013482  2.187985  0.019  -0.313197  -0.550385  0.020701  2.202617  0.029
O  O77  1  0.85171999  0.97197795  0.74255232  1  -0.608769  -0.01506  1.961248  -0.02  -0.571818  -0.016833  2.197544  -0.023  -0.600146  -0.013507  2.1882  -0.019  -0.31328  -0.550694  -0.020737  2.20287  -0.029
O  O78  1  0.94412543  0.88998341  0.41916714  1  -0.540968  -0.011575  2.026016  -0.018  -0.5178  -0.004374  2.292961  -0.007  -0.560938  -0.004227  2.287556  -0.008  -0.306261  -0.487021  -0.003301  2.294642  -0.005
O  O79  1  0.05585245  0.11008191  0.58075511  1  -0.540959  0.011543  2.025955  0.018  -0.517858  0.004354  2.292893  0.007  -0.561008  0.004207  2.287502  0.008  -0.306317  -0.487068  0.003281  2.294561  0.005
O  O80  1  0.23889985  0.86976459  0.72707024  1  -0.534702  0.009587  2.18356  0.016  -0.504455  0.00299  2.464915  0.007  -0.545184  0.002894  2.45814  0.007  -0.292648  -0.476801  0.002145  2.468388  0.005
O  O81  1  0.76114228  0.13020924  0.27290261  1  -0.534685  -0.009575  2.183059  -0.016  -0.504514  -0.002985  2.464567  -0.007  -0.545253  -0.002891  2.457834  -0.007  -0.292678  -0.476852  -0.002139  2.468001  -0.005
O  O82  1  0.04764937  0.73321836  0.90312787  1  -0.62668  0.001647  1.981832  0.003  -0.583328  0.000437  2.218712  0.001  -0.608696  0.000168  2.209771  0.001  -0.315478  -0.565321  0.000684  2.224533  0.002
O  O83  1  0.95245299  0.26684162  0.09688900  1  -0.626951  -0.001644  1.981759  -0.003  -0.583499  -0.000437  2.218535  -0.001  -0.608855  -0.000168  2.209591  -0.001  -0.315585  -0.565496  -0.000684  2.224359  -0.002
