# generated using pymatgen
data_Ag2H12WC6(S3N2)2
_symmetry_space_group_name_H-M   'P 1'
_cell_length_a   6.24603999
_cell_length_b   13.26037644
_cell_length_c   18.82440000
_cell_angle_alpha   90.00000000
_cell_angle_beta   90.00000000
_cell_angle_gamma   92.30231616
_symmetry_Int_Tables_number   1
_chemical_formula_structural   Ag2H12WC6(S3N2)2
_chemical_formula_sum   'Ag8 H48 W4 C24 S24 N16'
_cell_volume   1557.86937472
_cell_formula_units_Z   4
loop_
 _symmetry_equiv_pos_site_id
 _symmetry_equiv_pos_as_xyz
  1  'x, y, z'
loop_
 _atom_site_type_symbol
 _atom_site_label
 _atom_site_symmetry_multiplicity
 _atom_site_fract_x
 _atom_site_fract_y
 _atom_site_fract_z
 _atom_site_occupancy
 _atom_site_pbe_bader_charge
 _atom_site_pbe_bader_spin_density
 _atom_site_pbe_cm5_charge
 _atom_site_pbe_ddec_charge
 _atom_site_pbe_ddec_spin_density
 _atom_site_pbe_ddec_sum_bond_order
 _atom_site_pbe_magmom
Ag  Ag0  1  0.99546888  0.42710566  0.24998619  1  0.376901  0  0.313315  0.32183  0  2.599239  0
Ag  Ag1  1  0.00451694  0.57291908  0.74999363  1  0.37687  0  0.313319  0.321842  0  2.599325  0
Ag  Ag2  1  0.50639258  0.84691151  0.36121736  1  0.372172  0  0.318646  0.306417  0  2.614663  0
Ag  Ag3  1  0.49339113  0.15280831  0.86130341  1  0.372292  0  0.318558  0.306367  0  2.614229  0
Ag  Ag4  1  0.49385455  0.15330492  0.63881611  1  0.371566  0  0.318624  0.306579  0  2.614114  0
Ag  Ag5  1  0.50635544  0.84692661  0.13874811  1  0.372352  0  0.318678  0.306588  0  2.614374  0
Ag  Ag6  1  0.93530274  0.75633493  0.24999150  1  0.434633  0  0.306568  0.375881  0  2.484251  0
Ag  Ag7  1  0.06459451  0.24366489  0.75033680  1  0.434331  0  0.30647  0.375834  0  2.484518  0
H  H8  1  0.13525472  0.28886224  0.50619781  1  0.491369  0  0.275904  0.249971  0  1.029198  0
H  H9  1  0.86475599  0.71109759  0.00621321  1  0.491837  0  0.275955  0.249976  0  1.029119  0
H  H10  1  0.86484259  0.71113683  0.49378094  1  0.491927  0  0.275906  0.249927  0  1.029062  0
H  H11  1  0.13515446  0.28890677  0.99375385  1  0.492443  0  0.275969  0.249858  0  1.029252  0
H  H12  1  0.74230286  0.45797661  0.38735949  1  0.48763  0  0.293557  0.263058  0  0.998942  0
H  H13  1  0.25783610  0.54207907  0.88735896  1  0.48833  0  0.293634  0.263252  0  0.998837  0
H  H14  1  0.25776479  0.54199378  0.61260917  1  0.487989  0  0.29363  0.263155  0  0.999277  0
H  H15  1  0.74212559  0.45796302  0.11260917  1  0.487863  0  0.293668  0.263381  0  0.998659  0
H  H16  1  0.61360760  0.76063240  0.61798304  1  0.49445  0  0.279415  0.253927  0  1.031583  0
H  H17  1  0.38625648  0.23937271  0.11802395  1  0.494879  0  0.279477  0.253906  0  1.031545  0
H  H18  1  0.38642541  0.23934479  0.38202811  1  0.494628  0  0.279556  0.254176  0  1.031605  0
H  H19  1  0.61368234  0.76064523  0.88197499  1  0.493973  0  0.279466  0.253976  0  1.031539  0
H  H20  1  0.26702238  0.95243865  0.50102580  1  0.486443  0  0.294  0.263064  0  0.988317  0
H  H21  1  0.73292325  0.04762156  0.00104067  1  0.487158  0  0.29409  0.263382  0  0.988183  0
H  H22  1  0.73320137  0.04761627  0.49898802  1  0.48633  0  0.293939  0.263067  0  0.988843  0
H  H23  1  0.26688752  0.95232167  0.99898164  1  0.486651  0  0.294058  0.26313  0  0.988402  0
H  H24  1  0.87302757  0.37836634  0.59568486  1  0.084188  0  0.0927  0.092794  0  1.006121  0
H  H25  1  0.12704355  0.62162594  0.09570557  1  0.090502  0  0.092717  0.092705  0  1.006231  0
H  H26  1  0.12709524  0.62165009  0.40429549  1  0.090877  0  0.092666  0.092615  0  1.006282  0
H  H27  1  0.87283871  0.37836709  0.90426574  1  0.090969  0  0.092737  0.092786  0  1.006526  0
H  H28  1  0.75755234  0.27210937  0.55014184  1  0.06914  0  0.081244  0.062075  0  1.058672  0
H  H29  1  0.24242868  0.72789649  0.05015246  1  0.069106  0  0.081195  0.061967  0  1.058557  0
H  H30  1  0.24256694  0.72790329  0.44984754  1  0.032764  0  0.081192  0.061858  0  1.058564  0
H  H31  1  0.75742258  0.27208975  0.94983585  1  0.032492  0  0.081304  0.061938  0  1.058748  0
H  H32  1  0.52365065  0.38833036  0.49737681  1  0.07853  0  0.097028  0.078596  0  1.013586  0
H  H33  1  0.47642202  0.61169890  0.99739965  1  0.077613  0  0.096871  0.078645  0  1.013085  0
H  H34  1  0.47642763  0.61165211  0.50259663  1  0.078246  0  0.096942  0.078545  0  1.013367  0
H  H35  1  0.52349875  0.38833262  0.00257538  1  0.077987  0  0.096999  0.078643  0  1.013152  0
H  H36  1  0.69550356  0.49400014  0.52141423  1  0.075493  0  0.093626  0.066522  0  1.043878  0
H  H37  1  0.30456700  0.50602308  0.02142113  1  0.075633  0  0.093732  0.066756  0  1.043884  0
H  H38  1  0.30455892  0.50600346  0.47857037  1  0.075078  0  0.093648  0.066552  0  1.044001  0
H  H39  1  0.69535113  0.49397750  0.97856027  1  0.075701  0  0.093718  0.066633  0  1.043846  0
H  H40  1  0.35822429  0.86629388  0.69852957  1  0.072473  0  0.087631  0.07456  0  1.053283  0
H  H41  1  0.64174739  0.13375274  0.19857260  1  0.062696  0  0.087801  0.074496  0  1.053297  0
H  H42  1  0.64184426  0.13370595  0.30148637  1  0.075001  0  0.087693  0.074577  0  1.053435  0
H  H43  1  0.35817241  0.86626746  0.80143537  1  0.065447  0  0.087809  0.074684  0  1.053232  0
H  H44  1  0.22709078  0.75299296  0.66647702  1  0.082727  0  0.089226  0.071067  0  1.040362  0
H  H45  1  0.77280107  0.24709366  0.16648552  1  0.082976  0  0.089078  0.070755  0  1.040317  0
H  H46  1  0.77292329  0.24702498  0.33351554  1  0.08224  0  0.089202  0.070998  0  1.040253  0
H  H47  1  0.22715042  0.75290390  0.83349961  1  0.082728  0  0.089108  0.070743  0  1.040491  0
H  H48  1  0.00462558  0.85313129  0.59374429  1  0.041254  0  0.086938  0.066284  0  1.039282  0
H  H49  1  0.99525819  0.14695458  0.09375173  1  0.087953  0  0.086955  0.066434  0  1.039036  0
H  H50  1  0.99550364  0.14692288  0.40623712  1  0.086263  0  0.086881  0.066534  0  1.039246  0
H  H51  1  0.00461330  0.85300600  0.90623499  1  0.087229  0  0.086752  0.066223  0  1.039157  0
H  H52  1  0.14387138  0.96451668  0.62419519  1  0.083805  0  0.083599  0.077864  0  1.043491  0
H  H53  1  0.85614227  0.03557145  0.12421857  1  0.084522  0  0.083589  0.077721  0  1.043973  0
H  H54  1  0.85626328  0.03550729  0.37581224  1  0.083904  0  0.083568  0.077813  0  1.043843  0
H  H55  1  0.14371841  0.96441253  0.87579949  1  0.084675  0  0.083495  0.077488  0  1.044496  0
W  W56  1  0.54044491  0.59191200  0.24999097  1  1.636828  0  0.927663  1.020255  0  5.763459  0
W  W57  1  0.45954513  0.40808707  0.74996441  1  1.63605  0  0.927623  1.020319  0  5.763766  0
W  W58  1  0.25292835  0.94438185  0.24999097  1  1.627839  0  0.893924  0.912755  0  5.722057  0
W  W59  1  0.74710037  0.05562024  0.75004356  1  1.62798  0  0.893899  0.91258  0  5.721928  0
C  C60  1  0.98490557  0.37587798  0.43161216  1  0.902962  0  0.238475  0.379578  0  4.130385  0
C  C61  1  0.01512162  0.62412487  0.93163235  1  0.903754  0  0.238734  0.379854  0  4.129682  0
C  C62  1  0.01516274  0.62413770  0.56835809  1  0.90444  0  0.238712  0.379744  0  4.12952  0
C  C63  1  0.98476404  0.37588930  0.06834853  1  0.905837  0  0.238619  0.379627  0  4.129196  0
C  C64  1  0.83293096  0.34773917  0.54300110  1  0.279252  0  -0.064531  -0.015309  0  3.798118  0
C  C65  1  0.16711691  0.65224330  0.04301545  1  0.27209  0  -0.06442  -0.014925  0  3.797291  0
C  C66  1  0.16720010  0.65226141  0.45698296  1  0.308113  0  -0.064308  -0.014744  0  3.797169  0
C  C67  1  0.83277328  0.34773011  0.95695268  1  0.308143  0  -0.06455  -0.015078  0  3.7976  0
C  C68  1  0.69062895  0.41705786  0.49965470  1  0.269413  0  -0.056527  -0.016945  0  3.821575  0
C  C69  1  0.30945639  0.58295102  0.99966161  1  0.269876  0  -0.056447  -0.017279  0  3.821108  0
C  C70  1  0.30946112  0.58293140  0.50033148  1  0.269686  0  -0.056439  -0.016952  0  3.821217  0
C  C71  1  0.69050239  0.41703824  0.00031980  1  0.268755  0  -0.056558  -0.017282  0  3.821435  0
C  C72  1  0.47764621  0.85259769  0.54235513  1  0.964818  0  0.241211  0.37646  0  4.143353  0
C  C73  1  0.52222056  0.14742025  0.04239870  1  0.963527  0  0.240915  0.376048  0  4.144154  0
C  C74  1  0.52250798  0.14743006  0.45765921  1  0.96599  0  0.240873  0.376378  0  4.144671  0
C  C75  1  0.47764587  0.85255618  0.95761299  1  0.964394  0  0.241088  0.376406  0  4.144279  0
C  C76  1  0.30692961  0.82475323  0.65065925  1  0.278352  0  -0.058643  -0.013735  0  3.791094  0
C  C77  1  0.69299379  0.17530924  0.15069378  1  0.277862  0  -0.058453  -0.012842  0  3.7904  0
C  C78  1  0.69315118  0.17525867  0.34934022  1  0.27639  0  -0.058674  -0.013486  0  3.791239  0
C  C79  1  0.30692248  0.82468832  0.84930356  1  0.275567  0  -0.05825  -0.012915  0  3.790446  0
C  C80  1  0.16428943  0.88852990  0.60253129  1  0.303594  0  -0.063759  -0.019163  0  3.804639  0
C  C81  1  0.83560536  0.11155370  0.10254988  1  0.255661  0  -0.063875  -0.01942  0  3.804407  0
C  C82  1  0.83584132  0.11150464  0.39747137  1  0.25814  0  -0.063751  -0.019364  0  3.805084  0
C  C83  1  0.16426889  0.88842046  0.89745809  1  0.256911  0  -0.063666  -0.018923  0  3.804785  0
S  S84  1  0.16397796  0.36944536  0.36391970  1  -0.177119  0  -0.188176  -0.386748  0  2.615466  0
S  S85  1  0.83605068  0.63051824  0.86393564  1  -0.177641  0  -0.188167  -0.386645  0  2.615617  0
S  S86  1  0.83607227  0.63052729  0.63605002  1  -0.177459  0  -0.188294  -0.386777  0  2.615203  0
S  S87  1  0.16387130  0.36950876  0.13603143  1  -0.178273  0  -0.188217  -0.386726  0  2.615534  0
S  S88  1  0.67944479  0.85716309  0.48066127  1  -0.193953  0  -0.181492  -0.355062  0  2.582659  0
S  S89  1  0.32036337  0.14280580  0.98072927  1  -0.193299  0  -0.181384  -0.354835  0  2.583472  0
S  S90  1  0.32075045  0.14285787  0.51936157  1  -0.193804  0  -0.18137  -0.354855  0  2.582516  0
S  S91  1  0.67942013  0.85715554  0.01930792  1  -0.193085  0  -0.181594  -0.355204  0  2.582957  0
S  S92  1  0.59678315  0.42820002  0.24998459  1  -0.689995  0  -0.405727  -0.492721  0  2.594409  0
S  S93  1  0.40320356  0.57179754  0.75001966  1  -0.690013  0  -0.405782  -0.49283  0  2.594388  0
S  S94  1  0.19331901  0.60628745  0.25000372  1  -0.643274  0  -0.421567  -0.544693  0  2.981787  0
S  S95  1  0.80666546  0.39372144  0.74998831  1  -0.643198  0  -0.421484  -0.544751  0  2.982083  0
S  S96  1  0.66930942  0.66201335  0.34929719  1  -0.724826  0  -0.40919  -0.514017  0  2.581927  0
S  S97  1  0.33065304  0.33786873  0.84923982  1  -0.724956  0  -0.409207  -0.513949  0  2.583055  0
S  S98  1  0.33080600  0.33808534  0.65063269  1  -0.723556  0  -0.409087  -0.514142  0  2.580788  0
S  S99  1  0.66925178  0.66201335  0.15067731  1  -0.724536  0  -0.409111  -0.514116  0  2.582108  0
S  S100  1  0.61634579  0.94299238  0.24998406  1  -0.669744  0  -0.393217  -0.500388  0  2.890224  0
S  S101  1  0.38366916  0.05699839  0.74996972  1  -0.669632  0  -0.393092  -0.500174  0  2.889748  0
S  S102  1  0.11221856  0.87571449  0.34980026  1  -0.669338  0  -0.396224  -0.463918  0  2.673198  0
S  S103  1  0.88758249  0.12411477  0.84994422  1  -0.669115  0  -0.396261  -0.464144  0  2.67458  0
S  S104  1  0.88802784  0.12443704  0.65031714  1  -0.669067  0  -0.396202  -0.463906  0  2.672416  0
S  S105  1  0.11219468  0.87573487  0.15017955  1  -0.669625  0  -0.396276  -0.464038  0  2.673196  0
S  S106  1  0.17530148  0.10122062  0.25000478  1  -0.597205  0  -0.343653  -0.368745  0  2.123809  0
S  S107  1  0.82478187  0.89878374  0.74996228  1  -0.597344  0  -0.343679  -0.368634  0  2.123537  0
N  N108  1  0.02350281  0.34236922  0.49786872  1  -1.225746  0  -0.423278  -0.315733  0  3.496566  0
N  N109  1  0.97651411  0.65758834  0.99789210  1  -1.225755  0  -0.423478  -0.315994  0  3.496332  0
N  N110  1  0.97659341  0.65761702  0.50210312  1  -1.226225  0  -0.423362  -0.315733  0  3.496209  0
N  N111  1  0.02339845  0.34242205  0.00207603  1  -1.226237  0  -0.423472  -0.315767  0  3.495166  0
N  N112  1  0.79084566  0.41588953  0.42925990  1  -1.203094  0  -0.415686  -0.309862  0  3.51189  0
N  N113  1  0.20921938  0.58412539  0.92926893  1  -1.203497  0  -0.415941  -0.310163  0  3.511104  0
N  N114  1  0.20924576  0.58411558  0.57072682  1  -1.203518  0  -0.415986  -0.310174  0  3.511583  0
N  N115  1  0.79071169  0.41587670  0.07070717  1  -1.203697  0  -0.415788  -0.310029  0  3.51201  0
N  N116  1  0.49256987  0.80781394  0.60543550  1  -1.248136  0  -0.409788  -0.299435  0  3.548232  0
N  N117  1  0.50730689  0.19218966  0.10547640  1  -1.2487  0  -0.409671  -0.299241  0  3.548621  0
N  N118  1  0.50750899  0.19217532  0.39457194  1  -1.248492  0  -0.409771  -0.299626  0  3.549155  0
N  N119  1  0.49260964  0.80781092  0.89451935  1  -1.248591  0  -0.409885  -0.29977  0  3.548795  0
N  N120  1  0.28600389  0.89450590  0.53568560  1  -1.208916  0  -0.424556  -0.334433  0  3.536756  0
N  N121  1  0.71386307  0.10551431  0.03571747  1  -1.208065  0  -0.424721  -0.334703  0  3.536806  0
N  N122  1  0.71419122  0.10553242  0.46433193  1  -1.209881  0  -0.424324  -0.334754  0  3.53763  0
N  N123  1  0.28598606  0.89442816  0.96429528  1  -1.208847  0  -0.424771  -0.334619  0  3.537695  0
