# generated using pymatgen
data_CuPH5C7O5
_symmetry_space_group_name_H-M   'P 1'
_cell_length_a   5.22274234
_cell_length_b   8.12010178
_cell_length_c   19.40494477
_cell_angle_alpha   102.12091529
_cell_angle_beta   96.87652824
_cell_angle_gamma   89.99275455
_symmetry_Int_Tables_number   1
_chemical_formula_structural   CuPH5C7O5
_chemical_formula_sum   'Cu4 P4 H20 C28 O20'
_cell_volume   798.54869713
_cell_formula_units_Z   4
loop_
 _symmetry_equiv_pos_site_id
 _symmetry_equiv_pos_as_xyz
  1  'x, y, z'
loop_
 _atom_site_type_symbol
 _atom_site_label
 _atom_site_symmetry_multiplicity
 _atom_site_fract_x
 _atom_site_fract_y
 _atom_site_fract_z
 _atom_site_occupancy
 _atom_site_hle17_ddec_charge
 _atom_site_hle17_ddec_spin_density
 _atom_site_hle17_ddec_sum_bond_order
 _atom_site_hle17_magmom
 _atom_site_hse06_10hf_bader_charge
 _atom_site_hse06_10hf_bader_spin_density
 _atom_site_hse06_10hf_ddec_charge
 _atom_site_hse06_10hf_ddec_spin_density
 _atom_site_hse06_10hf_ddec_sum_bond_order
 _atom_site_hse06_10hf_magmom
 _atom_site_hse06_ddec_charge
 _atom_site_hse06_ddec_spin_density
 _atom_site_hse06_ddec_sum_bond_order
 _atom_site_hse06_magmom
 _atom_site_pbe_cm5_charge
 _atom_site_pbe_ddec_charge
 _atom_site_pbe_ddec_spin_density
 _atom_site_pbe_ddec_sum_bond_order
 _atom_site_pbe_magmom
Cu  Cu0  1  0.24996076  0.06211851  0.99994503  1  1.055958  0.65211  1.760558  0.498  1.190091  0.661086  1.074563  0.78517  2.135597  0.66  1.159652  0.870122  2.07444  0.753  0.732984  0.999424  0.692217  2.208139  0.572
Cu  Cu1  1  0.75008097  0.93787131  0.00005677  1  1.055863  0.652103  1.760527  0.498  1.190217  0.661079  1.074438  0.785162  2.13562  0.66  1.159542  0.870103  2.074418  0.753  0.732926  0.999318  0.692204  2.208143  0.572
Cu  Cu2  1  0.25001666  0.43423442  0.99997403  1  1.07636  -0.671073  1.760753  -0.521  1.205031  -0.673896  1.089478  -0.793546  2.141783  -0.672  1.171318  -0.875011  2.08147  -0.761  0.743685  1.019076  -0.702178  2.206754  -0.586
Cu  Cu3  1  0.75001072  0.56575152  0.00002196  1  1.076229  -0.671055  1.76082  -0.521  1.204813  -0.673883  1.089351  -0.793539  2.14183  -0.672  1.171147  -0.87499  2.081515  -0.761  0.743689  1.018887  -0.702165  2.206846  -0.586
P  P4  1  0.21078348  0.79393424  0.09254966  1  1.479523  -0.001256  4.739408  -0.001  3.438154  -0.000545  1.362415  -0.000559  5.209759  0.0  1.426105  -0.000415  5.16561  0.0  0.354139  1.315941  -0.000536  5.234999  0.0
P  P5  1  0.28951649  0.70111572  0.90743727  1  1.479864  -0.001288  4.737764  -0.001  3.384486  -0.000594  1.362587  -0.00057  5.209004  0.0  1.426249  -0.000439  5.164837  0.0  0.35307  1.316096  -0.000536  5.234258  0.0
P  P6  1  0.78923320  0.20605042  0.90745217  1  1.479769  -0.001258  4.7392  -0.001  3.438474  -0.000546  1.362788  -0.000563  5.209432  0.0  1.426462  -0.000415  5.165283  0.0  0.354284  1.316318  -0.000536  5.234655  0.0
P  P7  1  0.71050758  0.29887903  0.09256148  1  1.479621  -0.001287  4.738046  -0.001  3.383659  -0.000584  1.362325  -0.000572  5.209358  0.0  1.425986  -0.000439  5.16518  0.0  0.352995  1.315839  -0.000537  5.2346  0.0
H  H8  1  0.83628179  0.98080693  0.17071365  1  0.115574  -7.7e-05  0.955732  0.0  0.135401  3.5e-05  0.123816  3e-05  1.01669  0.0  0.126303  4e-06  1.016072  0.0  0.106355  0.121759  5.6e-05  1.01759  0.0
H  H9  1  0.66393307  0.80963761  0.82928560  1  0.115094  -8e-05  0.956637  0.0  0.136812  3.4e-05  0.123818  3e-05  1.017019  0.0  0.126334  4e-06  1.016339  0.0  0.106173  0.121758  5.6e-05  1.017911  0.0
H  H10  1  0.16374230  0.01920670  0.82928314  1  0.115605  -7.7e-05  0.955564  0.0  0.135401  3.5e-05  0.123789  3e-05  1.016612  0.0  0.126273  4e-06  1.016007  0.0  0.106335  0.121734  5.6e-05  1.01751  0.0
H  H11  1  0.33610179  0.19035088  0.17070871  1  0.114986  -7.8e-05  0.956925  0.0  0.136209  3.4e-05  0.123759  3e-05  1.01723  0.0  0.126271  4e-06  1.016555  0.0  0.106162  0.121699  5.6e-05  1.018117  0.0
H  H12  1  0.78326155  0.05093964  0.29953123  1  0.099486  -4e-05  0.971684  0.0  0.136062  -8e-05  0.104898  -4.5e-05  1.040765  0.0  0.107291  -2.8e-05  1.040914  0.0  0.10413  0.1032  -5.8e-05  1.040652  0.0
H  H13  1  0.71608647  0.75090790  0.70041222  1  0.099384  -4e-05  0.972409  0.0  0.120259  -8.2e-05  0.10515  -4.5e-05  1.041015  0.0  0.10749  -2.8e-05  1.041236  0.0  0.104181  0.103517  -5.8e-05  1.040808  0.0
H  H14  1  0.21671032  0.94909136  0.70046130  1  0.099387  -3.9e-05  0.971885  0.0  0.136082  -8e-05  0.104859  -4.5e-05  1.040898  0.0  0.107287  -2.8e-05  1.041011  0.0  0.104186  0.103163  -5.8e-05  1.040783  0.0
H  H15  1  0.28392506  0.24906788  0.29958151  1  0.099398  -4e-05  0.972291  0.0  0.120058  -8.2e-05  0.105139  -4.5e-05  1.040949  0.0  0.107494  -2.8e-05  1.041137  0.0  0.104168  0.103497  -5.8e-05  1.040778  0.0
H  H16  1  0.46918295  0.78263087  0.34673826  1  0.106519  6.6e-05  0.950682  0.0  0.13014  3.9e-05  0.11224  1.3e-05  1.017565  0.0  0.115259  6e-06  1.016301  0.0  0.106996  0.110108  2.2e-05  1.018443  0.0
H  H17  1  0.03088263  0.43472578  0.65326363  1  0.105933  6.4e-05  0.950283  0.0  0.108411  3.8e-05  0.111604  1.3e-05  1.017327  0.0  0.114497  5e-06  1.016209  0.0  0.107017  0.109525  2.1e-05  1.018179  0.0
H  H18  1  0.53079393  0.21739774  0.65327583  1  0.10662  6.7e-05  0.950654  0.0  0.13032  3.9e-05  0.112301  1.3e-05  1.017564  0.0  0.115325  6e-06  1.016279  0.0  0.107013  0.110165  2.2e-05  1.018454  0.0
H  H19  1  0.96912280  0.56528023  0.34673777  1  0.105885  6.4e-05  0.950263  0.0  0.108447  3.8e-05  0.111558  1.3e-05  1.017317  0.0  0.114459  5e-06  1.016183  0.0  0.107014  0.109452  2.1e-05  1.018201  0.0
H  H20  1  0.52398916  0.70924129  0.21808512  1  0.100918  -0.000204  0.95568  0.0  0.10603  -8.6e-05  0.110541  -8.9e-05  1.01712  0.0  0.112273  -7.1e-05  1.018456  0.0  0.103854  0.109136  -9e-05  1.016573  0.0
H  H21  1  0.97648423  0.49024434  0.78199321  1  0.100755  -0.000204  0.955772  0.0  0.11657  -8.7e-05  0.111383  -8.9e-05  1.015981  0.0  0.113047  -7.1e-05  1.017388  0.0  0.104216  0.110012  -9e-05  1.015414  0.0
H  H22  1  0.47601830  0.29076229  0.78193055  1  0.101001  -0.000203  0.955517  0.0  0.105978  -8.6e-05  0.110642  -8.9e-05  1.016937  0.0  0.112344  -7.1e-05  1.018305  0.0  0.103945  0.109236  -9e-05  1.016386  0.0
H  H23  1  0.02353298  0.50975922  0.21801029  1  0.100796  -0.000205  0.955706  0.0  0.116948  -8.7e-05  0.111386  -8.9e-05  1.015959  0.0  0.113051  -7.1e-05  1.017365  0.0  0.104218  0.110017  -9e-05  1.015393  0.0
H  H24  1  0.18747517  0.92225799  0.50050511  1  0.40564  0.0  0.888074  0.0  0.683931  1e-06  0.373857  5e-06  0.965701  0.0  0.387134  2e-06  0.947094  0.0  0.305334  0.364569  7e-06  0.976802  0.0
H  H25  1  0.31241161  0.42141202  0.49944213  1  0.405941  -1e-05  0.887276  0.0  0.681263  -3e-06  0.374525  1e-06  0.964528  0.0  0.387798  1e-06  0.945925  0.0  0.305687  0.365245  1e-06  0.975443  0.0
H  H26  1  0.81248273  0.07775286  0.49949929  1  0.405551  1e-06  0.888303  0.0  0.683898  1e-06  0.37379  5e-06  0.965801  0.0  0.387062  2e-06  0.947204  0.0  0.305331  0.364505  7e-06  0.976959  0.0
H  H27  1  0.68756239  0.57860767  0.50055307  1  0.405885  -9e-06  0.887467  0.0  0.681282  -3e-06  0.374486  1e-06  0.964609  0.0  0.387762  0.0  0.946005  0.0  0.30567  0.365202  1e-06  0.97561  0.0
C  C28  1  0.18445520  0.84168191  0.18629197  1  -0.203387  0.001884  3.704576  0.002  -0.632626  -0.00042  -0.169066  -0.000139  3.939787  0.0  -0.180737  -0.000608  3.961582  -0.001  -0.012459  -0.16157  0.000311  3.926711  0.0
C  C29  1  0.31606712  0.65453021  0.81371263  1  -0.203168  0.002177  3.702071  0.002  -0.580075  -0.000341  -0.170103  -8.3e-05  3.939458  0.0  -0.181808  -0.000577  3.961288  -0.001  -0.012201  -0.162497  0.000398  3.926203  0.0
C  C30  1  0.81555221  0.15830775  0.81371165  1  -0.203013  0.001893  3.704287  0.002  -0.633303  -0.000422  -0.168824  -0.00014  3.93966  0.0  -0.180484  -0.000604  3.961434  -0.001  -0.012395  -0.161336  0.000311  3.926599  0.0
C  C31  1  0.68394542  0.34546827  0.18628568  1  -0.20309  0.002176  3.702285  0.002  -0.580109  -0.000341  -0.170003  -8.3e-05  3.939609  0.0  -0.181709  -0.000576  3.961448  -0.001  -0.012109  -0.16239  0.000397  3.926339  0.0
C  C32  1  0.97567314  0.93844386  0.20925606  1  -0.038312  0.003883  3.702022  0.003  -0.055922  0.001907  -0.058652  0.001124  3.947248  0.001  -0.05987  0.000932  3.969249  0.001  -0.077666  -0.05829  0.001178  3.933341  0.001
C  C33  1  0.52461680  0.72847718  0.79075049  1  -0.036865  0.003881  3.700379  0.003  0.003377  0.001937  -0.05733  0.00114  3.945445  0.001  -0.05853  0.000938  3.967412  0.001  -0.077512  -0.05699  0.0012  3.931538  0.001
C  C34  1  0.02430890  0.06155575  0.79074375  1  -0.038485  0.00386  3.702186  0.003  -0.055814  0.001908  -0.058766  0.001124  3.947536  0.001  -0.059979  0.000929  3.969521  0.001  -0.077703  -0.058408  0.001177  3.933634  0.001
C  C35  1  0.47540297  0.27151250  0.20924567  1  -0.036726  0.003874  3.700808  0.003  0.003856  0.001935  -0.057212  0.001139  3.945806  0.001  -0.058415  0.000936  3.967779  0.001  -0.077406  -0.056871  0.001199  3.931894  0.001
C  C36  1  0.94549829  0.97764840  0.28095124  1  -0.062058  -0.002722  3.720793  -0.003  -0.058714  -0.001031  -0.084545  -0.000589  3.970197  -0.001  -0.085058  -0.000667  3.991306  -0.001  -0.074999  -0.083873  -0.000442  3.955721  -0.001
C  C37  1  0.55439418  0.69585676  0.71903903  1  -0.06344  -0.002701  3.721843  -0.003  -0.01505  -0.001041  -0.085872  -0.000592  3.971309  -0.001  -0.086369  -0.000669  3.992489  -0.001  -0.075079  -0.085226  -0.000441  3.956775  -0.001
C  C38  1  0.05447207  0.02234737  0.71904798  1  -0.062001  -0.002705  3.720803  -0.003  -0.058328  -0.001031  -0.084506  -0.000589  3.970227  -0.001  -0.085045  -0.000666  3.99131  -0.001  -0.075034  -0.083836  -0.000442  3.955757  -0.001
C  C39  1  0.44561177  0.30413159  0.28095465  1  -0.063431  -0.002697  3.721852  -0.003  -0.014794  -0.00104  -0.085908  -0.000592  3.971276  -0.001  -0.086388  -0.000668  3.992473  -0.001  -0.075152  -0.085279  -0.000441  3.956729  -0.001
C  C40  1  0.12189890  0.92039679  0.33043502  1  -0.068497  0.007493  3.755907  0.007  -0.049305  0.003115  -0.049901  0.001883  3.991921  0.002  -0.057621  0.001362  4.014088  0.001  -0.011481  -0.044876  0.002227  3.976877  0.002
C  C41  1  0.37786728  0.58902171  0.66957525  1  -0.066498  0.007702  3.7556  0.007  -0.104054  0.003186  -0.048378  0.001922  3.99278  0.002  -0.056126  0.001378  4.014964  0.001  -0.010282  -0.043334  0.00229  3.977715  0.002
C  C42  1  0.87805674  0.07961529  0.66956686  1  -0.068342  0.007477  3.755594  0.007  -0.050011  0.003113  -0.049819  0.001881  3.991775  0.002  -0.057541  0.001361  4.013945  0.001  -0.011544  -0.044798  0.002226  3.976737  0.002
C  C43  1  0.62213704  0.41096916  0.33042015  1  -0.066696  0.007696  3.755602  0.007  -0.10403  0.003184  -0.048372  0.00192  3.992666  0.002  -0.056176  0.001377  4.014925  0.001  -0.010275  -0.043287  0.002289  3.977542  0.002
C  C44  1  0.33166570  0.82490464  0.30773642  1  -0.06137  -0.002534  3.695564  -0.003  -0.097847  -0.000776  -0.087119  -0.000438  3.950813  -0.001  -0.087349  -0.000583  3.970816  -0.001  -0.074097  -0.086695  -0.000243  3.937087  0.0
C  C45  1  0.16851619  0.51599544  0.69229091  1  -0.06134  -0.002511  3.695228  -0.003  0.029136  -0.000789  -0.08689  -0.000436  3.951436  -0.001  -0.087032  -0.000585  3.971464  -0.001  -0.0748  -0.08652  -0.000237  3.93767  0.0
C  C46  1  0.66831572  0.17509878  0.69227196  1  -0.061923  -0.002525  3.695599  -0.003  -0.097345  -0.000774  -0.087574  -0.000436  3.950884  -0.001  -0.087798  -0.000582  3.970877  -0.001  -0.074246  -0.087148  -0.000242  3.937142  0.0
C  C47  1  0.83149065  0.48400049  0.30770808  1  -0.061175  -0.002504  3.695166  -0.003  0.029167  -0.000788  -0.086785  -0.000435  3.951347  -0.001  -0.086912  -0.000584  3.97139  -0.001  -0.074793  -0.086404  -0.000237  3.937586  0.0
C  C48  1  0.36279435  0.78523596  0.23576673  1  -0.041905  0.004683  3.724002  0.005  0.060155  0.00264  -0.061752  0.001571  3.970646  0.002  -0.062576  0.001233  3.993073  0.001  -0.076815  -0.061493  0.001762  3.956123  0.002
C  C49  1  0.13765253  0.54838676  0.76427222  1  -0.041987  0.004725  3.72335  0.005  -0.089461  0.00271  -0.062318  0.001592  3.970146  0.002  -0.063074  0.001244  3.992552  0.001  -0.077142  -0.062113  0.001791  3.955593  0.002
C  C50  1  0.63719512  0.21477129  0.76424371  1  -0.041896  0.004677  3.723363  0.005  0.060272  0.002642  -0.061745  0.001572  3.970052  0.002  -0.062544  0.001231  3.992481  0.001  -0.07681  -0.061482  0.001763  3.955523  0.002
C  C51  1  0.86235635  0.45160793  0.23572774  1  -0.042093  0.004721  3.723425  0.005  -0.090039  0.002709  -0.062391  0.001591  3.970226  0.002  -0.063148  0.001241  3.992634  0.001  -0.077173  -0.062187  0.001791  3.955663  0.002
C  C52  1  0.07381575  0.95905956  0.40607741  1  0.663525  -0.000246  3.798288  -0.001  1.575749  0.000137  0.613065  5.9e-05  4.094915  0.0  0.647511  2.1e-05  4.084826  0.0  0.243863  0.58966  0.0001  4.101349  0.0
C  C53  1  0.42573955  0.55227710  0.59392872  1  0.663278  -0.000306  3.800019  -0.001  1.579497  0.000106  0.61179  3.9e-05  4.098474  0.0  0.646245  1.1e-05  4.088424  0.0  0.243545  0.588384  7.5e-05  4.104869  0.0
C  C54  1  0.92613785  0.04095125  0.59392378  1  0.66385  -0.000246  3.797617  -0.001  1.575592  0.000137  0.613298  5.9e-05  4.094418  0.0  0.647747  2.2e-05  4.084323  0.0  0.243864  0.589892  0.0001  4.100858  0.0
C  C55  1  0.57424943  0.44773762  0.40606431  1  0.663337  -0.000307  3.799682  -0.001  1.580151  0.000106  0.611663  4e-05  4.098379  0.0  0.646128  1e-05  4.08834  0.0  0.243469  0.588248  7.5e-05  4.104772  0.0
O  O56  1  0.35327676  0.94385997  0.07534689  1  -0.821737  0.060799  2.087978  0.085  -1.398154  0.065775  -0.797735  0.038762  2.404545  0.058  -0.843213  0.030673  2.381993  0.048  -0.372777  -0.759803  0.039996  2.417096  0.058
O  O57  1  0.14684151  0.86828604  0.92448308  1  -0.822082  0.060917  2.087598  0.085  -1.401901  0.06592  -0.797409  0.038838  2.402846  0.058  -0.843004  0.030732  2.380514  0.048  -0.371997  -0.759507  0.040063  2.415471  0.058
O  O58  1  0.64673432  0.05612593  0.92465596  1  -0.821823  0.060803  2.087997  0.085  -1.398331  0.065779  -0.797759  0.038764  2.404333  0.058  -0.843294  0.030676  2.381939  0.048  -0.372796  -0.759886  0.039997  2.417018  0.058
O  O59  1  0.85319450  0.13171633  0.07551763  1  -0.821896  0.060899  2.087467  0.085  -1.401613  0.065897  -0.797315  0.038831  2.402835  0.058  -0.842896  0.030728  2.380475  0.048  -0.371965  -0.759477  0.040052  2.415597  0.058
O  O60  1  0.35480787  0.62864075  0.07484527  1  -0.820468  -0.057936  2.085063  -0.082  -1.406884  -0.062427  -0.790329  -0.036499  2.393311  -0.055  -0.833304  -0.028968  2.369592  -0.045  -0.373332  -0.755267  -0.038009  2.407175  -0.055
O  O61  1  0.14520084  0.55384407  0.92523389  1  -0.820731  -0.058019  2.083449  -0.082  -1.402327  -0.062436  -0.790696  -0.036499  2.391735  -0.055  -0.833791  -0.028946  2.368259  -0.045  -0.373505  -0.755512  -0.038046  2.405373  -0.056
O  O62  1  0.64519898  0.37134512  0.92515491  1  -0.820587  -0.057943  2.085155  -0.082  -1.406766  -0.062434  -0.790495  -0.036503  2.393417  -0.055  -0.833458  -0.028971  2.369678  -0.045  -0.373411  -0.755438  -0.038014  2.40732  -0.055
O  O63  1  0.85483253  0.44614946  0.07476290  1  -0.820616  -0.058027  2.083289  -0.082  -1.402095  -0.062444  -0.790516  -0.036502  2.391547  -0.055  -0.833639  -0.028949  2.368139  -0.045  -0.37348  -0.755326  -0.038048  2.405187  -0.056
O  O64  1  0.92526904  0.77803450  0.05431016  1  -0.834366  -0.005916  2.180301  -0.009  -1.370426  -0.002668  -0.796169  -0.001376  2.50868  -0.002  -0.845731  -0.00077  2.48485  -0.001  -0.38984  -0.754557  -0.001894  2.521644  -0.003
O  O65  1  0.57495760  0.72357083  0.94572285  1  -0.835291  -0.005885  2.181429  -0.009  -1.371901  -0.002713  -0.796563  -0.001354  2.509271  -0.002  -0.846058  -0.000762  2.485384  -0.001  -0.389653  -0.754982  -0.001858  2.522263  -0.003
O  O66  1  0.07474918  0.22195268  0.94568884  1  -0.834558  -0.005924  2.180462  -0.009  -1.370545  -0.002673  -0.796336  -0.001379  2.508714  -0.002  -0.84591  -0.000773  2.484898  -0.001  -0.389836  -0.754725  -0.001897  2.521683  -0.003
O  O67  1  0.42507715  0.27641640  0.05427084  1  -0.83518  -0.005895  2.181484  -0.009  -1.371731  -0.002722  -0.796478  -0.001358  2.509356  -0.002  -0.845966  -0.000763  2.485466  -0.001  -0.389641  -0.754911  -0.001862  2.522358  -0.003
O  O68  1  0.23931416  0.89473850  0.44930103  1  -0.529065  0.000227  2.078692  0.0  -1.209262  0.000178  -0.479978  9.2e-05  2.288016  0.0  -0.501819  5.7e-05  2.269098  0.0  -0.318157  -0.464862  0.000118  2.299241  0.0
O  O69  1  0.26051507  0.44454251  0.55061430  1  -0.529123  0.000278  2.078797  0.0  -1.202188  0.000196  -0.479825  0.000106  2.287939  0.0  -0.501663  6.3e-05  2.269046  0.0  -0.318746  -0.464703  0.000143  2.299011  0.0
O  O70  1  0.76064756  0.10527866  0.55070244  1  -0.529141  0.000227  2.078747  0.0  -1.208651  0.000177  -0.479996  9.2e-05  2.288047  0.0  -0.501836  5.7e-05  2.269125  0.0  -0.318147  -0.464883  0.000118  2.299319  0.0
O  O71  1  0.73949580  0.55546226  0.44938504  1  -0.529139  0.000277  2.078745  0.0  -1.202286  0.000196  -0.47983  0.000106  2.287892  0.0  -0.501673  6.3e-05  2.268989  0.0  -0.318752  -0.464705  0.000143  2.29903  0.0
O  O72  1  0.88480994  0.04412762  0.42462881  1  -0.556001  0.001072  1.976763  0.001  -1.183569  0.000492  -0.507576  0.000281  2.184792  0.0  -0.5299  0.000205  2.173901  0.0  -0.281512  -0.492346  0.000342  2.19162  0.0
O  O73  1  0.61433178  0.61922035  0.57543868  1  -0.555975  0.001111  1.9765  0.002  -1.190704  0.000503  -0.507449  0.00029  2.185315  0.0  -0.529753  0.000211  2.174381  0.0  -0.281198  -0.492231  0.000357  2.192123  0.001
O  O74  1  0.11513134  0.95586171  0.57536921  1  -0.556076  0.001071  1.97647  0.001  -1.184055  0.000493  -0.507637  0.000281  2.184607  0.0  -0.529969  0.000205  2.173713  0.0  -0.281427  -0.492401  0.000342  2.191422  0.0
O  O75  1  0.38564431  0.38081572  0.42455594  1  -0.555981  0.001111  1.976453  0.002  -1.191158  0.000503  -0.507377  0.00029  2.185353  0.0  -0.529678  0.00021  2.174415  0.0  -0.281154  -0.492156  0.000357  2.192145  0.001
