# generated using pymatgen
data_ZnH18C25(N2O3)2
_symmetry_space_group_name_H-M   'P 1'
_cell_length_a   9.55644063
_cell_length_b   10.79587951
_cell_length_c   23.74044900
_cell_angle_alpha   90.32248701
_cell_angle_beta   89.50506490
_cell_angle_gamma   89.80894336
_symmetry_Int_Tables_number   1
_chemical_formula_structural   ZnH18C25(N2O3)2
_chemical_formula_sum   'Zn2 H36 C50 N8 O12'
_cell_volume   2449.16223887
_cell_formula_units_Z   2
loop_
 _symmetry_equiv_pos_site_id
 _symmetry_equiv_pos_as_xyz
  1  'x, y, z'
loop_
 _atom_site_type_symbol
 _atom_site_label
 _atom_site_symmetry_multiplicity
 _atom_site_fract_x
 _atom_site_fract_y
 _atom_site_fract_z
 _atom_site_occupancy
 _atom_site_pbe_bader_charge
 _atom_site_pbe_bader_spin_density
 _atom_site_pbe_cm5_charge
 _atom_site_pbe_ddec_charge
 _atom_site_pbe_ddec_spin_density
 _atom_site_pbe_ddec_sum_bond_order
 _atom_site_pbe_magmom
Zn  Zn0  1  0.64362597  0.49663641  0.50056712  1  1.279609  0  0.670695  0.807511  0  2.391425  0
Zn  Zn1  1  0.35661651  0.49375353  0.50111388  1  1.272834  0  0.670818  0.806424  0  2.408365  0
H  H2  1  0.52271241  0.83614202  0.94163197  1  0.15606  0  0.129089  0.142302  0  0.966362  0
H  H3  1  0.26475445  0.47856369  0.67779343  1  0.071874  0  0.105  0.107071  0  1.012062  0
H  H4  1  0.71186319  0.51508103  0.68087137  1  0.098307  0  0.106046  0.10955  0  1.008641  0
H  H5  1  0.70411392  0.53004288  0.78611704  1  0.073073  0  0.110536  0.118008  0  0.978262  0
H  H6  1  0.70644194  0.90208490  0.52944788  1  -0.00655  0  0.085057  0.08002  0  1.010472  0
H  H7  1  0.27334681  0.88022322  0.48414889  1  0.015666  0  0.080903  0.071475  0  1.006064  0
H  H8  1  0.58055483  0.88944081  0.58358226  1  0.04834  0  0.097932  0.105552  0  0.965447  0
H  H9  1  0.31963393  0.90584305  0.55502567  1  0.052455  0  0.092427  0.097327  0  0.977637  0
H  H10  1  0.52761952  0.10128116  0.58199510  1  0.03718  0  0.094772  0.095258  0  0.965948  0
H  H11  1  0.30042252  0.11801957  0.53640898  1  0.036611  0  0.088949  0.086284  0  0.989372  0
H  H12  1  0.68590594  0.11743323  0.54450406  1  0.03869  0  0.090058  0.090276  0  1.006507  0
H  H13  1  0.28485290  0.09125539  0.46373386  1  0.022631  0  0.085361  0.081131  0  1.010848  0
H  H14  1  0.63570946  0.86824716  0.42607780  1  0.042122  0  0.088816  0.093147  0  1.000892  0
H  H15  1  0.45719337  0.88965040  0.40942522  1  0.009903  0  0.088533  0.090331  0  0.98408  0
H  H16  1  0.12760566  0.69108137  0.49214739  1  0.145195  0  0.139099  0.114824  0  0.943626  0
H  H17  1  0.88450364  0.69019146  0.48606217  1  0.112454  0  0.140965  0.119685  0  0.934105  0
H  H18  1  0.12561613  0.54119186  0.41821124  1  0.076267  0  0.114767  0.106852  0  0.97392  0
H  H19  1  0.87646793  0.53668015  0.41720122  1  0.087608  0  0.115572  0.107832  0  0.968819  0
H  H20  1  0.11948745  0.31406533  0.52919649  1  0.078546  0  0.120667  0.113316  0  0.959866  0
H  H21  1  0.87035394  0.31961392  0.53361144  1  0.116596  0  0.121127  0.11781  0  0.96206  0
H  H22  1  0.12478194  0.42183948  0.58557627  1  0.091433  0  0.117899  0.112595  0  0.982516  0
H  H23  1  0.87533505  0.43460237  0.58702291  1  0.06666  0  0.118643  0.112453  0  0.968066  0
H  H24  1  0.12645453  0.38180633  0.43420653  1  0.072176  0  0.125179  0.121983  0  0.944479  0
H  H25  1  0.87892802  0.37927581  0.43551946  1  0.110037  0  0.120383  0.118042  0  0.972492  0
H  H26  1  0.40858554  0.23004717  0.05730067  1  0.159089  0  0.121606  0.131896  0  0.98892  0
H  H27  1  0.41089588  0.22190687  0.95101548  1  0.125386  0  0.12379  0.129855  0  0.970008  0
H  H28  1  0.67247984  0.43712545  0.20697182  1  0.100367  0  0.123389  0.139969  0  0.960119  0
H  H29  1  0.30593493  0.63133108  0.32791479  1  0.101715  0  0.11135  0.11497  0  0.992093  0
H  H30  1  0.29154113  0.64873863  0.22297412  1  0.117271  0  0.119548  0.128306  0  0.963466  0
H  H31  1  0.25541675  0.49658771  0.78282183  1  0.097283  0  0.110669  0.117724  0  0.97596  0
H  H32  1  0.78159570  0.04707934  0.46512127  1  0.023626  0  0.081062  0.110679  0  1.029012  0
H  H33  1  0.76007196  0.04510139  0.39091001  1  0.03413  0  0.084797  0.117707  0  1.003033  0
H  H34  1  0.74169797  0.18648683  0.42869739  1  0.006107  0  0.082747  0.121784  0  1.035061  0
H  H35  1  0.51282809  0.21223563  0.37906405  1  -0.009654  0  0.084796  0.125168  0  1.009384  0
H  H36  1  0.53305338  0.06541272  0.34593336  1  0.01659  0  0.088616  0.124084  0  0.994389  0
H  H37  1  0.37812476  0.09952788  0.38477447  1  0.002339  0  0.084201  0.115091  0  1.020667  0
C  C38  1  0.50147532  0.73494279  0.50181356  1  1.531418  0  0.228292  0.602094  0  4.072901  0
C  C39  1  0.50663872  0.75263885  0.96642411  1  -0.10312  0  -0.04893  -0.102713  0  3.866603  0
C  C40  1  0.50396955  0.75949073  0.02610367  1  0.095693  0  0.030731  0.070726  0  4.022378  0
C  C41  1  0.48527975  0.65160050  0.05801699  1  0.097133  0  0.008514  -0.087031  0  3.926185  0
C  C42  1  0.46527145  0.53672466  0.03005343  1  0.031382  0  0.00674  0.03215  0  4.000462  0
C  C43  1  0.44284664  0.42590111  0.06066210  1  0.017901  0  -0.002035  -0.058989  0  3.977014  0
C  C44  1  0.42348060  0.31397456  0.03262117  1  0.072516  0  -0.050448  -0.052546  0  3.889643  0
C  C45  1  0.42554270  0.30916947  0.97347576  1  -0.004266  0  -0.051812  -0.054322  0  3.898915  0
C  C46  1  0.48989327  0.65675475  0.12045228  1  1.306257  0  0.245504  0.43296  0  4.104758  0
C  C47  1  0.44064783  0.42775756  0.12291607  1  1.272159  0  0.246119  0.432214  0  4.098336  0
C  C48  1  0.59299289  0.48146949  0.23339974  1  0.017069  0  -0.06169  -0.172383  0  3.893646  0
C  C49  1  0.49798959  0.51725846  0.38966336  1  1.576591  0  0.214647  0.584703  0  4.194862  0
C  C50  1  0.60263401  0.47420663  0.29228852  1  0.124577  0  0.019375  0.060597  0  4.042157  0
C  C51  1  0.49674065  0.52766411  0.32656171  1  0.011654  0  0.003371  -0.049913  0  3.90146  0
C  C52  1  0.38636790  0.59040456  0.30082799  1  -0.032345  0  -0.070561  -0.067235  0  3.962389  0
C  C53  1  0.37799901  0.59955534  0.24252246  1  0.013712  0  -0.067381  -0.128173  0  3.940974  0
C  C54  1  0.48093122  0.54317733  0.20912895  1  0.374086  0  0.097932  0.199586  0  4.026655  0
C  C55  1  0.35519334  0.49896670  0.76029040  1  0.047379  0  -0.080303  -0.147545  0  3.966397  0
C  C56  1  0.36043282  0.48808050  0.70189929  1  -0.027163  0  -0.073519  -0.062458  0  3.954815  0
C  C57  1  0.48911690  0.49213891  0.67326439  1  0.064838  0  -0.011808  -0.02728  0  3.94013  0
C  C58  1  0.61283646  0.50843126  0.70365631  1  -0.035787  0  -0.07386  -0.064956  0  3.94789  0
C  C59  1  0.60838278  0.51788379  0.76213799  1  -0.035505  0  -0.081745  -0.151689  0  3.969764  0
C  C60  1  0.50023479  0.25731182  0.49104645  1  1.538749  0  0.227717  0.603069  0  4.073279  0
C  C61  1  0.47943872  0.51277484  0.78996198  1  0.285279  0  0.090081  0.191626  0  4.013798  0
C  C62  1  0.59973104  0.92966572  0.54182185  1  -0.015788  0  -0.1595  -0.178369  0  3.866191  0
C  C63  1  0.34942140  0.92722689  0.51134943  1  -0.037039  0  -0.165784  -0.176067  0  3.888529  0
C  C64  1  0.58385452  0.07158628  0.54356263  1  -0.023465  0  -0.161376  -0.169554  0  3.876545  0
C  C65  1  0.34821186  0.06822495  0.50056311  1  -0.034835  0  -0.166479  -0.178303  0  3.900607  0
C  C66  1  0.53966438  0.91724416  0.43912107  1  -0.046199  0  -0.156849  -0.232691  0  3.793539  0
C  C67  1  0.49616223  0.87531337  0.49875500  1  0.055213  0  -0.01817  0.02952  0  3.815771  0
C  C68  1  0.49889338  0.11633075  0.49239024  1  0.029182  0  -0.012211  -0.035646  0  3.730163  0
C  C69  1  0.56344864  0.06020803  0.43630773  1  0.058982  0  -0.005986  0.217497  0  3.68603  0
C  C70  1  0.08405036  0.62410902  0.52225985  1  0.352401  0  0.046308  0.022474  0  3.812509  0
C  C71  1  0.91770169  0.62739038  0.51976842  1  0.355593  0  0.045126  0.020478  0  3.818769  0
C  C72  1  0.08192341  0.47166218  0.44681220  1  0.302447  0  -0.065082  -0.09273  0  3.809296  0
C  C73  1  0.92058120  0.47030756  0.44701337  1  0.157658  0  -0.068563  -0.100477  0  3.819212  0
C  C74  1  0.07910195  0.40374286  0.54415192  1  0.202118  0  -0.0655  -0.09235  0  3.793923  0
C  C75  1  0.91724432  0.40853275  0.54542905  1  0.250293  0  -0.064716  -0.093056  0  3.790821  0
C  C76  1  0.49378554  0.48258692  0.61037253  1  1.546929  0  0.22002  0.597942  0  4.151907  0
C  C77  1  0.44979241  0.40834350  0.87985571  1  1.291584  0  0.245889  0.430504  0  4.098097  0
C  C78  1  0.49487580  0.63696612  0.87609614  1  1.400544  0  0.24889  0.43311  0  4.093892  0
C  C79  1  0.48952252  0.64055931  0.93884718  1  0.04576  0  0.003073  -0.041364  0  3.980567  0
C  C80  1  0.46715966  0.53099955  0.97002200  1  -0.021742  0  0.007777  0.031077  0  4.000949  0
C  C81  1  0.44707128  0.41604945  0.94235367  1  -0.071393  0  0.000758  -0.054542  0  3.972673  0
C  C82  1  0.72103209  0.08670083  0.43044444  1  -0.064769  0  -0.248144  -0.419407  0  3.919375  0
C  C83  1  0.49200754  0.11273325  0.38378721  1  -0.000798  0  -0.244575  -0.418968  0  3.918116  0
C  C84  1  0.51950062  0.88062414  0.05004186  1  0.860878  0  0.181844  0.237654  0  4.018828  0
C  C85  1  0.13568231  0.65818827  0.57799238  1  0.890006  0  0.181106  0.229491  0  3.962772  0
C  C86  1  0.85631755  0.67455857  0.57221754  1  0.859598  0  0.179944  0.223171  0  3.960463  0
C  C87  1  0.72146002  0.40982865  0.31405754  1  0.848014  0  0.183023  0.249623  0  4.025383  0
N  N88  1  0.47443894  0.52013260  0.85082614  1  -1.187493  0  -0.22758  -0.209069  0  3.567408  0
N  N89  1  0.47082458  0.54343132  0.14863091  1  -1.20399  0  -0.231401  -0.214186  0  3.565069  0
N  N90  1  0.13462179  0.49891273  0.50453279  1  -0.982347  0  -0.324169  -0.121483  0  3.426305  0
N  N91  1  0.86552861  0.50180786  0.50432371  1  -0.975966  0  -0.323782  -0.118916  0  3.426035  0
N  N92  1  0.53024170  0.98560760  0.06147323  1  -1.083657  0  -0.294372  -0.335834  0  2.681111  0
N  N93  1  0.16949235  0.68862602  0.62296931  1  -1.083046  0  -0.279309  -0.310741  0  2.707573  0
N  N94  1  0.81507744  0.71728890  0.61434696  1  -1.073558  0  -0.275732  -0.304709  0  2.711826  0
N  N95  1  0.82335334  0.35606908  0.32590573  1  -1.142589  0  -0.318676  -0.375122  0  2.71691  0
O  O96  1  0.61923889  0.68293422  0.49167421  1  -1.174648  0  -0.317426  -0.556918  0  2.369037  0
O  O97  1  0.38945962  0.67753139  0.51422167  1  -1.176544  0  -0.309606  -0.546564  0  2.400088  0
O  O98  1  0.61336149  0.48794746  0.41220563  1  -1.159488  0  -0.302602  -0.538086  0  2.348551  0
O  O99  1  0.38255754  0.53853798  0.41502677  1  -1.16912  0  -0.314273  -0.550504  0  2.323394  0
O  O100  1  0.61627672  0.31077232  0.50098559  1  -1.169322  0  -0.31172  -0.543133  0  2.374492  0
O  O101  1  0.38558942  0.31349298  0.48070022  1  -1.172339  0  -0.317731  -0.549849  0  2.352673  0
O  O102  1  0.61103081  0.50193182  0.58608087  1  -1.166708  0  -0.312248  -0.549149  0  2.368913  0
O  O103  1  0.38004434  0.45647488  0.58519328  1  -1.172094  0  -0.31908  -0.557688  0  2.350176  0
O  O104  1  0.43256800  0.31060736  0.85430616  1  -1.085626  0  -0.264576  -0.416886  0  2.064449  0
O  O105  1  0.51578117  0.72990624  0.84783309  1  -1.074901  0  -0.26278  -0.411668  0  2.05831  0
O  O106  1  0.51115540  0.75298777  0.14679081  1  -1.079773  0  -0.254288  -0.406951  0  2.09367  0
O  O107  1  0.41573799  0.33642308  0.15169165  1  -1.078194  0  -0.260266  -0.408349  0  2.067337  0
