# generated using pymatgen
data_CoH5C6(N2O)2
_symmetry_space_group_name_H-M   'P 1'
_cell_length_a   12.57737511
_cell_length_b   12.57720271
_cell_length_c   25.34155707
_cell_angle_alpha   89.99994804
_cell_angle_beta   89.99994931
_cell_angle_gamma   90.00113644
_symmetry_Int_Tables_number   1
_chemical_formula_structural   CoH5C6(N2O)2
_chemical_formula_sum   'Co16 H80 C96 N64 O32'
_cell_volume   4008.73520424
_cell_formula_units_Z   16
loop_
 _symmetry_equiv_pos_site_id
 _symmetry_equiv_pos_as_xyz
  1  'x, y, z'
loop_
 _atom_site_type_symbol
 _atom_site_label
 _atom_site_symmetry_multiplicity
 _atom_site_fract_x
 _atom_site_fract_y
 _atom_site_fract_z
 _atom_site_occupancy
 _atom_site_pbe_bader_charge
 _atom_site_pbe_bader_spin_density
 _atom_site_pbe_cm5_charge
 _atom_site_pbe_ddec_charge
 _atom_site_pbe_ddec_spin_density
 _atom_site_pbe_ddec_sum_bond_order
 _atom_site_pbe_magmom
Co  Co0  1  0.07105408  0.96302673  0.56137530  1  1.160373  2.51812  0.698075  0.711772  2.748624  2.703957  2.457
Co  Co1  1  0.42894409  0.53697290  0.56137492  1  1.160297  2.518115  0.698073  0.711806  2.748616  2.703905  2.457
Co  Co2  1  0.53698268  0.07105718  0.56137579  1  1.16023  2.518112  0.698123  0.711939  2.748612  2.703909  2.457
Co  Co3  1  0.96301709  0.42894225  0.56137641  1  1.160263  2.518107  0.698107  0.711896  2.748606  2.70393  2.457
Co  Co4  1  0.42894638  0.96303232  0.93862552  1  1.160219  2.518027  0.698175  0.711902  2.748527  2.704482  2.457
Co  Co5  1  0.07105349  0.53696662  0.93862530  1  1.160255  2.518025  0.698214  0.711968  2.748525  2.704432  2.457
Co  Co6  1  0.96301241  0.07105311  0.93862363  1  1.160464  2.518195  0.69805  0.711888  2.748708  2.703554  2.457
Co  Co7  1  0.53698827  0.42894643  0.93862404  1  1.160473  2.518195  0.698052  0.711825  2.748712  2.703613  2.457
Co  Co8  1  0.92894579  0.03697331  0.43862516  1  1.160338  2.518118  0.69808  0.711789  2.748621  2.703964  2.457
Co  Co9  1  0.57105579  0.46302634  0.43862475  1  1.16035  2.518116  0.698075  0.711823  2.748616  2.703899  2.457
Co  Co10  1  0.46301799  0.92894286  0.43862428  1  1.160217  2.518109  0.698124  0.711946  2.748609  2.703897  2.457
Co  Co11  1  0.03698199  0.57105779  0.43862445  1  1.160189  2.518104  0.69812  0.711904  2.748602  2.703965  2.457
Co  Co12  1  0.57105349  0.03696772  0.06137494  1  1.160239  2.518027  0.698191  0.711924  2.748527  2.704438  2.457
Co  Co13  1  0.92894717  0.46303262  0.06137437  1  1.160302  2.518022  0.698171  0.711865  2.748527  2.704528  2.457
Co  Co14  1  0.03698746  0.92894614  0.06137683  1  1.160501  2.518188  0.698022  0.711822  2.748706  2.703635  2.457
Co  Co15  1  0.46301239  0.57105282  0.06137643  1  1.16048  2.518195  0.698061  0.711888  2.748713  2.703558  2.457
H  H16  1  0.04829372  0.12397737  0.64879751  1  0.532308  6.5e-05  0.302019  0.326672  0.000213  0.993607  0.0
H  H17  1  0.45170630  0.37602311  0.64879736  1  0.532261  6.5e-05  0.302028  0.326691  0.000213  0.993611  0.0
H  H18  1  0.37602510  0.04829130  0.64879548  1  0.532276  6.5e-05  0.302044  0.326667  0.000213  0.99363  0.0
H  H19  1  0.12397492  0.45170839  0.64879544  1  0.532285  6.5e-05  0.302037  0.326659  0.000213  0.993637  0.0
H  H20  1  0.45170680  0.12397562  0.85120329  1  0.532433  6.5e-05  0.302088  0.326826  0.000213  0.993515  0.0
H  H21  1  0.04829444  0.37602290  0.85120293  1  0.532291  6.5e-05  0.302011  0.326663  0.000213  0.993675  0.0
H  H22  1  0.12397789  0.04829020  0.85120535  1  0.532337  6.5e-05  0.302058  0.326701  0.000212  0.993578  0.0
H  H23  1  0.37602256  0.45170912  0.85120521  1  0.532326  6.5e-05  0.302057  0.326689  0.000212  0.99354  0.0
H  H24  1  0.95170616  0.87602267  0.35120296  1  0.532311  6.5e-05  0.302026  0.326688  0.000213  0.993607  0.0
H  H25  1  0.54829357  0.62397693  0.35120310  1  0.532316  6.5e-05  0.302041  0.326709  0.000213  0.993585  0.0
H  H26  1  0.62397557  0.95170795  0.35120459  1  0.532279  6.5e-05  0.302044  0.326673  0.000213  0.993641  0.0
H  H27  1  0.87602575  0.54829165  0.35120462  1  0.532264  6.5e-05  0.302043  0.326707  0.000213  0.993603  0.0
H  H28  1  0.54829386  0.87602362  0.14879678  1  0.532248  6.5e-05  0.302031  0.326713  0.000213  0.993613  0.0
H  H29  1  0.95170543  0.62397635  0.14879674  1  0.532283  6.5e-05  0.302033  0.326681  0.000213  0.993658  0.0
H  H30  1  0.87602277  0.95170904  0.14879471  1  0.532322  6.5e-05  0.302062  0.326717  0.000212  0.993543  0.0
H  H31  1  0.62397811  0.54829013  0.14879486  1  0.53233  6.5e-05  0.302059  0.326698  0.000212  0.99359  0.0
H  H32  1  0.02216883  0.26411797  0.64997894  1  0.528238  0.000185  0.302865  0.327154  0.000211  0.986433  0.0
H  H33  1  0.47783119  0.23588171  0.64997885  1  0.52824  0.000185  0.302861  0.32717  0.000211  0.986417  0.0
H  H34  1  0.23588272  0.02216884  0.64998368  1  0.528222  0.000185  0.302848  0.327178  0.000211  0.986432  0.0
H  H35  1  0.26411650  0.47783165  0.64998199  1  0.528186  0.000185  0.302843  0.327181  0.000211  0.98641  0.0
H  H36  1  0.47783209  0.26411197  0.85001982  1  0.528305  0.000185  0.302803  0.327132  0.000211  0.986459  0.0
H  H37  1  0.02216837  0.23588735  0.85001953  1  0.528291  0.000185  0.302807  0.327134  0.000211  0.986465  0.0
H  H38  1  0.26412452  0.02216893  0.85001795  1  0.528131  0.000185  0.302831  0.327112  0.000211  0.986449  0.0
H  H39  1  0.23587513  0.47782959  0.85001746  1  0.528098  0.000185  0.302836  0.327091  0.000211  0.986459  0.0
H  H40  1  0.97783105  0.73588127  0.35002113  1  0.528235  0.000185  0.302855  0.327166  0.000211  0.986419  0.0
H  H41  1  0.52216789  0.76411833  0.35002122  1  0.528239  0.000185  0.302864  0.327159  0.000211  0.986429  0.0
H  H42  1  0.76411795  0.97783121  0.35001638  1  0.528178  0.000185  0.302838  0.327165  0.000211  0.986439  0.0
H  H43  1  0.73588337  0.52216840  0.35001807  1  0.528234  0.000185  0.302838  0.327183  0.000211  0.986417  0.0
H  H44  1  0.52216858  0.73588807  0.14998064  1  0.528293  0.000185  0.302842  0.327212  0.000211  0.986367  0.0
H  H45  1  0.97783230  0.76411190  0.14998014  1  0.528305  0.000185  0.302811  0.327125  0.000211  0.986481  0.0
H  H46  1  0.73587535  0.97782952  0.14998290  1  0.528083  0.000185  0.302815  0.327077  0.000211  0.986483  0.0
H  H47  1  0.76412553  0.52216965  0.14998300  1  0.528087  0.000185  0.302811  0.327059  0.000211  0.986495  0.0
H  H48  1  0.06974328  0.67969415  0.65812869  1  0.08662  0.000493  0.102975  0.107111  0.000112  1.009372  0.0
H  H49  1  0.43025392  0.82030610  0.65812858  1  0.086576  0.000493  0.102986  0.107156  0.000112  1.009384  0.0
H  H50  1  0.82031594  0.06974800  0.65812748  1  0.084996  0.000493  0.103001  0.107188  0.000112  1.009422  0.0
H  H51  1  0.67968286  0.43025205  0.65812664  1  0.084955  0.000493  0.102986  0.107174  0.000112  1.009439  0.0
H  H52  1  0.43025474  0.67969358  0.84187304  1  0.086493  0.000493  0.102956  0.107118  0.000112  1.009389  0.0
H  H53  1  0.06974610  0.82030633  0.84187348  1  0.086489  0.000493  0.102944  0.107113  0.000112  1.009399  0.0
H  H54  1  0.67969025  0.06974485  0.84186957  1  0.085163  0.000493  0.103  0.107165  0.000112  1.009425  0.0
H  H55  1  0.82030663  0.43025725  0.84187065  1  0.086606  0.000493  0.103004  0.107171  0.000112  1.009394  0.0
H  H56  1  0.93025659  0.32030509  0.34187098  1  0.086625  0.000493  0.102961  0.107099  0.000112  1.009302  0.0
H  H57  1  0.56974277  0.17969315  0.34187149  1  0.086586  0.000493  0.102975  0.107095  0.000112  1.009408  0.0
H  H58  1  0.17968393  0.93025363  0.34187219  1  0.084996  0.000493  0.103013  0.107195  0.000112  1.009456  0.0
H  H59  1  0.32031542  0.56974640  0.34187224  1  0.084996  0.000493  0.102995  0.107179  0.000112  1.009399  0.0
H  H60  1  0.56974513  0.32030884  0.15812702  1  0.086502  0.000493  0.102965  0.107098  0.000112  1.009373  0.0
H  H61  1  0.93025457  0.17969292  0.15812579  1  0.086476  0.000493  0.102951  0.107097  0.000112  1.009374  0.0
H  H62  1  0.32031042  0.93025519  0.15813010  1  0.085156  0.000493  0.102987  0.107152  0.000112  1.009432  0.0
H  H63  1  0.17969006  0.56974359  0.15812982  1  0.085208  0.000493  0.102972  0.10713  0.000112  1.009454  0.0
H  H64  1  0.07411490  0.55460987  0.73493536  1  0.067484  0.000317  0.101782  0.105127  6.6e-05  1.029061  0.0
H  H65  1  0.42588375  0.94539024  0.73493520  1  0.067478  0.000317  0.1018  0.10514  6.6e-05  1.029028  0.0
H  H66  1  0.94539607  0.07412057  0.73493331  1  0.067539  0.000316  0.101827  0.105177  6.6e-05  1.028915  0.0
H  H67  1  0.55460339  0.42588172  0.73493331  1  0.067335  0.000317  0.101808  0.105128  6.6e-05  1.028963  0.0
H  H68  1  0.42587985  0.55460459  0.76506682  1  0.067581  0.000316  0.101774  0.105073  6.6e-05  1.028977  0.0
H  H69  1  0.07411875  0.94539467  0.76506720  1  0.067395  0.000317  0.10178  0.105083  6.6e-05  1.028965  0.0
H  H70  1  0.55461180  0.07411508  0.76506532  1  0.067697  0.000317  0.101791  0.105116  6.6e-05  1.029112  0.0
H  H71  1  0.94538601  0.42588239  0.76506674  1  0.067738  0.000316  0.101798  0.105092  6.6e-05  1.029126  0.0
H  H72  1  0.92588497  0.44538858  0.26506431  1  0.067504  0.000317  0.101783  0.105116  6.6e-05  1.029117  0.0
H  H73  1  0.57411533  0.05461060  0.26506408  1  0.067506  0.000317  0.101795  0.105139  6.6e-05  1.029064  0.0
H  H74  1  0.05460460  0.92587947  0.26506637  1  0.067577  0.000316  0.101812  0.105146  6.6e-05  1.028979  0.0
H  H75  1  0.44539569  0.57411832  0.26506636  1  0.067552  0.000316  0.101797  0.105103  6.6e-05  1.029012  0.0
H  H76  1  0.57411764  0.44539625  0.23493404  1  0.067369  0.000317  0.101803  0.105146  6.6e-05  1.028957  0.0
H  H77  1  0.92588271  0.05460457  0.23493247  1  0.067391  0.000317  0.101792  0.105114  6.6e-05  1.029084  0.0
H  H78  1  0.44538807  0.92588417  0.23493475  1  0.067699  0.000317  0.101796  0.105156  6.6e-05  1.029074  0.0
H  H79  1  0.05461147  0.57411686  0.23493412  1  0.067686  0.000317  0.101811  0.105172  6.6e-05  1.029016  0.0
H  H80  1  0.93645132  0.27899856  0.46516057  1  0.14265  0.001243  0.141065  0.108986  7.3e-05  0.993257  0.001
H  H81  1  0.56354782  0.22100105  0.46516027  1  0.142645  0.001244  0.141051  0.108937  7.3e-05  0.993315  0.001
H  H82  1  0.22100570  0.93644847  0.46515782  1  0.142644  0.001243  0.141043  0.108995  7.3e-05  0.993318  0.001
H  H83  1  0.27899502  0.56355055  0.46515710  1  0.142631  0.001243  0.14104  0.108967  7.3e-05  0.993334  0.001
H  H84  1  0.56354958  0.27899208  0.03484021  1  0.145364  0.00124  0.141028  0.108918  7.4e-05  0.993332  0.001
H  H85  1  0.93645034  0.22100752  0.03483975  1  0.145363  0.00124  0.14103  0.108914  7.4e-05  0.993331  0.001
H  H86  1  0.27900865  0.93645341  0.03484250  1  0.142423  0.001243  0.141063  0.108912  7.3e-05  0.993408  0.001
H  H87  1  0.22099205  0.56354559  0.03484220  1  0.142439  0.001243  0.141048  0.108876  7.3e-05  0.993375  0.001
H  H88  1  0.06354775  0.72100148  0.53483949  1  0.142647  0.001243  0.14104  0.108923  7.3e-05  0.993326  0.001
H  H89  1  0.43645205  0.77899900  0.53483979  1  0.14264  0.001243  0.141058  0.108939  7.3e-05  0.99332  0.001
H  H90  1  0.77899497  0.06355078  0.53484225  1  0.14265  0.001243  0.141058  0.10898  7.3e-05  0.993314  0.001
H  H91  1  0.72100485  0.43644950  0.53484296  1  0.142635  0.001243  0.141043  0.108974  7.3e-05  0.993328  0.001
H  H92  1  0.43645109  0.72100717  0.96516025  1  0.145364  0.00124  0.141041  0.108929  7.4e-05  0.993316  0.001
H  H93  1  0.06355112  0.77899172  0.96515992  1  0.145394  0.00124  0.14103  0.108915  7.4e-05  0.993319  0.001
H  H94  1  0.72099281  0.06354583  0.96515757  1  0.142449  0.001243  0.141055  0.108898  7.3e-05  0.993338  0.001
H  H95  1  0.77900782  0.43645365  0.96515787  1  0.142441  0.001243  0.141069  0.108893  7.3e-05  0.993418  0.001
C  C96  1  0.07038943  0.89540667  0.66202895  1  1.525691  0.005143  0.213433  0.571069  0.004342  4.178565  0.003
C  C97  1  0.42960856  0.60459517  0.66202855  1  1.525605  0.005143  0.213469  0.571138  0.004342  4.178549  0.003
C  C98  1  0.60460162  0.07038352  0.66202587  1  1.525688  0.005146  0.213702  0.571483  0.004342  4.178314  0.003
C  C99  1  0.89539797  0.42961493  0.66202690  1  1.525683  0.005147  0.213619  0.571391  0.004342  4.178495  0.003
C  C100  1  0.42961208  0.89540848  0.83797623  1  1.526144  0.005148  0.2136  0.571402  0.004345  4.178325  0.003
C  C101  1  0.07038798  0.60459144  0.83797638  1  1.526016  0.005149  0.213581  0.571331  0.004345  4.178352  0.003
C  C102  1  0.89539743  0.07038465  0.83796763  1  1.525629  0.005142  0.213563  0.571167  0.004339  4.178657  0.003
C  C103  1  0.60460184  0.42961825  0.83796762  1  1.525605  0.005141  0.213592  0.571173  0.004339  4.178767  0.003
C  C104  1  0.92961203  0.10459337  0.33797072  1  1.525693  0.005143  0.213419  0.571073  0.004342  4.178609  0.003
C  C105  1  0.57039052  0.39540567  0.33797192  1  1.525595  0.005143  0.213502  0.571206  0.004341  4.178488  0.003
C  C106  1  0.39539825  0.92961573  0.33797341  1  1.525518  0.005146  0.213579  0.571294  0.004342  4.178565  0.003
C  C107  1  0.10460031  0.57038591  0.33797395  1  1.525723  0.005146  0.21369  0.571473  0.004342  4.178389  0.003
C  C108  1  0.57038700  0.10459315  0.16202344  1  1.525879  0.00515  0.213661  0.57153  0.004345  4.178186  0.003
C  C109  1  0.92961269  0.39540780  0.16202290  1  1.526031  0.005149  0.213604  0.571393  0.004345  4.178426  0.003
C  C110  1  0.10460324  0.92961698  0.16203204  1  1.525616  0.005142  0.213599  0.571215  0.004339  4.178635  0.003
C  C111  1  0.39539723  0.57038259  0.16203205  1  1.525418  0.005142  0.21361  0.571224  0.004339  4.178646  0.003
C  C112  1  0.07083706  0.82002500  0.70723180  1  -0.048664  0.004406  -0.013198  -0.02676  0.002282  3.97033  0.003
C  C113  1  0.42915845  0.67997516  0.70723214  1  -0.048565  0.004406  -0.013121  -0.026675  0.002282  3.970235  0.003
C  C114  1  0.67998059  0.07083663  0.70723104  1  -0.048592  0.004405  -0.013284  -0.026902  0.002282  3.97017  0.003
C  C115  1  0.82001892  0.42916651  0.70723133  1  -0.048584  0.004405  -0.01323  -0.026789  0.002281  3.970265  0.003
C  C116  1  0.42916374  0.82002609  0.79277224  1  -0.049049  0.004406  -0.013235  -0.026859  0.002282  3.970098  0.003
C  C117  1  0.07083480  0.67997471  0.79277195  1  -0.04891  0.004405  -0.013303  -0.026925  0.002282  3.970305  0.003
C  C118  1  0.82002006  0.07084112  0.79276404  1  -0.048468  0.004405  -0.013181  -0.026869  0.002281  3.970526  0.003
C  C119  1  0.67997850  0.42916345  0.79276477  1  -0.048506  0.004405  -0.013236  -0.026976  0.002281  3.970811  0.003
C  C120  1  0.92916440  0.17997583  0.29276827  1  -0.048572  0.004406  -0.01325  -0.026827  0.002282  3.970476  0.003
C  C121  1  0.57083744  0.32002647  0.29276753  1  -0.048603  0.004406  -0.013212  -0.026877  0.002282  3.970386  0.003
C  C122  1  0.32001929  0.92916341  0.29276823  1  -0.048549  0.004405  -0.013195  -0.02676  0.002281  3.970198  0.003
C  C123  1  0.17998015  0.57083512  0.29276874  1  -0.048598  0.004406  -0.01326  -0.026845  0.002282  3.970131  0.003
C  C124  1  0.57083295  0.17997633  0.20722862  1  -0.048906  0.004406  -0.01333  -0.026993  0.002282  3.970299  0.003
C  C125  1  0.92916666  0.32002534  0.20722732  1  -0.049053  0.004406  -0.01327  -0.026822  0.002282  3.970157  0.003
C  C126  1  0.17997981  0.92916130  0.20723524  1  -0.04845  0.004405  -0.013167  -0.026861  0.002281  3.970519  0.003
C  C127  1  0.32001978  0.57083818  0.20723490  1  -0.048443  0.004405  -0.013139  -0.026831  0.002281  3.970538  0.003
C  C128  1  0.07056088  0.70981449  0.69843086  1  -0.000491  0.002328  -0.08068  -0.084887  0.001188  3.954298  0.001
C  C129  1  0.42943624  0.79018568  0.69843037  1  -0.000521  0.002328  -0.080708  -0.08495  0.001189  3.954244  0.001
C  C130  1  0.79019119  0.07056581  0.69842611  1  0.001946  0.002328  -0.080675  -0.084926  0.001189  3.954258  0.001
C  C131  1  0.70980834  0.42943814  0.69842605  1  0.001809  0.002328  -0.080678  -0.085  0.001189  3.954328  0.001
C  C132  1  0.42943615  0.70981478  0.80157243  1  0.000549  0.002328  -0.080705  -0.084924  0.001189  3.954181  0.001
C  C133  1  0.07056238  0.79018442  0.80157249  1  0.000589  0.002328  -0.08064  -0.084868  0.001189  3.954259  0.001
C  C134  1  0.70981105  0.07056333  0.80156975  1  0.000779  0.002328  -0.080693  -0.084867  0.001189  3.95433  0.001
C  C135  1  0.79018591  0.42943964  0.80157084  1  -0.000593  0.002328  -0.080699  -0.084877  0.001189  3.954274  0.001
C  C136  1  0.92943978  0.29018475  0.30156881  1  -0.000501  0.002328  -0.080639  -0.084803  0.001188  3.954217  0.001
C  C137  1  0.57056124  0.20981515  0.30156970  1  -0.00052  0.002328  -0.080639  -0.084784  0.001189  3.954156  0.001
C  C138  1  0.20980869  0.92943582  0.30157356  1  0.001717  0.002328  -0.080684  -0.084912  0.001189  3.95424  0.001
C  C139  1  0.29019074  0.57056429  0.30157323  1  0.002098  0.002327  -0.080681  -0.084948  0.001189  3.954329  0.001
C  C140  1  0.57056054  0.29018765  0.19842803  1  0.000603  0.002328  -0.080644  -0.084818  0.001189  3.954251  0.001
C  C141  1  0.92943908  0.20981404  0.19842718  1  0.000502  0.002328  -0.080624  -0.084812  0.001189  3.954173  0.001
C  C142  1  0.29018882  0.92943830  0.19842992  1  0.000809  0.002328  -0.080691  -0.08487  0.001189  3.95435  0.001
C  C143  1  0.20981078  0.57056200  0.19842962  1  0.000729  0.002328  -0.0807  -0.084875  0.001189  3.954386  0.001
C  C144  1  0.07254626  0.64029584  0.74103284  1  -0.006431  0.002294  -0.081628  -0.093233  0.001163  3.96606  0.001
C  C145  1  0.42745317  0.85970426  0.74103271  1  -0.006426  0.002294  -0.081648  -0.093258  0.001163  3.965952  0.001
C  C146  1  0.85970885  0.07255578  0.74102648  1  -0.00654  0.002293  -0.081691  -0.093242  0.001162  3.965957  0.001
C  C147  1  0.64028900  0.42744730  0.74102684  1  -0.006319  0.002293  -0.081679  -0.09314  0.001162  3.965898  0.001
C  C148  1  0.42744701  0.64029457  0.75897128  1  -0.006465  0.002293  -0.081641  -0.093222  0.001162  3.965765  0.001
C  C149  1  0.07255160  0.85970550  0.75897131  1  -0.00635  0.002293  -0.081635  -0.093213  0.001162  3.965736  0.001
C  C150  1  0.64029581  0.07254802  0.75896860  1  -0.006451  0.002294  -0.081662  -0.093258  0.001163  3.966151  0.001
C  C151  1  0.85970282  0.42745344  0.75896886  1  -0.006441  0.002294  -0.081644  -0.093219  0.001163  3.965996  0.001
C  C152  1  0.92745441  0.35970341  0.25896644  1  -0.0064  0.002294  -0.081651  -0.093307  0.001163  3.966025  0.001
C  C153  1  0.57254431  0.14029737  0.25896775  1  -0.006428  0.002294  -0.08163  -0.093248  0.001163  3.966005  0.001
C  C154  1  0.14029102  0.92744665  0.25897280  1  -0.006387  0.002293  -0.081724  -0.093307  0.001162  3.965945  0.001
C  C155  1  0.35970848  0.57255274  0.25897283  1  -0.006607  0.002293  -0.081689  -0.093194  0.001162  3.966033  0.001
C  C156  1  0.57255048  0.35970706  0.24102918  1  -0.006443  0.002293  -0.081715  -0.093313  0.001162  3.966005  0.001
C  C157  1  0.92744986  0.14029375  0.24102836  1  -0.006414  0.002293  -0.081662  -0.093306  0.001162  3.965954  0.001
C  C158  1  0.35970407  0.92745282  0.24103107  1  -0.006461  0.002294  -0.08165  -0.093292  0.001163  3.96613  0.001
C  C159  1  0.14029547  0.57254740  0.24103081  1  -0.006485  0.002294  -0.081677  -0.093314  0.001163  3.966079  0.001
C  C160  1  0.95865499  0.23311494  0.49970700  1  0.985553  0.016708  0.14508  0.159601  0.010608  3.98954  0.014
C  C161  1  0.54134409  0.26688540  0.49970668  1  0.985577  0.01671  0.145095  0.159677  0.010609  3.98959  0.014
C  C162  1  0.26688589  0.95865335  0.49970541  1  0.985439  0.016704  0.145069  0.159573  0.010606  3.989435  0.014
C  C163  1  0.23311477  0.54134480  0.49970472  1  0.985441  0.016706  0.145077  0.15961  0.010607  3.989474  0.014
C  C164  1  0.54134659  0.23309933  0.00029579  1  0.984067  0.016712  0.145143  0.159831  0.01061  3.989732  0.014
C  C165  1  0.95865339  0.26689954  0.00029569  1  0.984093  0.016712  0.14516  0.159852  0.01061  3.989688  0.014
C  C166  1  0.23313128  0.95865904  0.00029253  1  0.985569  0.016701  0.14499  0.159688  0.010602  3.989515  0.014
C  C167  1  0.26686868  0.54134003  0.00029222  1  0.985559  0.0167  0.144986  0.159708  0.010601  3.989475  0.014
C  C168  1  0.04134408  0.76688510  0.50029347  1  0.985567  0.01671  0.145075  0.159651  0.010609  3.989541  0.014
C  C169  1  0.45865658  0.73311544  0.50029378  1  0.985556  0.01671  0.145073  0.159674  0.010609  3.989546  0.014
C  C170  1  0.73311478  0.04134510  0.50029466  1  0.985453  0.016704  0.145112  0.159688  0.010605  3.989334  0.014
C  C171  1  0.76688510  0.45865524  0.50029495  1  0.985446  0.016706  0.145078  0.159605  0.010607  3.989476  0.014
C  C172  1  0.45865408  0.76689912  0.99970428  1  0.984032  0.016713  0.145161  0.159881  0.01061  3.989693  0.014
C  C173  1  0.04134807  0.73309971  0.99970438  1  0.984044  0.016711  0.14517  0.159865  0.01061  3.989662  0.014
C  C174  1  0.76686939  0.04133941  0.99970793  1  0.985578  0.0167  0.144972  0.159655  0.010602  3.989405  0.014
C  C175  1  0.73313198  0.45865922  0.99970824  1  0.985548  0.016699  0.145003  0.159718  0.010601  3.989484  0.014
C  C176  1  0.00228324  0.18939773  0.57906856  1  1.537038  0.024119  0.332483  0.551121  0.01514  4.096039  0.02
C  C177  1  0.49771611  0.31060209  0.57906842  1  1.537053  0.024121  0.332481  0.551046  0.015142  4.096137  0.02
C  C178  1  0.31060327  0.00228287  0.57906893  1  1.536638  0.024122  0.332529  0.551144  0.015139  4.095909  0.02
C  C179  1  0.18939529  0.49771695  0.57906805  1  1.536735  0.024123  0.33245  0.550969  0.01514  4.096271  0.02
C  C180  1  0.49771619  0.18939199  0.92093379  1  1.536639  0.024128  0.332281  0.550833  0.015144  4.096478  0.02
C  C181  1  0.00228413  0.31060720  0.92093348  1  1.536643  0.024129  0.332335  0.550953  0.015144  4.096414  0.02
C  C182  1  0.18940438  0.00228215  0.92092877  1  1.536606  0.024121  0.332466  0.550965  0.015137  4.096265  0.02
C  C183  1  0.31059515  0.49771704  0.92092863  1  1.536635  0.02412  0.332413  0.550961  0.015136  4.09629  0.02
C  C184  1  0.99771664  0.81060152  0.42093151  1  1.537067  0.024121  0.332524  0.551161  0.015141  4.096008  0.02
C  C185  1  0.50228535  0.68939795  0.42093164  1  1.536756  0.024126  0.332509  0.551099  0.015142  4.096056  0.02
C  C186  1  0.68939661  0.99771638  0.42093114  1  1.536631  0.024122  0.33255  0.551175  0.015139  4.095862  0.02
C  C187  1  0.81060458  0.50228230  0.42093162  1  1.53674  0.024124  0.332461  0.551007  0.015141  4.096228  0.02
C  C188  1  0.50228447  0.81060725  0.07906667  1  1.536633  0.024129  0.332288  0.550866  0.015144  4.096493  0.02
C  C189  1  0.99771653  0.68939205  0.07906659  1  1.536864  0.024126  0.332351  0.550952  0.015144  4.096382  0.02
C  C190  1  0.81059549  0.99771630  0.07907130  1  1.536658  0.024121  0.332416  0.550987  0.015137  4.096263  0.02
C  C191  1  0.68940551  0.50228220  0.07907144  1  1.536653  0.02412  0.332366  0.550838  0.015137  4.096397  0.02
N  N192  1  0.97188963  0.12892020  0.49888978  1  -0.799554  0.083794  -0.278826  -0.218715  0.043266  3.625956  0.062
N  N193  1  0.52811025  0.37108093  0.49888943  1  -0.799598  0.083794  -0.278793  -0.218668  0.043266  3.625834  0.062
N  N194  1  0.37108264  0.97188706  0.49888972  1  -0.799301  0.083799  -0.278746  -0.218621  0.043268  3.625678  0.062
N  N195  1  0.12891802  0.52811269  0.49888909  1  -0.799445  0.083801  -0.278806  -0.218711  0.04327  3.625695  0.062
N  N196  1  0.52810909  0.12890512  0.00111107  1  -0.799523  0.083794  -0.278811  -0.218821  0.043269  3.62634  0.062
N  N197  1  0.97189089  0.37109374  0.00111092  1  -0.799477  0.083796  -0.278833  -0.218764  0.04327  3.626217  0.062
N  N198  1  0.12893320  0.97188909  0.00111097  1  -0.799239  0.083795  -0.278718  -0.218642  0.043267  3.625726  0.062
N  N199  1  0.37106676  0.52811078  0.00111062  1  -0.799199  0.083794  -0.278704  -0.218644  0.043267  3.625651  0.062
N  N200  1  0.02811024  0.87108064  0.50111028  1  -0.799611  0.083794  -0.27883  -0.218707  0.043266  3.62589  0.062
N  N201  1  0.47189042  0.62891911  0.50111064  1  -0.799546  0.083795  -0.278787  -0.21866  0.043267  3.625845  0.062
N  N202  1  0.62891802  0.02811219  0.50110995  1  -0.799529  0.0838  -0.27882  -0.218721  0.043269  3.625626  0.062
N  N203  1  0.87108185  0.47188735  0.50111098  1  -0.799495  0.083801  -0.278797  -0.218682  0.043269  3.625654  0.062
N  N204  1  0.47189158  0.87109412  0.99888899  1  -0.799433  0.083794  -0.278813  -0.21883  0.043269  3.626287  0.062
N  N205  1  0.02810978  0.62890550  0.99888914  1  -0.799523  0.083796  -0.278855  -0.218839  0.043271  3.626306  0.062
N  N206  1  0.87106747  0.02810936  0.99888949  1  -0.799206  0.083794  -0.278668  -0.218594  0.043266  3.62561  0.062
N  N207  1  0.62893390  0.47188927  0.99888944  1  -0.799169  0.083793  -0.278706  -0.218621  0.043266  3.625702  0.062
N  N208  1  0.99965263  0.09873486  0.55003976  1  -0.807843  0.083513  -0.299267  -0.361209  0.043636  3.503187  0.049
N  N209  1  0.50034716  0.40126618  0.55003901  1  -0.807839  0.083513  -0.299292  -0.361273  0.043636  3.503207  0.049
N  N210  1  0.40126644  0.99965183  0.55004166  1  -0.808018  0.083506  -0.299361  -0.361396  0.043636  3.503049  0.049
N  N211  1  0.09873175  0.50034862  0.55004065  1  -0.807752  0.083503  -0.299257  -0.36121  0.043633  3.503067  0.049
N  N212  1  0.50034698  0.09872716  0.94996044  1  -0.807996  0.083536  -0.299223  -0.361056  0.043644  3.50353  0.049
N  N213  1  0.99965369  0.40127236  0.94996026  1  -0.80798  0.083537  -0.299253  -0.361167  0.043645  3.503552  0.049
N  N214  1  0.09874350  0.99965085  0.94995953  1  -0.807677  0.083486  -0.299247  -0.361272  0.043624  3.502922  0.049
N  N215  1  0.40125636  0.50034807  0.94995879  1  -0.807681  0.083486  -0.299234  -0.361248  0.043624  3.502836  0.049
N  N216  1  0.00034803  0.90126598  0.44996070  1  -0.807837  0.083515  -0.29923  -0.361195  0.043636  3.503139  0.049
N  N217  1  0.49965431  0.59873466  0.44996106  1  -0.807836  0.083512  -0.299296  -0.361294  0.043636  3.503272  0.049
N  N218  1  0.59873423  0.00034741  0.44995841  1  -0.807764  0.083505  -0.299329  -0.361388  0.043636  3.503068  0.049
N  N219  1  0.90126812  0.49965142  0.44995941  1  -0.807756  0.083506  -0.299253  -0.361212  0.043635  3.503049  0.049
N  N220  1  0.49965448  0.90127209  0.05003963  1  -0.807962  0.083535  -0.299252  -0.361106  0.043644  3.503572  0.049
N  N221  1  0.00034619  0.59872769  0.05003941  1  -0.807982  0.083537  -0.299231  -0.361145  0.043645  3.503549  0.049
N  N222  1  0.90125637  0.00034681  0.05004132  1  -0.807723  0.083486  -0.299242  -0.361284  0.043624  3.502925  0.049
N  N223  1  0.59874510  0.49965197  0.05004128  1  -0.807691  0.083486  -0.299238  -0.361242  0.043624  3.502918  0.049
N  N224  1  0.02688216  0.19321356  0.63032112  1  -1.355333  0.031257  -0.573303  -0.653974  0.015356  3.308676  0.021
N  N225  1  0.47311710  0.30678696  0.63032100  1  -1.355322  0.031258  -0.573318  -0.653984  0.015357  3.308659  0.021
N  N226  1  0.30678629  0.02688126  0.63032268  1  -1.35511  0.031254  -0.573338  -0.653991  0.015354  3.308598  0.021
N  N227  1  0.19321296  0.47311926  0.63032181  1  -1.355315  0.031254  -0.573318  -0.653963  0.015355  3.308649  0.021
N  N228  1  0.47312212  0.19320823  0.86968043  1  -1.355518  0.031261  -0.573255  -0.654037  0.015358  3.308749  0.021
N  N229  1  0.02687830  0.30679026  0.86968050  1  -1.355375  0.031263  -0.573208  -0.653906  0.015359  3.308862  0.021
N  N230  1  0.19321946  0.02688309  0.86967658  1  -1.355189  0.031246  -0.573353  -0.653923  0.015351  3.308786  0.021
N  N231  1  0.30677937  0.47311540  0.86967606  1  -1.355187  0.031246  -0.573318  -0.653867  0.01535  3.308686  0.021
N  N232  1  0.97311771  0.80678648  0.36967894  1  -1.355326  0.031259  -0.573344  -0.654052  0.015357  3.308662  0.021
N  N233  1  0.52688437  0.69321388  0.36967946  1  -1.355331  0.031259  -0.573363  -0.654014  0.015357  3.308625  0.021
N  N234  1  0.69321437  0.97311799  0.36967699  1  -1.355125  0.031254  -0.573351  -0.654002  0.015354  3.308548  0.021
N  N235  1  0.80678770  0.52687999  0.36967786  1  -1.355348  0.031256  -0.57334  -0.654036  0.015355  3.308639  0.021
N  N236  1  0.52687935  0.80679023  0.13031964  1  -1.355393  0.031262  -0.573246  -0.654004  0.015358  3.308783  0.021
N  N237  1  0.97312157  0.69320898  0.13031917  1  -1.35537  0.031263  -0.57326  -0.653938  0.015359  3.30892  0.021
N  N238  1  0.80677962  0.97311456  0.13032427  1  -1.355166  0.031247  -0.573327  -0.653919  0.015351  3.308715  0.021
N  N239  1  0.69322050  0.52688385  0.13032440  1  -1.355179  0.031245  -0.573321  -0.65385  0.01535  3.308784  0.021
N  N240  1  0.97601750  0.27539712  0.54843011  1  -1.221617  0.092065  -0.381536  -0.438034  0.046864  3.52465  0.058
N  N241  1  0.52398229  0.22460313  0.54842943  1  -1.221603  0.092065  -0.38154  -0.438009  0.046863  3.524689  0.058
N  N242  1  0.22460295  0.97601923  0.54842894  1  -1.221265  0.092058  -0.381554  -0.438044  0.046865  3.524502  0.058
N  N243  1  0.27539603  0.52397963  0.54842863  1  -1.221245  0.092058  -0.3815  -0.437966  0.046863  3.524598  0.058
N  N244  1  0.52398244  0.27538989  0.95157395  1  -1.222321  0.092053  -0.381537  -0.438094  0.046861  3.524691  0.058
N  N245  1  0.97601822  0.22460883  0.95157426  1  -1.222416  0.092056  -0.381544  -0.438177  0.046862  3.524681  0.058
N  N246  1  0.27540811  0.97602255  0.95156832  1  -1.22163  0.092076  -0.38148  -0.437972  0.046873  3.524648  0.058
N  N247  1  0.22459175  0.52397558  0.95156843  1  -1.221649  0.092076  -0.381482  -0.437994  0.046875  3.524618  0.058
N  N248  1  0.02398158  0.72460292  0.45157035  1  -1.221633  0.092066  -0.381535  -0.438026  0.046864  3.524649  0.058
N  N249  1  0.47601996  0.77539771  0.45157103  1  -1.221289  0.092061  -0.381536  -0.438036  0.046864  3.524598  0.058
N  N250  1  0.77539771  0.02397922  0.45157113  1  -1.221266  0.092058  -0.381574  -0.43808  0.046866  3.524516  0.058
N  N251  1  0.72460384  0.47601961  0.45157143  1  -1.221253  0.092059  -0.38151  -0.438001  0.046864  3.524617  0.058
N  N252  1  0.47601823  0.72460936  0.04842612  1  -1.222331  0.092055  -0.381541  -0.438147  0.046861  3.524689  0.058
N  N253  1  0.02398324  0.77539042  0.04842581  1  -1.222614  0.092059  -0.381518  -0.438098  0.04686  3.524633  0.058
N  N254  1  0.72459177  0.02397591  0.04843175  1  -1.221639  0.092076  -0.381475  -0.437954  0.046874  3.524561  0.058
N  N255  1  0.77540892  0.47602367  0.04843203  1  -1.221756  0.09208  -0.381453  -0.437914  0.046873  3.524625  0.058
O  O256  1  0.04489411  0.85787903  0.61625475  1  -1.129824  0.1012  -0.320811  -0.52131  0.050879  2.330727  0.077
O  O257  1  0.45510157  0.64212288  0.61625313  1  -1.129739  0.101201  -0.320869  -0.521376  0.050881  2.330729  0.077
O  O258  1  0.64212434  0.04488462  0.61625085  1  -1.129762  0.101209  -0.320997  -0.521584  0.050887  2.3309  0.077
O  O259  1  0.85787613  0.45511391  0.61625150  1  -1.129743  0.101213  -0.320974  -0.521569  0.050889  2.330878  0.077
O  O260  1  0.45510109  0.85788604  0.88375243  1  -1.129838  0.1012  -0.320963  -0.52152  0.050885  2.330964  0.077
O  O261  1  0.04489889  0.64211380  0.88375257  1  -1.129837  0.101198  -0.320916  -0.521452  0.050883  2.330942  0.077
O  O262  1  0.85786864  0.04488334  0.88374305  1  -1.129642  0.101211  -0.320969  -0.521454  0.050886  2.330723  0.077
O  O263  1  0.64212976  0.45512186  0.88374301  1  -1.129687  0.101218  -0.320968  -0.521405  0.050887  2.330675  0.077
O  O264  1  0.95510576  0.14212101  0.38374532  1  -1.129814  0.101199  -0.320781  -0.521282  0.050878  2.330781  0.077
O  O265  1  0.54489989  0.35787636  0.38374654  1  -1.129749  0.101198  -0.32085  -0.521339  0.050879  2.330773  0.077
O  O266  1  0.35787712  0.95511542  0.38374882  1  -1.129715  0.101209  -0.320985  -0.521551  0.050887  2.330901  0.077
O  O267  1  0.14212374  0.54488772  0.38374896  1  -1.129739  0.101209  -0.320976  -0.521569  0.050887  2.330933  0.077
O  O268  1  0.54489958  0.14211639  0.11624685  1  -1.129755  0.101199  -0.320966  -0.521532  0.050885  2.330933  0.077
O  O269  1  0.95510178  0.35788545  0.11624671  1  -1.129762  0.101199  -0.320952  -0.52152  0.050885  2.331023  0.077
O  O270  1  0.14213123  0.95511988  0.11625662  1  -1.129714  0.101217  -0.321023  -0.52148  0.050887  2.33069  0.077
O  O271  1  0.35786932  0.54487897  0.11625666  1  -1.129679  0.101217  -0.321026  -0.521488  0.050887  2.330692  0.077
O  O272  1  0.09569932  0.99222097  0.66868282  1  -1.196747  0.032751  -0.310479  -0.570448  0.015978  2.200309  0.025
O  O273  1  0.40430104  0.50778085  0.66868247  1  -1.196633  0.03275  -0.310518  -0.570528  0.015978  2.20031  0.025
O  O274  1  0.50778913  0.09569581  0.66868056  1  -1.196641  0.03276  -0.310538  -0.570561  0.015983  2.200271  0.025
O  O275  1  0.99220965  0.40430501  0.66868118  1  -1.196649  0.032759  -0.310511  -0.570527  0.015983  2.200351  0.025
O  O276  1  0.40430570  0.99222070  0.83131996  1  -1.19671  0.032757  -0.310513  -0.570581  0.015982  2.200375  0.025
O  O277  1  0.09569517  0.50777844  0.83131974  1  -1.196725  0.032758  -0.310513  -0.570533  0.015982  2.200354  0.025
O  O278  1  0.99221121  0.09569490  0.83131569  1  -1.19668  0.032749  -0.310554  -0.570526  0.015977  2.200292  0.025
O  O279  1  0.50778807  0.40430642  0.83131691  1  -1.196677  0.03275  -0.310539  -0.570473  0.015978  2.200316  0.025
O  O280  1  0.90430135  0.00777828  0.33131685  1  -1.196723  0.03275  -0.310492  -0.570469  0.015978  2.20028  0.025
O  O281  1  0.59569804  0.49222078  0.33131760  1  -1.196691  0.032752  -0.310524  -0.570546  0.015979  2.20028  0.025
O  O282  1  0.49221153  0.90430423  0.33131911  1  -1.196484  0.03276  -0.310501  -0.570516  0.015983  2.20039  0.025
O  O283  1  0.00778863  0.59569503  0.33131850  1  -1.19669  0.032757  -0.310534  -0.570566  0.015981  2.200323  0.025
O  O284  1  0.59569576  0.00778093  0.16868051  1  -1.196617  0.032758  -0.310529  -0.570612  0.015982  2.200245  0.025
O  O285  1  0.90430471  0.49222001  0.16867954  1  -1.19668  0.032758  -0.310486  -0.570528  0.015982  2.200389  0.025
O  O286  1  0.00778946  0.90430514  0.16868359  1  -1.196645  0.032752  -0.310509  -0.570471  0.015978  2.200297  0.025
O  O287  1  0.49221100  0.59569521  0.16868395  1  -1.196486  0.032751  -0.310539  -0.57053  0.015978  2.200299  0.025
