# generated using pymatgen
data_H10PbC9NO4
_symmetry_space_group_name_H-M   'P 1'
_cell_length_a   13.79924731
_cell_length_b   14.43012985
_cell_length_c   15.80996371
_cell_angle_alpha   68.98289781
_cell_angle_beta   78.27589274
_cell_angle_gamma   76.77161472
_symmetry_Int_Tables_number   1
_chemical_formula_structural   H10PbC9NO4
_chemical_formula_sum   'H80 Pb8 C72 N8 O32'
_cell_volume   2835.21515089
_cell_formula_units_Z   8
loop_
 _symmetry_equiv_pos_site_id
 _symmetry_equiv_pos_as_xyz
  1  'x, y, z'
loop_
 _atom_site_type_symbol
 _atom_site_label
 _atom_site_symmetry_multiplicity
 _atom_site_fract_x
 _atom_site_fract_y
 _atom_site_fract_z
 _atom_site_occupancy
 _atom_site_pbe_bader_charge
 _atom_site_pbe_bader_spin_density
 _atom_site_pbe_cm5_charge
 _atom_site_pbe_ddec_charge
 _atom_site_pbe_ddec_spin_density
 _atom_site_pbe_ddec_sum_bond_order
 _atom_site_pbe_magmom
H  H0  1  0.25908420  0.40147394  0.34598877  1  0.075799  0  0.097026  0.150507  0  0.996022  0
H  H1  1  0.74093523  0.59862990  0.65401596  1  0.074143  0  0.096952  0.150554  0  0.996097  0
H  H2  1  0.18282686  0.43012206  0.44152727  1  0.058636  0  0.095614  0.149338  0  0.991947  0
H  H3  1  0.81716943  0.56991290  0.55849819  1  0.058831  0  0.095746  0.149512  0  0.991981  0
H  H4  1  0.17022374  0.32340231  0.41213680  1  0.076666  0  0.097821  0.16196  0  1.010869  0
H  H5  1  0.82979848  0.67667704  0.58781084  1  0.076328  0  0.09782  0.162111  0  1.011015  0
H  H6  1  0.73220494  0.29102821  0.36001674  1  0.046505  0  0.093718  0.148609  0  0.990163  0
H  H7  1  0.26780569  0.70898876  0.64001514  1  0.046757  0  0.093773  0.148546  0  0.990332  0
H  H8  1  0.79026308  0.17107051  0.42860059  1  0.096221  0  0.101028  0.160945  0  0.998385  0
H  H9  1  0.20973521  0.82894104  0.57143652  1  0.097007  0  0.100939  0.160811  0  0.998407  0
H  H10  1  0.73911137  0.17935230  0.33143922  1  0.045945  0  0.092421  0.146546  0  1.027948  0
H  H11  1  0.26092435  0.82066499  0.66857795  1  0.046875  0  0.092458  0.146608  0  1.027963  0
H  H12  1  0.41709507  0.24622144  0.79291229  1  0.127508  0  0.117651  0.084004  0  1.028969  0
H  H13  1  0.58296424  0.75373434  0.20709651  1  0.127834  0  0.117627  0.084071  0  1.029039  0
H  H14  1  0.44218436  0.37135715  0.85797473  1  0.105113  0  0.111011  0.12184  0  1.031057  0
H  H15  1  0.55787791  0.62859036  0.14203495  1  0.104274  0  0.111008  0.12186  0  1.030671  0
H  H16  1  0.57949958  0.53183979  0.58801971  1  0.145451  0  0.10897  0.126816  0  1.037826  0
H  H17  1  0.42047898  0.46816576  0.41198365  1  0.145292  0  0.108926  0.126799  0  1.037851  0
H  H18  1  0.55030317  0.39793776  0.53555605  1  0.117835  0  0.120569  0.094226  0  1.01512  0
H  H19  1  0.44967233  0.60207234  0.46443880  1  0.117806  0  0.120455  0.094059  0  1.014767  0
H  H20  1  0.57960630  0.56736305  0.95520438  1  0.119821  0  0.121854  0.097205  0  1.002748  0
H  H21  1  0.42035720  0.43263171  0.04481656  1  0.119821  0  0.121873  0.097119  0  1.002588  0
H  H22  1  0.55546476  0.43315415  0.90024930  1  0.163354  0  0.107336  0.124416  0  1.061692  0
H  H23  1  0.44448237  0.56684116  0.09978198  1  0.163328  0  0.107296  0.124519  0  1.06158  0
H  H24  1  0.50556082  0.66568416  0.64047506  1  0.134265  0  0.110599  0.124499  0  1.042127  0
H  H25  1  0.49444484  0.33430655  0.35953205  1  0.134068  0  0.110577  0.124486  0  1.042165  0
H  H26  1  0.52517419  0.78999422  0.70908100  1  0.096332  0  0.119429  0.076563  0  1.021865  0
H  H27  1  0.47483996  0.20999050  0.29093159  1  0.09602  0  0.119443  0.076671  0  1.022026  0
H  H28  1  0.84627702  0.70030560  0.08715284  1  0.082334  0  0.097888  0.158314  0  1.00616  0
H  H29  1  0.15372198  0.29966410  0.91283063  1  0.08259  0  0.097907  0.158413  0  1.006024  0
H  H30  1  0.84238537  0.59176694  0.05669869  1  0.048666  0  0.096879  0.149799  0  0.990947  0
H  H31  1  0.15759908  0.40820560  0.94329153  1  0.04884  0  0.096989  0.14985  0  0.991067  0
H  H32  1  0.76548026  0.61357598  0.15475377  1  0.052858  0  0.100567  0.153777  0  0.989638  0
H  H33  1  0.23450665  0.38640338  0.84523190  1  0.052081  0  0.100525  0.153732  0  0.989569  0
H  H34  1  0.23770179  0.80899746  0.12702913  1  0.047285  0  0.094211  0.149284  0  1.022735  0
H  H35  1  0.76233347  0.19099836  0.87304883  1  0.046894  0  0.094193  0.149199  0  1.022842  0
H  H36  1  0.32207817  0.70747579  0.19080204  1  0.077328  0  0.0954  0.144626  0  1.020307  0
H  H37  1  0.67795956  0.29246840  0.80922196  1  0.044659  0  0.095257  0.144261  0  1.020472  0
H  H38  1  0.26848108  0.69095446  0.10528836  1  0.038884  0  0.095819  0.148217  0  0.992457  0
H  H39  1  0.73148007  0.30907415  0.89473849  1  0.038756  0  0.095724  0.148099  0  0.992449  0
H  H40  1  0.92238489  0.65895290  0.76890052  1  0.048769  0  0.095369  0.14939  0  0.993281  0
H  H41  1  0.07762402  0.34107717  0.23107873  1  0.048764  0  0.095378  0.149442  0  0.993391  0
H  H42  1  0.81244734  0.64957416  0.85438630  1  0.086994  0  0.099129  0.160395  0  1.007562  0
H  H43  1  0.18754778  0.35044603  0.14558723  1  0.086682  0  0.099162  0.160528  0  1.007438  0
H  H44  1  0.89312487  0.73337432  0.84289811  1  0.058169  0  0.09943  0.152812  0  0.991207  0
H  H45  1  0.10687413  0.26664505  0.15709269  1  0.058424  0  0.099416  0.152854  0  0.991283  0
H  H46  1  0.71966361  0.25882392  0.59153107  1  0.05386  0  0.101322  0.157865  0  0.997981  0
H  H47  1  0.28039408  0.74114865  0.40843843  1  0.053758  0  0.10132  0.157928  0  0.997932  0
H  H48  1  0.81940821  0.18513609  0.65500017  1  0.028368  0  0.091201  0.143578  0  1.011903  0
H  H49  1  0.18056843  0.81483967  0.34507010  1  0.028164  0  0.091199  0.143662  0  1.011837  0
H  H50  1  0.69543675  0.21265129  0.71301989  1  0.057278  0  0.093617  0.150318  0  1.020715  0
H  H51  1  0.30450226  0.78740913  0.28694371  1  0.058862  0  0.093632  0.15038  0  1.020754  0
H  H52  1  0.93170548  0.92191120  0.52840961  1  0.087418  0  0.12124  0.095717  0  1.002161  0
H  H53  1  0.06829715  0.07816629  0.47156744  1  0.089786  0  0.121194  0.095697  0  1.002363  0
H  H54  1  0.06588415  0.94599428  0.39350986  1  0.142938  0  0.10706  0.122306  0  1.058473  0
H  H55  1  0.93411295  0.05408092  0.60646449  1  0.144019  0  0.107229  0.122431  0  1.05827  0
H  H56  1  0.83422264  0.99634371  0.22569049  1  0.138209  0  0.109971  0.122034  0  1.048929  0
H  H57  1  0.16579089  0.00364416  0.77429778  1  0.138224  0  0.109977  0.122043  0  1.04901  0
H  H58  1  0.70981508  0.97645759  0.36709553  1  0.089335  0  0.121431  0.084318  0  1.00635  0
H  H59  1  0.29019209  0.02353696  0.63290121  1  0.089784  0  0.121436  0.084344  0  1.006332  0
H  H60  1  0.09771312  0.95042468  0.00843026  1  0.140764  0  0.120729  0.095755  0  1.016459  0
H  H61  1  0.90230744  0.04951189  0.99158347  1  0.140708  0  0.120722  0.095734  0  1.016611  0
H  H62  1  0.96535237  0.92119279  0.14457505  1  0.151554  0  0.10961  0.128168  0  1.03922  0
H  H63  1  0.03466847  0.07875053  0.85544404  1  0.152451  0  0.109603  0.128118  0  1.039491  0
H  H64  1  0.13005723  0.05613030  0.26259202  1  0.120823  0  0.111652  0.122538  0  1.027114  0
H  H65  1  0.86994921  0.94388855  0.73737169  1  0.120561  0  0.111706  0.122555  0  1.02718  0
H  H66  1  0.25231364  0.08194509  0.12117569  1  0.101375  0  0.117105  0.07911  0  1.042746  0
H  H67  1  0.74768520  0.91806241  0.87878356  1  0.101023  0  0.117045  0.07901  0  1.042858  0
H  H68  1  0.19350103  0.33254277  0.65210615  1  0.079441  0  0.098757  0.160182  0  1.003432  0
H  H69  1  0.80649344  0.66745631  0.34787053  1  0.079728  0  0.098694  0.160032  0  1.00331  0
H  H70  1  0.08060827  0.31388151  0.73324667  1  0.05661  0  0.096456  0.149926  0  0.991108  0
H  H71  1  0.91938982  0.68612652  0.26675050  1  0.056606  0  0.096408  0.149782  0  0.99126  0
H  H72  1  0.12301367  0.24126315  0.65848952  1  0.059157  0  0.099607  0.155132  0  0.993877  0
H  H73  1  0.87696397  0.75874323  0.34149982  1  0.059285  0  0.099487  0.154912  0  0.994078  0
H  H74  1  0.33452553  0.74025490  0.80613900  1  0.067289  0  0.090631  0.143497  0  1.027032  0
H  H75  1  0.66548265  0.25966908  0.19394617  1  0.067544  0  0.090507  0.143424  0  1.027085  0
H  H76  1  0.20448687  0.77736924  0.84558259  1  0.036295  0  0.095631  0.148432  0  0.991369  0
H  H77  1  0.79550468  0.22259713  0.15444251  1  0.036394  0  0.095616  0.148385  0  0.991286  0
H  H78  1  0.29078745  0.70971861  0.92520824  1  0.083515  0  0.101472  0.15951  0  0.990737  0
H  H79  1  0.70916407  0.29027346  0.07486758  1  0.084431  0  0.101586  0.159531  0  0.990825  0
Pb  Pb80  1  0.45355625  0.18299184  0.60183594  1  1.3889  0  0.626013  1.015558  0  1.864979  0
Pb  Pb81  1  0.54643937  0.81700937  0.39816324  1  1.388837  0  0.626049  1.01557  0  1.864945  0
Pb  Pb82  1  0.56050536  0.81622480  0.90154152  1  1.381923  0  0.616458  0.992116  0  1.943247  0
Pb  Pb83  1  0.43948286  0.18376806  0.09845599  1  1.38231  0  0.616394  0.992062  0  1.94343  0
Pb  Pb84  1  0.68400369  0.93183263  0.59090299  1  1.379603  0  0.610471  0.987791  0  1.957492  0
Pb  Pb85  1  0.31600777  0.06817929  0.40909306  1  1.3796  0  0.610512  0.987843  0  1.957264  0
Pb  Pb86  1  0.31544335  0.04078201  0.91972259  1  1.384773  0  0.62693  1.007267  0  1.880563  0
Pb  Pb87  1  0.68453845  0.95920497  0.08024256  1  1.384556  0  0.626947  1.007325  0  1.880406  0
C  C88  1  0.30266782  0.30267349  0.47415670  1  1.558292  0  0.206734  0.674841  0  4.152317  0
C  C89  1  0.69733816  0.69735651  0.52583132  1  1.561801  0  0.206824  0.674933  0  4.151662  0
C  C90  1  0.22230221  0.36843375  0.41591836  1  -0.127974  0  -0.247495  -0.522988  0  3.895253  0
C  C91  1  0.77770544  0.63162413  0.58407172  1  -0.128674  0  -0.247499  -0.523375  0  3.895671  0
C  C92  1  0.63108469  0.19057713  0.44873458  1  1.521903  0  0.206255  0.678152  0  4.142332  0
C  C93  1  0.36891482  0.80943541  0.55126530  1  1.522227  0  0.206359  0.6783  0  4.142445  0
C  C94  1  0.72878952  0.21035743  0.38713119  1  -0.081607  0  -0.249447  -0.525377  0  3.895705  0
C  C95  1  0.27122291  0.78965357  0.61289471  1  -0.083638  0  -0.24954  -0.525239  0  3.895894  0
C  C96  1  0.45321225  0.31030001  0.74998449  1  0.460159  0  0.053852  0.096217  0  3.945621  0
C  C97  1  0.54682512  0.68966241  0.25001470  1  0.459144  0  0.053862  0.096007  0  3.945712  0
C  C98  1  0.46693542  0.38062646  0.78591609  1  0.015067  0  -0.079208  -0.170613  0  3.92196  0
C  C99  1  0.53309206  0.61934178  0.21410260  1  0.01507  0  -0.079359  -0.170702  0  3.922899  0
C  C100  1  0.51251935  0.46297970  0.72843103  1  -0.061365  0  0.012477  0.10326  0  3.974007  0
C  C101  1  0.48748365  0.53701331  0.27156442  1  -0.060504  0  0.012483  0.103212  0  3.973956  0
C  C102  1  0.54236495  0.47042967  0.63619202  1  -0.031212  0  -0.07809  -0.17145  0  3.907811  0
C  C103  1  0.45761683  0.52957440  0.36381188  1  -0.031585  0  -0.077927  -0.171374  0  3.907979  0
C  C104  1  0.52629400  0.39627977  0.60611043  1  0.460744  0  0.054906  0.095947  0  3.941864  0
C  C105  1  0.47370572  0.60371481  0.39387119  1  0.461975  0  0.054959  0.095941  0  3.942751  0
C  C106  1  0.56172065  0.58546041  0.88642089  1  0.447789  0  0.055405  0.101976  0  3.932666  0
C  C107  1  0.43824762  0.41452837  0.11360113  1  0.448108  0  0.055442  0.102323  0  3.932911  0
C  C108  1  0.54863401  0.51134414  0.85486306  1  -0.043994  0  -0.082441  -0.181065  0  3.920249  0
C  C109  1  0.45133927  0.48864551  0.14514640  1  -0.043115  0  -0.08249  -0.181439  0  3.919798  0
C  C110  1  0.52826788  0.53865993  0.76479653  1  -0.03012  0  0.013542  0.10604  0  3.973176  0
C  C111  1  0.47173323  0.46132317  0.23521638  1  -0.030348  0  0.013661  0.106206  0  3.97261  0
C  C112  1  0.52221348  0.64037792  0.71049095  1  -0.001784  0  -0.079497  -0.168088  0  3.913181  0
C  C113  1  0.47779836  0.35960307  0.28951313  1  -0.001051  0  -0.079473  -0.168009  0  3.913664  0
C  C114  1  0.53397584  0.70980410  0.74837919  1  0.478506  0  0.055906  0.090783  0  3.96903  0
C  C115  1  0.46602766  0.29017822  0.25164241  1  0.478048  0  0.055966  0.090741  0  3.968699  0
C  C116  1  0.71403323  0.71068696  0.02898036  1  1.524603  0  0.210164  0.679367  0  4.140738  0
C  C117  1  0.28596153  0.28930227  0.97100450  1  1.525889  0  0.210214  0.679687  0  4.13995  0
C  C118  1  0.79856101  0.65056599  0.08433070  1  -0.076118  0  -0.243782  -0.51947  0  3.893369  0
C  C119  1  0.20143027  0.34940965  0.91565476  1  -0.076376  0  -0.243898  -0.519567  0  3.89317  0
C  C120  1  0.38632213  0.78134119  0.05476773  1  1.54752  0  0.204964  0.671927  0  4.149808  0
C  C121  1  0.61367596  0.21865468  0.94524666  1  1.547138  0  0.205022  0.671934  0  4.150235  0
C  C122  1  0.29728148  0.74544099  0.12298211  1  -0.090829  0  -0.24673  -0.514917  0  3.893208  0
C  C123  1  0.70272643  0.25455409  0.87705354  1  -0.056946  0  -0.24651  -0.514275  0  3.89326  0
C  C124  1  0.79955972  0.78389628  0.73736077  1  1.523694  0  0.209107  0.677134  0  4.143169  0
C  C125  1  0.20045712  0.21612257  0.26261878  1  1.524177  0  0.209084  0.677468  0  4.142777  0
C  C126  1  0.86116362  0.70014498  0.80438518  1  -0.093433  0  -0.246333  -0.523391  0  3.900356  0
C  C127  1  0.13884201  0.29987451  0.19559618  1  -0.094239  0  -0.246377  -0.523735  0  3.90045  0
C  C128  1  0.71063160  0.10304245  0.64583448  1  1.538873  0  0.207131  0.676698  0  4.139972  0
C  C129  1  0.28936734  0.89695270  0.35417556  1  1.538929  0  0.207236  0.677156  0  4.13952  0
C  C130  1  0.73867974  0.19508337  0.65295044  1  -0.055225  0  -0.2483  -0.521998  0  3.893089  0
C  C131  1  0.26131690  0.80491633  0.34705095  1  -0.056417  0  -0.248339  -0.522339  0  3.89312  0
C  C132  1  0.91375892  0.94015856  0.45964417  1  0.521703  0  0.055046  0.101083  0  3.934598  0
C  C133  1  0.08624371  0.05990235  0.54033445  1  0.518705  0  0.055093  0.101142  0  3.934715  0
C  C134  1  0.98786105  0.95295464  0.38421655  1  -0.036921  0  -0.083074  -0.183007  0  3.925075  0
C  C135  1  0.01214288  0.04709497  0.61576423  1  -0.037321  0  -0.083311  -0.183325  0  3.924874  0
C  C136  1  0.96055049  0.97307191  0.29770777  1  -0.026197  0  0.01261  0.105052  0  3.97984  0
C  C137  1  0.03945416  0.02694074  0.70228167  1  -0.026331  0  0.012715  0.10497  0  3.97969  0
C  C138  1  0.85908124  0.97974514  0.29149790  1  -0.069775  0  -0.080488  -0.171737  0  3.921385  0
C  C139  1  0.14093201  0.02025253  0.70848979  1  -0.070093  0  -0.080471  -0.171601  0  3.921549  0
C  C140  1  0.78972083  0.96814716  0.37018186  1  0.505828  0  0.057202  0.095073  0  3.960187  0
C  C141  1  0.21028394  0.03186475  0.62980463  1  0.505461  0  0.057151  0.09487  0  3.960363  0
C  C142  1  0.10014408  0.97446123  0.06581728  1  0.446723  0  0.053185  0.091101  0  3.946806  0
C  C143  1  0.89986730  0.02549339  0.93418656  1  0.447566  0  0.05329  0.091096  0  3.946672  0
C  C144  1  0.02707061  0.95829496  0.14203572  1  -0.029722  0  -0.078159  -0.170574  0  3.907875  0
C  C145  1  0.97293887  0.04167850  0.85796490  1  -0.030473  0  -0.078075  -0.170502  0  3.907738  0
C  C146  1  0.03587833  0.98792411  0.21522514  1  -0.068004  0  0.013655  0.103542  0  3.973862  0
C  C147  1  0.96412989  0.01207275  0.78476434  1  -0.067649  0  0.013551  0.103554  0  3.973413  0
C  C148  1  0.11881830  0.03258068  0.20766176  1  -0.014391  0  -0.077739  -0.162458  0  3.915666  0
C  C149  1  0.88118608  0.96742908  0.79230715  1  -0.014684  0  -0.077714  -0.162205  0  3.91529  0
C  C150  1  0.18791473  0.04651644  0.12878314  1  0.483095  0  0.05426  0.097635  0  3.946  0
C  C151  1  0.81208698  0.95348348  0.87118880  1  0.483827  0  0.054244  0.097437  0  3.946189  0
C  C152  1  0.20896966  0.19665131  0.76842005  1  1.569805  0  0.208455  0.675909  0  4.151766  0
C  C153  1  0.79101813  0.80336430  0.23155247  1  1.571906  0  0.208323  0.675702  0  4.151962  0
C  C154  1  0.14759554  0.27742806  0.69916920  1  -0.109462  0  -0.245494  -0.522375  0  3.894672  0
C  C155  1  0.85239220  0.72258375  0.30080899  1  -0.11227  0  -0.245218  -0.521693  0  3.894506  0
C  C156  1  0.30440397  0.86407590  0.86025484  1  1.55997  0  0.205399  0.674399  0  4.151741  0
C  C157  1  0.69557513  0.13588964  0.13976516  1  1.560135  0  0.205197  0.674132  0  4.151141  0
C  C158  1  0.28231269  0.76709103  0.85779556  1  -0.118817  0  -0.247127  -0.51839  0  3.895853  0
C  C159  1  0.71767109  0.23286533  0.14225440  1  -0.120237  0  -0.247154  -0.5183  0  3.895667  0
N  N160  1  0.48233269  0.31771392  0.66168399  1  -1.234534  0  -0.290553  -0.225073  0  3.438058  0
N  N161  1  0.51768354  0.68226330  0.33832685  1  -1.234814  0  -0.290546  -0.224827  0  3.437762  0
N  N162  1  0.55354371  0.68313007  0.83457833  1  -1.251198  0  -0.293117  -0.220991  0  3.458141  0
N  N163  1  0.44643077  0.31686109  0.16543168  1  -1.251744  0  -0.293248  -0.221291  0  3.457821  0
N  N164  1  0.81645041  0.94845462  0.45278877  1  -1.239735  0  -0.291405  -0.216883  0  3.458405  0
N  N165  1  0.18354956  0.05158816  0.54719429  1  -1.240086  0  -0.291375  -0.216652  0  3.458264  0
N  N166  1  0.17889365  0.01839027  0.05879100  1  -1.224082  0  -0.291824  -0.22529  0  3.442335  0
N  N167  1  0.82111411  0.98157195  0.94119649  1  -1.224552  0  -0.291881  -0.225175  0  3.44267  0
O  O168  1  0.33123162  0.21095312  0.47717948  1  -1.207333  0  -0.311769  -0.621401  0  2.233567  0
O  O169  1  0.66876106  0.78908062  0.52279263  1  -1.207834  0  -0.311884  -0.621523  0  2.233475  0
O  O170  1  0.34154779  0.34116932  0.51789587  1  -1.176288  0  -0.312429  -0.568037  0  2.129411  0
O  O171  1  0.65846874  0.65883507  0.48210740  1  -1.176888  0  -0.31245  -0.567995  0  2.128894  0
O  O172  1  0.58307500  0.25985344  0.48259750  1  -1.175006  0  -0.310242  -0.570155  0  2.167601  0
O  O173  1  0.41691620  0.74014768  0.51741009  1  -1.175012  0  -0.310162  -0.570117  0  2.167643  0
O  O174  1  0.60088200  0.10797177  0.46649683  1  -1.206639  0  -0.323237  -0.629882  0  2.160549  0
O  O175  1  0.39911436  0.89204161  0.53348501  1  -1.20697  0  -0.323319  -0.630051  0  2.160793  0
O  O176  1  0.43923833  0.72017578  0.01358182  1  -1.172871  0  -0.305864  -0.562145  0  2.193376  0
O  O177  1  0.56076991  0.27980500  0.98645208  1  -1.173258  0  -0.305836  -0.562126  0  2.193681  0
O  O178  1  0.40695703  0.86721159  0.04123105  1  -1.201264  0  -0.323844  -0.628849  0  2.16509  0
O  O179  1  0.59302271  0.13279941  0.95874504  1  -1.201281  0  -0.323848  -0.628939  0  2.165093  0
O  O180  1  0.67875142  0.66879157  0.98579860  1  -1.167008  0  -0.308473  -0.563918  0  2.150883  0
O  O181  1  0.32123957  0.33119390  0.01417994  1  -1.167583  0  -0.308462  -0.564057  0  2.150852  0
O  O182  1  0.67858895  0.80100649  0.02780762  1  -1.207396  0  -0.312124  -0.621699  0  2.222823  0
O  O183  1  0.32141145  0.19897606  0.97217018  1  -1.207591  0  -0.312169  -0.621914  0  2.222095  0
O  O184  1  0.71643233  0.82960275  0.76754238  1  -1.206429  0  -0.312137  -0.619327  0  2.239108  0
O  O185  1  0.28354917  0.17038190  0.23243243  1  -1.206311  0  -0.312031  -0.619272  0  2.238705  0
O  O186  1  0.83257063  0.80819777  0.65210841  1  -1.15742  0  -0.306828  -0.559295  0  2.151367  0
O  O187  1  0.16747276  0.19185894  0.34787881  1  -1.157116  0  -0.306878  -0.55954  0  2.151439  0
O  O188  1  0.77603434  0.05256789  0.60081721  1  -1.168951  0  -0.306935  -0.563849  0  2.182836  0
O  O189  1  0.22396233  0.94743174  0.39919621  1  -1.169184  0  -0.307036  -0.564178  0  2.182533  0
O  O190  1  0.62453314  0.08010479  0.68114483  1  -1.203797  0  -0.319991  -0.628113  0  2.177146  0
O  O191  1  0.37545964  0.91988351  0.31886853  1  -1.203745  0  -0.319998  -0.628182  0  2.177187  0
O  O192  1  0.23628322  0.91210645  0.90547206  1  -1.170993  0  -0.310911  -0.565067  0  2.163656  0
O  O193  1  0.76370122  0.08787049  0.09453824  1  -1.170563  0  -0.310861  -0.564953  0  2.163054  0
O  O194  1  0.38672411  0.89415258  0.82045914  1  -1.209922  0  -0.322674  -0.628733  0  2.164722  0
O  O195  1  0.61325183  0.10581380  0.17953838  1  -1.210402  0  -0.322525  -0.628543  0  2.164721  0
O  O196  1  0.16484592  0.15439006  0.84812048  1  -1.177593  0  -0.308326  -0.563045  0  2.139702  0
O  O197  1  0.83514410  0.84563384  0.15185529  1  -1.177537  0  -0.308307  -0.563071  0  2.139991  0
O  O198  1  0.30289811  0.17131313  0.74543342  1  -1.218872  0  -0.311272  -0.62166  0  2.221351  0
O  O199  1  0.69708649  0.82869950  0.25452862  1  -1.218545  0  -0.311206  -0.62163  0  2.221259  0
