# generated using pymatgen
data_AgH4C2NO2
_symmetry_space_group_name_H-M   'P 1'
_cell_length_a   6.13266476
_cell_length_b   8.84721539
_cell_length_c   15.12164056
_cell_angle_alpha   97.35471182
_cell_angle_beta   89.99952178
_cell_angle_gamma   89.99942338
_symmetry_Int_Tables_number   1
_chemical_formula_structural   AgH4C2NO2
_chemical_formula_sum   'Ag8 H32 C16 N8 O16'
_cell_volume   813.70477815
_cell_formula_units_Z   8
loop_
 _symmetry_equiv_pos_site_id
 _symmetry_equiv_pos_as_xyz
  1  'x, y, z'
loop_
 _atom_site_type_symbol
 _atom_site_label
 _atom_site_symmetry_multiplicity
 _atom_site_fract_x
 _atom_site_fract_y
 _atom_site_fract_z
 _atom_site_occupancy
 _atom_site_pbe_bader_spin_density
 _atom_site_pbe_cm5_charge
 _atom_site_pbe_ddec_charge
 _atom_site_pbe_ddec_spin_density
 _atom_site_pbe_ddec_sum_bond_order
 _atom_site_pbe_magmom
Ag  Ag0  1  0.74204123  0.34358921  0.08344607  1  0  0.43604  0.316988  0  1.844139  0
Ag  Ag1  1  0.75792449  0.84358455  0.58344567  1  0  0.436014  0.316937  0  1.844025  0
Ag  Ag2  1  0.25794226  0.65641117  0.91655359  1  0  0.43602  0.316892  0  1.844243  0
Ag  Ag3  1  0.24206389  0.15641924  0.41655624  1  0  0.436039  0.316911  0  1.844065  0
Ag  Ag4  1  0.64120155  0.67064952  0.73916684  1  0  0.388939  0.379109  0  1.903154  0
Ag  Ag5  1  0.85881385  0.17065321  0.23916943  1  0  0.389002  0.379194  0  1.90286  0
Ag  Ag6  1  0.35878519  0.32934980  0.26082149  1  0  0.388976  0.379138  0  1.902954  0
Ag  Ag7  1  0.14120714  0.82934377  0.76082799  1  0  0.388918  0.379031  0  1.903157  0
H  H8  1  0.78622510  0.04895926  0.04606650  1  0  0.284278  0.267803  0  1.000642  0
H  H9  1  0.71377482  0.54895277  0.54605156  1  0  0.284312  0.267911  0  1.000576  0
H  H10  1  0.21378121  0.95103995  0.95393968  1  0  0.284324  0.267901  0  1.000573  0
H  H11  1  0.28622170  0.45104197  0.45393973  1  0  0.284299  0.267876  0  1.000618  0
H  H12  1  0.93893001  0.08537517  0.67713693  1  0  0.280919  0.267353  0  1.010161  0
H  H13  1  0.56104058  0.58538342  0.17713957  1  0  0.281015  0.267619  0  1.009893  0
H  H14  1  0.06106163  0.91462522  0.32286207  1  0  0.280899  0.267308  0  1.010239  0
H  H15  1  0.43894779  0.41463065  0.82285982  1  0  0.280868  0.267285  0  1.010155  0
H  H16  1  0.70450649  0.03900114  0.72073234  1  0  0.28568  0.283695  0  0.979429  0
H  H17  1  0.79545894  0.53899611  0.22072988  1  0  0.285722  0.283677  0  0.979548  0
H  H18  1  0.29547699  0.96100949  0.27927009  1  0  0.28569  0.283647  0  0.979531  0
H  H19  1  0.20452129  0.46100655  0.77927128  1  0  0.285717  0.283679  0  0.979503  0
H  H20  1  0.50083677  0.15840091  0.61278299  1  0  0.112132  0.114595  0  0.99255  0
H  H21  1  0.99914394  0.65840217  0.11278364  1  0  0.112135  0.114697  0  0.992418  0
H  H22  1  0.49915487  0.84159834  0.38721592  1  0  0.112123  0.11465  0  0.992533  0
H  H23  1  0.00085585  0.34158795  0.88721655  1  0  0.112145  0.114693  0  0.992455  0
H  H24  1  0.74848135  0.20609356  0.56289358  1  0  0.107431  0.110787  0  1.015908  0
H  H25  1  0.75149812  0.70610708  0.06289864  1  0  0.107453  0.110794  0  1.015936  0
H  H26  1  0.25150540  0.79389999  0.43710423  1  0  0.10744  0.110817  0  1.015866  0
H  H27  1  0.24850820  0.29389331  0.93709969  1  0  0.107448  0.110776  0  1.015985  0
H  H28  1  0.69343379  0.16514967  0.87436038  1  0  0.1108  0.121298  0  1.007801  0
H  H29  1  0.80657234  0.66516166  0.37435588  1  0  0.110753  0.121156  0  1.007974  0
H  H30  1  0.30657090  0.83484270  0.12564594  1  0  0.110755  0.1212  0  1.007889  0
H  H31  1  0.19341114  0.33484331  0.62564083  1  0  0.110788  0.12128  0  1.007964  0
H  H32  1  0.48595431  0.10883046  0.94422953  1  0  0.108781  0.10901  0  1.025268  0
H  H33  1  0.01406822  0.60885174  0.44421746  1  0  0.108773  0.108905  0  1.025169  0
H  H34  1  0.51405527  0.89114596  0.05577225  1  0  0.108824  0.108971  0  1.025308  0
H  H35  1  0.98592341  0.39116124  0.55577325  1  0  0.108752  0.108933  0  1.025385  0
H  H36  1  0.95632998  0.13252551  0.98601217  1  0  0.289341  0.275214  0  0.980029  0
H  H37  1  0.54368242  0.63251466  0.48599356  1  0  0.289412  0.27529  0  0.980063  0
H  H38  1  0.04367959  0.86748165  0.01399794  1  0  0.289367  0.275226  0  0.980058  0
H  H39  1  0.45631574  0.36749031  0.51400183  1  0  0.289388  0.275255  0  0.98004  0
C  C40  1  0.67313673  0.18709909  0.62633721  1  0  -0.080494  -0.150829  0  3.893786  0
C  C41  1  0.82684493  0.68711425  0.12634546  1  0  -0.08054  -0.150993  0  3.893834  0
C  C42  1  0.32685980  0.81290359  0.37366130  1  0  -0.080501  -0.150982  0  3.89381  0
C  C43  1  0.17315649  0.31288840  0.87365636  1  0  -0.080556  -0.150974  0  3.89385  0
C  C44  1  0.67503959  0.33480632  0.69123367  1  0  0.20417  0.596941  0  4.133946  0
C  C45  1  0.82495498  0.83481362  0.19122677  1  0  0.204218  0.597064  0  4.13343  0
C  C46  1  0.32494390  0.66518949  0.30876762  1  0  0.204145  0.596926  0  4.133991  0
C  C47  1  0.17507905  0.16519254  0.80876210  1  0  0.204038  0.596701  0  4.134314  0
C  C48  1  0.68140102  0.92454777  0.88494683  1  0  0.190669  0.588261  0  4.177413  0
C  C49  1  0.81862738  0.42455752  0.38494539  1  0  0.190728  0.588432  0  4.177136  0
C  C50  1  0.31863464  0.07543775  0.11505896  1  0  0.190778  0.588471  0  4.177252  0
C  C51  1  0.18137077  0.57545083  0.61505621  1  0  0.190901  0.588657  0  4.176968  0
C  C52  1  0.65778043  0.09071668  0.92520070  1  0  -0.087712  -0.150385  0  3.872725  0
C  C53  1  0.84222078  0.59073410  0.42519320  1  0  -0.087661  -0.150199  0  3.872465  0
C  C54  1  0.34222589  0.90926658  0.07480359  1  0  -0.087646  -0.150239  0  3.872724  0
C  C55  1  0.15776597  0.40927543  0.57480320  1  0  -0.087693  -0.150482  0  3.872838  0
N  N56  1  0.79497646  0.13204274  0.00423273  1  0  -0.658761  -0.475233  0  3.498008  0
N  N57  1  0.70502156  0.63204540  0.50422381  1  0  -0.658855  -0.475492  0  3.498226  0
N  N58  1  0.20502659  0.86795191  0.99577244  1  0  -0.658848  -0.47543  0  3.498118  0
N  N59  1  0.29497497  0.36796183  0.49577505  1  0  -0.658817  -0.475407  0  3.498221  0
N  N60  1  0.77833785  0.05826028  0.66182781  1  0  -0.656096  -0.488927  0  3.520708  0
N  N61  1  0.72163181  0.55825470  0.16182555  1  0  -0.65624  -0.489329  0  3.52111  0
N  N62  1  0.22165053  0.94174353  0.33817277  1  0  -0.656094  -0.488824  0  3.520887  0
N  N63  1  0.27835494  0.44175025  0.83817314  1  0  -0.656096  -0.48887  0  3.520832  0
O  O64  1  0.70936804  0.33254250  0.77261911  1  0  -0.316086  -0.532756  0  2.161534  0
O  O65  1  0.79060040  0.83256592  0.27263075  1  0  -0.316167  -0.533004  0  2.160635  0
O  O66  1  0.29058936  0.66744876  0.22738183  1  0  -0.316084  -0.532839  0  2.161579  0
O  O67  1  0.20942385  0.16744470  0.72737432  1  0  -0.316036  -0.532717  0  2.161466  0
O  O68  1  0.62989726  0.45554058  0.65459186  1  0  -0.334178  -0.511382  0  2.368838  0
O  O69  1  0.87012412  0.95553034  0.15459602  1  0  -0.33421  -0.511288  0  2.369012  0
O  O70  1  0.37008949  0.54445752  0.34540829  1  0  -0.33415  -0.511277  0  2.368751  0
O  O71  1  0.12992458  0.04446664  0.84540206  1  0  -0.334106  -0.511207  0  2.368865  0
O  O72  1  0.61584654  0.89886170  0.80299644  1  0  -0.339676  -0.549702  0  2.491555  0
O  O73  1  0.88419535  0.39886635  0.30299571  1  0  -0.339714  -0.549769  0  2.491383  0
O  O74  1  0.38420869  0.10113072  0.19700062  1  0  -0.339769  -0.549787  0  2.491581  0
O  O75  1  0.11579140  0.60112831  0.69700814  1  0  -0.339797  -0.549926  0  2.49138  0
O  O76  1  0.75067617  0.82626013  0.93045913  1  0  -0.326123  -0.571597  0  2.224625  0
O  O77  1  0.74934123  0.32627958  0.43045535  1  0  -0.326182  -0.571664  0  2.224551  0
O  O78  1  0.24934156  0.17373453  0.06954472  1  0  -0.32621  -0.57178  0  2.224513  0
O  O79  1  0.25065367  0.67372873  0.56955418  1  0  -0.326259  -0.571668  0  2.224731  0
