# generated using pymatgen
data_CoH30C30(NO)6
_symmetry_space_group_name_H-M   'P 1'
_cell_length_a   8.43969630
_cell_length_b   9.78279663
_cell_length_c   9.76654336
_cell_angle_alpha   59.02782620
_cell_angle_beta   86.43620281
_cell_angle_gamma   85.40597881
_symmetry_Int_Tables_number   1
_chemical_formula_structural   CoH30C30(NO)6
_chemical_formula_sum   'Co1 H30 C30 N6 O6'
_cell_volume   688.96165013
_cell_formula_units_Z   1
loop_
 _symmetry_equiv_pos_site_id
 _symmetry_equiv_pos_as_xyz
  1  'x, y, z'
loop_
 _atom_site_type_symbol
 _atom_site_label
 _atom_site_symmetry_multiplicity
 _atom_site_fract_x
 _atom_site_fract_y
 _atom_site_fract_z
 _atom_site_occupancy
 _atom_site_pbe_cm5_charge
 _atom_site_pbe_ddec_charge
 _atom_site_pbe_ddec_spin_density
 _atom_site_pbe_ddec_sum_bond_order
 _atom_site_pbe_magmom
Co  Co0  1  0.49999763  0.49999320  0.50000000  1  0.64091  0.689137  -1.048647  2.838909  -0.974
H  H1  1  0.78412930  0.47051017  0.58406196  1  0.278145  0.354807  0.000283  1.010973  0.0
H  H2  1  0.21586898  0.52948314  0.41594573  1  0.27815  0.354802  0.000283  1.010966  0.0
H  H3  1  0.83774707  0.37514568  0.49591299  1  0.309151  0.384476  -0.0008  0.906036  -0.001
H  H4  1  0.16224742  0.62485251  0.50408731  1  0.309152  0.384442  -0.0008  0.906087  -0.001
H  H5  1  0.82401188  0.53457121  0.80312104  1  0.309923  0.293825  2.1e-05  0.986989  0.0
H  H6  1  0.17599409  0.46543421  0.19687311  1  0.309936  0.293833  2.1e-05  0.986848  0.0
H  H7  1  0.77869567  0.95676041  0.35360117  1  0.10233  0.119761  0.000193  1.007539  0.0
H  H8  1  0.22128602  0.04323293  0.64640416  1  0.102329  0.119785  0.000193  1.007444  0.0
H  H9  1  0.76763374  0.90608831  0.55329538  1  0.098458  0.114003  8.2e-05  0.992393  0.0
H  H10  1  0.23234935  0.09390145  0.44671167  1  0.098484  0.113977  8.2e-05  0.992412  0.0
H  H11  1  0.58017129  0.13955248  0.35540987  1  0.085278  0.078696  0.000103  1.019461  0.0
H  H12  1  0.41981348  0.86042895  0.64460023  1  0.085336  0.078747  0.000103  1.019468  0.0
H  H13  1  0.47096669  0.99522981  0.34937480  1  0.088165  0.083714  1.7e-05  0.999116  0.0
H  H14  1  0.52901562  0.00475279  0.65063586  1  0.088171  0.083797  1.7e-05  0.999  0.0
H  H15  1  0.40544203  0.77635025  0.20096228  1  0.121398  0.099907  0.000213  1.030944  0.0
H  H16  1  0.59455519  0.22363934  0.79905345  1  0.121403  0.099911  0.000213  1.030904  0.0
H  H17  1  0.45972834  0.86966444  0.91087388  1  0.112539  0.119146  4.8e-05  0.995248  0.0
H  H18  1  0.54026812  0.13033827  0.08913535  1  0.112522  0.119129  4.8e-05  0.995224  0.0
H  H19  1  0.64461780  0.70344718  0.83764569  1  0.110355  0.10796  0.000274  1.009939  0.0
H  H20  1  0.35537595  0.29656152  0.16235965  1  0.110362  0.108007  0.000274  1.009831  0.0
H  H21  1  0.67951601  0.35767967  0.34138356  1  0.125013  0.098081  0.000277  1.031976  0.0
H  H22  1  0.32047687  0.64230672  0.65861655  1  0.125011  0.098034  0.000277  1.032116  0.0
H  H23  1  0.05564255  0.36401493  0.70984402  1  0.100109  0.108646  -0.000206  1.019612  0.0
H  H24  1  0.94435932  0.63600006  0.29014452  1  0.100099  0.108629  -0.000206  1.019673  0.0
H  H25  1  0.23220176  0.11592762  0.83372494  1  0.094609  0.090473  6.3e-05  1.026733  0.0
H  H26  1  0.76781249  0.88407908  0.16626512  1  0.094607  0.090443  6.3e-05  1.026783  0.0
H  H27  1  0.23320428  0.93344478  0.12729047  1  0.093549  0.090423  -7e-06  1.048192  0.0
H  H28  1  0.76680806  0.06657248  0.87270262  1  0.093586  0.090464  -7e-06  1.048142  0.0
H  H29  1  0.06815466  0.99621337  0.30864333  1  0.104983  0.117148  -4.1e-05  0.992381  0.0
H  H30  1  0.93185771  0.00380394  0.69134769  1  0.104949  0.117087  -4.1e-05  0.992306  0.0
C  C31  1  0.67994003  0.73512628  0.50834571  1  0.21527  0.615937  0.003757  4.11522  0.002
C  C32  1  0.32005996  0.26486144  0.49164830  1  0.215375  0.616143  0.003757  4.115012  0.002
C  C33  1  0.69915092  0.90751719  0.46023862  1  -0.16508  -0.303318  0.001163  3.930356  0.001
C  C34  1  0.30083343  0.09247138  0.53976897  1  -0.165133  -0.303361  0.001163  3.93034  0.001
C  C35  1  0.54707353  0.01451667  0.42481147  1  -0.170538  -0.125182  0.000106  3.933449  0.0
C  C36  1  0.45290398  0.98546714  0.57519777  1  -0.170547  -0.125188  0.000106  3.933431  0.0
C  C37  1  0.48032233  0.70627997  0.16239229  1  0.044249  0.07732  0.008107  3.896107  0.005
C  C38  1  0.51966896  0.29371094  0.83761690  1  0.044193  0.077245  0.008104  3.896316  0.005
C  C39  1  0.51271680  0.75609021  0.00288469  1  -0.079599  -0.113902  -0.000543  3.993611  -0.002
C  C40  1  0.48727970  0.24391257  0.99712143  1  -0.079536  -0.113837  -0.000543  3.993601  -0.002
C  C41  1  0.61497491  0.66266510  0.96247479  1  -0.067492  -0.077054  0.010189  3.94143  0.006
C  C42  1  0.38501899  0.33734255  0.03752492  1  -0.067502  -0.077134  0.010188  3.941428  0.006
C  C43  1  0.68072994  0.51787033  0.08559020  1  0.001107  -0.018436  -0.000392  4.029686  -0.002
C  C44  1  0.31927025  0.48213139  0.91441116  1  0.001072  -0.018409  -0.000391  4.029797  -0.002
C  C45  1  0.63554548  0.47194142  0.24327477  1  0.049314  0.032175  0.008739  3.90523  0.005
C  C46  1  0.36445415  0.52805090  0.75672413  1  0.049367  0.032206  0.008741  3.905249  0.005
C  C47  1  0.79650784  0.41283908  0.06199259  1  0.214392  0.2895  0.000356  4.072382  0.0
C  C48  1  0.20350055  0.58716511  0.93800411  1  0.214399  0.289528  0.000356  4.072351  0.0
C  C49  1  0.96352657  0.31860068  0.94199779  1  0.092386  0.150002  -8.9e-05  4.014089  0.0
C  C50  1  0.03648258  0.68141198  0.05798953  1  0.092296  0.149754  -8.9e-05  4.014013  0.0
C  C51  1  0.05910647  0.28603904  0.83899973  1  -0.098877  -0.167273  -0.000176  3.994838  0.0
C  C52  1  0.94090716  0.71397709  0.16099078  1  -0.098899  -0.167259  -0.000176  3.994885  0.0
C  C53  1  0.15647664  0.14648040  0.90964219  1  -0.0984  -0.081223  -6.9e-05  4.035237  0.0
C  C54  1  0.84354611  0.85354168  0.09034701  1  -0.098361  -0.081085  -6.9e-05  4.035197  0.0
C  C55  1  0.15902036  0.04369404  0.07675634  1  -0.103431  -0.098239  -8e-06  4.053186  0.0
C  C56  1  0.84100479  0.95632810  0.92323068  1  -0.103418  -0.098308  -8e-06  4.053056  0.0
C  C57  1  0.06568701  0.07687316  0.17956131  1  -0.096624  -0.163941  -5.5e-05  3.997025  0.0
C  C58  1  0.93433230  0.92314648  0.82043131  1  -0.096615  -0.163823  -5.5e-05  3.996848  0.0
C  C59  1  0.96585118  0.21655519  0.11127811  1  0.078884  0.135516  5.6e-05  4.092813  0.0
C  C60  1  0.03415213  0.78345632  0.88870800  1  0.078952  0.135631  5.6e-05  4.092505  0.0
N  N61  1  0.54021438  0.56463688  0.28135208  1  -0.350069  -0.188097  0.010274  3.696787  0.007
N  N62  1  0.45978798  0.43534948  0.71864967  1  -0.350087  -0.188018  0.010273  3.696754  0.007
N  N63  1  0.85525505  0.44253233  0.91526524  1  -0.380785  -0.315408  -3.4e-05  3.577556  0.0
N  N64  1  0.14474605  0.55747416  0.08473370  1  -0.380736  -0.315282  -3.4e-05  3.577326  0.0
N  N65  1  0.86052338  0.27819872  0.18251389  1  -0.347222  -0.42596  -0.000177  3.204548  0.0
N  N66  1  0.13948659  0.72179960  0.81748157  1  -0.347312  -0.42613  -0.000177  3.204639  0.0
O  O67  1  0.55929638  0.70691095  0.45475418  1  -0.296887  -0.502479  0.00602  2.432667  0.005
O  O68  1  0.44070253  0.29307430  0.54524418  1  -0.296865  -0.502512  0.006021  2.432599  0.005
O  O69  1  0.78735792  0.63058821  0.59276222  1  -0.325289  -0.577474  0.000939  2.217664  0.001
O  O70  1  0.21263829  0.36940039  0.40724483  1  -0.325404  -0.577625  0.000939  2.217693  0.001
O  O71  1  0.76091458  0.37627811  0.57398189  1  -0.569775  -0.748153  -0.024359  2.072738  -0.037
O  O72  1  0.23908005  0.62371769  0.42601959  1  -0.569785  -0.748138  -0.024357  2.072775  -0.037
