# generated using pymatgen
data_ZnH18C13(NO2)2
_symmetry_space_group_name_H-M   'P 1'
_cell_length_a   10.40100421
_cell_length_b   17.45679238
_cell_length_c   17.45649080
_cell_angle_alpha   120.00027470
_cell_angle_beta   90.00000055
_cell_angle_gamma   90.00001938
_symmetry_Int_Tables_number   1
_chemical_formula_structural   ZnH18C13(NO2)2
_chemical_formula_sum   'Zn6 H108 C78 N12 O24'
_cell_volume   2744.89725130
_cell_formula_units_Z   6
loop_
 _symmetry_equiv_pos_site_id
 _symmetry_equiv_pos_as_xyz
  1  'x, y, z'
loop_
 _atom_site_type_symbol
 _atom_site_label
 _atom_site_symmetry_multiplicity
 _atom_site_fract_x
 _atom_site_fract_y
 _atom_site_fract_z
 _atom_site_occupancy
 _atom_site_pbe_bader_charge
 _atom_site_pbe_bader_spin_density
 _atom_site_pbe_cm5_charge
 _atom_site_pbe_ddec_charge
 _atom_site_pbe_ddec_spin_density
 _atom_site_pbe_ddec_sum_bond_order
 _atom_site_pbe_magmom
Zn  Zn0  1  0.88566186  0.92173303  0.45651276  1  1.266596  0  0.691403  0.79968  0  2.324289  0
Zn  Zn1  1  0.71903744  0.45652694  0.53482514  1  1.267986  0  0.691375  0.799544  0  2.324321  0
Zn  Zn2  1  0.55249873  0.53481647  0.07828019  1  1.267937  0  0.691731  0.799623  0  2.323876  0
Zn  Zn3  1  0.38566183  0.07826763  0.54348809  1  1.266591  0  0.691379  0.799636  0  2.324327  0
Zn  Zn4  1  0.21903766  0.54347376  0.46517445  1  1.267999  0  0.691388  0.799538  0  2.324393  0
Zn  Zn5  1  0.05249988  0.46518262  0.92171980  1  1.267903  0  0.691726  0.799607  0  2.323868  0
H  H6  1  0.77971993  0.07178218  0.52016678  1  0.452016  0  0.293857  0.246547  0  0.993234  0
H  H7  1  0.61313133  0.52015771  0.44842784  1  0.463609  0  0.293949  0.246145  0  0.993268  0
H  H8  1  0.44658778  0.44842871  0.92825340  1  0.452179  0  0.293354  0.245727  0  0.993235  0
H  H9  1  0.27971941  0.92821788  0.47983348  1  0.451998  0  0.293851  0.246533  0  0.993244  0
H  H10  1  0.11313152  0.47984296  0.55157174  1  0.463615  0  0.293977  0.246174  0  0.993227  0
H  H11  1  0.94658760  0.55157164  0.07174779  1  0.452232  0  0.29335  0.24571  0  0.993279  0
H  H12  1  0.00347376  0.17813185  0.38643630  1  0.12502  0  0.113705  0.128634  0  1.010612  0
H  H13  1  0.83696160  0.38651152  0.20839973  1  0.111292  0  0.113365  0.128685  0  1.009969  0
H  H14  1  0.67025169  0.20836424  0.82187070  1  0.107346  0  0.113527  0.128223  0  1.010294  0
H  H15  1  0.50347374  0.82186756  0.61356335  1  0.125026  0  0.113713  0.128657  0  1.010615  0
H  H16  1  0.33696187  0.61348798  0.79159997  1  0.11126  0  0.113361  0.128675  0  1.009969  0
H  H17  1  0.17025109  0.79163636  0.17813012  1  0.107294  0  0.113525  0.128233  0  1.010314  0
H  H18  1  0.00234309  0.15844404  0.52605420  1  0.056124  0  0.113813  0.084347  0  1.000711  0
H  H19  1  0.83574061  0.52604379  0.36764014  1  0.074926  0  0.113522  0.08338  0  0.999999  0
H  H20  1  0.66923741  0.36763229  0.84158615  1  0.0836  0  0.114008  0.084544  0  1.000015  0
H  H21  1  0.50234308  0.84155628  0.47394569  1  0.056132  0  0.113799  0.084277  0  1.000736  0
H  H22  1  0.33574080  0.47395671  0.63235856  1  0.074948  0  0.113522  0.083392  0  0.999978  0
H  H23  1  0.16923769  0.63236864  0.15841434  1  0.083589  0  0.114006  0.084533  0  1.000012  0
H  H24  1  0.94094867  0.33653920  0.44069685  1  0.111456  0  0.118149  0.09191  0  1.042842  0
H  H25  1  0.77443208  0.44074239  0.10422158  1  0.140979  0  0.117432  0.090901  0  1.044289  0
H  H26  1  0.60767213  0.10412392  0.66349375  1  0.110162  0  0.117634  0.090837  0  1.043465  0
H  H27  1  0.44094608  0.66346033  0.55930286  1  0.111411  0  0.118151  0.091938  0  1.042799  0
H  H28  1  0.27443424  0.55925685  0.89577720  1  0.140931  0  0.117428  0.090891  0  1.044279  0
H  H29  1  0.10767159  0.89587667  0.33650706  1  0.110151  0  0.117629  0.090832  0  1.043416  0
H  H30  1  0.78398680  0.00701864  0.36445359  1  0.07482  0  0.113716  0.105742  0  0.968511  0
H  H31  1  0.61743760  0.36445038  0.35743832  1  0.084984  0  0.114208  0.106252  0  0.967556  0
H  H32  1  0.45083638  0.35745389  0.99298177  1  0.062368  0  0.114173  0.105706  0  0.968059  0
H  H33  1  0.28398633  0.99298085  0.63554610  1  0.074616  0  0.113713  0.105736  0  0.968498  0
H  H34  1  0.11743692  0.63555020  0.64256249  1  0.084917  0  0.114223  0.106275  0  0.967621  0
H  H35  1  0.95083722  0.64254622  0.00701852  1  0.062377  0  0.114166  0.105694  0  0.968058  0
H  H36  1  0.95027749  0.03600715  0.37081417  1  0.069386  0  0.116051  0.110896  0  0.968847  0
H  H37  1  0.78371193  0.37083707  0.33483149  1  0.062814  0  0.116166  0.111081  0  0.968885  0
H  H38  1  0.61707706  0.33478731  0.96394165  1  0.083105  0  0.116214  0.110998  0  0.968859  0
H  H39  1  0.45027603  0.96399206  0.62918587  1  0.069403  0  0.116051  0.110891  0  0.968834  0
H  H40  1  0.28371125  0.62916365  0.66516811  1  0.062804  0  0.116191  0.111106  0  0.968873  0
H  H41  1  0.11707735  0.66521352  0.03606006  1  0.083104  0  0.116197  0.110952  0  0.968901  0
H  H42  1  0.62459743  0.14107769  0.46572311  1  0.148556  0  0.110191  0.133313  0  1.036  0
H  H43  1  0.45801937  0.46575778  0.32467011  1  0.157666  0  0.10998  0.13339  0  1.036145  0
H  H44  1  0.29134985  0.32465679  0.85893101  1  0.155967  0  0.109798  0.133528  0  1.035885  0
H  H45  1  0.12459495  0.85892233  0.53427713  1  0.148555  0  0.110195  0.133328  0  1.035953  0
H  H46  1  0.95802015  0.53424232  0.67533018  1  0.157689  0  0.109979  0.133384  0  1.036153  0
H  H47  1  0.79134878  0.67534327  0.14106926  1  0.155953  0  0.109799  0.133515  0  1.03587  0
H  H48  1  0.58282843  0.30042111  0.52037411  1  0.166495  0  0.120884  0.097961  0  1.022306  0
H  H49  1  0.41629649  0.52038082  0.21995542  1  0.145332  0  0.120772  0.097902  0  1.022971  0
H  H50  1  0.24955193  0.21988766  0.69960720  1  0.147323  0  0.120534  0.097378  0  1.023265  0
H  H51  1  0.08282778  0.69957841  0.47962432  1  0.166476  0  0.120894  0.097983  0  1.022296  0
H  H52  1  0.91629724  0.47961927  0.78004486  1  0.145307  0  0.120762  0.097898  0  1.022963  0
H  H53  1  0.74955189  0.78011239  0.30039305  1  0.14724  0  0.120527  0.097357  0  1.023276  0
H  H54  1  0.80377049  0.06748178  0.64638573  1  0.03476  0  0.085371  0.116808  0  1.045308  0
H  H55  1  0.63718482  0.64644109  0.57894872  1  0.020982  0  0.085604  0.116353  0  1.045111  0
H  H56  1  0.47049513  0.57884339  0.93245635  1  0.028423  0  0.085485  0.11696  0  1.045225  0
H  H57  1  0.30377094  0.93251862  0.35361420  1  0.034766  0  0.085386  0.116874  0  1.045286  0
H  H58  1  0.13718493  0.35355893  0.42105152  1  0.020979  0  0.085616  0.116389  0  1.045135  0
H  H59  1  0.97049391  0.42115672  0.06754394  1  0.028428  0  0.085484  0.116957  0  1.045196  0
H  H60  1  0.86420891  0.14632519  0.75177487  1  0.081064  0  0.08967  0.129408  0  1.023886  0
H  H61  1  0.69766362  0.75182687  0.60546724  1  0.050042  0  0.089499  0.129307  0  1.023411  0
H  H62  1  0.53091622  0.60541424  0.85362944  1  0.041638  0  0.090347  0.129498  0  1.023259  0
H  H63  1  0.36420738  0.85367432  0.24822484  1  0.081054  0  0.089681  0.129431  0  1.023903  0
H  H64  1  0.19766272  0.24817260  0.39453244  1  0.050035  0  0.089481  0.129286  0  1.02341  0
H  H65  1  0.03091636  0.39458599  0.14637169  1  0.041617  0  0.090349  0.129499  0  1.023253  0
H  H66  1  0.96389253  0.05889970  0.67502053  1  0.025635  0  0.086153  0.119494  0  1.015649  0
H  H67  1  0.79729340  0.67506774  0.61614504  1  0.025008  0  0.085743  0.119132  0  1.016362  0
H  H68  1  0.63054987  0.61612517  0.94108232  1  0.031715  0  0.086239  0.11936  0  1.016486  0
H  H69  1  0.46389298  0.94109902  0.32497771  1  0.02563  0  0.086158  0.119527  0  1.015643  0
H  H70  1  0.29729350  0.32493175  0.38385465  1  0.02502  0  0.085737  0.119103  0  1.016373  0
H  H71  1  0.13055000  0.38387509  0.05891882  1  0.031657  0  0.086239  0.119362  0  1.016431  0
H  H72  1  0.02608504  0.19698212  0.67962115  1  0.031493  0  0.099188  0.071334  0  0.973588  0
H  H73  1  0.85957970  0.67960809  0.48267091  1  0.015076  0  0.099299  0.070578  0  0.974211  0
H  H74  1  0.69295054  0.48269089  0.80303936  1  0.039314  0  0.098987  0.070837  0  0.97396  0
H  H75  1  0.52608501  0.80301787  0.32037907  1  0.031495  0  0.099182  0.071329  0  0.973567  0
H  H76  1  0.35958076  0.32039347  0.51733018  1  0.015084  0  0.099304  0.070571  0  0.97419  0
H  H77  1  0.19295075  0.51730914  0.19696089  1  0.039315  0  0.098991  0.070845  0  0.973957  0
H  H78  1  0.87626355  0.28081161  0.63723766  1  0.014598  0  0.083695  0.117055  0  1.009829  0
H  H79  1  0.70981530  0.63727084  0.35646268  1  0.017706  0  0.083948  0.117712  0  1.01001  0
H  H80  1  0.54327457  0.35642416  0.71910398  1  0.029564  0  0.083992  0.117377  0  1.009887  0
H  H81  1  0.37626388  0.71918847  0.36276261  1  0.01465  0  0.083702  0.117062  0  1.00979  0
H  H82  1  0.20981639  0.36273010  0.64353781  1  0.017732  0  0.083958  0.117728  0  1.010041  0
H  H83  1  0.04327389  0.64357608  0.28089715  1  0.029651  0  0.083983  0.11735  0  1.009968  0
H  H84  1  0.82860950  0.28250126  0.73585461  1  0.031402  0  0.089197  0.129994  0  1.019255  0
H  H85  1  0.66207667  0.73586818  0.45338367  1  0.077148  0  0.08953  0.129965  0  1.018506  0
H  H86  1  0.49545710  0.45337014  0.71749461  1  0.029028  0  0.08916  0.129672  0  1.019068  0
H  H87  1  0.32860982  0.71749791  0.26414542  1  0.031404  0  0.089211  0.130004  0  1.01923  0
H  H88  1  0.16207770  0.26413275  0.54661682  1  0.076922  0  0.089522  0.12993  0  1.018538  0
H  H89  1  0.99545692  0.54663030  0.28250536  1  0.028844  0  0.089166  0.129686  0  1.01907  0
H  H90  1  0.74546174  0.21443870  0.63526146  1  0.015814  0  0.079205  0.105769  0  1.041607  0
H  H91  1  0.57895774  0.63524057  0.42079841  1  0.007116  0  0.078953  0.105472  0  1.042242  0
H  H92  1  0.41238434  0.42069970  0.78547383  1  0.012357  0  0.078897  0.105191  0  1.041827  0
H  H93  1  0.24546114  0.78556111  0.36473789  1  0.015807  0  0.079197  0.105754  0  1.041616  0
H  H94  1  0.07895787  0.36475976  0.57920150  1  0.007124  0  0.078951  0.105472  0  1.042213  0
H  H95  1  0.91238418  0.57930040  0.21452646  1  0.012359  0  0.078882  0.105159  0  1.041816  0
H  H96  1  0.82718673  0.88387326  0.72434395  1  0.037463  0  0.091472  0.143158  0  1.001295  0
H  H97  1  0.66052297  0.72435379  0.84051369  1  0.030255  0  0.091646  0.143382  0  1.000733  0
H  H98  1  0.49369103  0.84047215  0.11610662  1  0.024162  0  0.091661  0.143468  0  1.000949  0
H  H99  1  0.32718575  0.11612657  0.27565542  1  0.03745  0  0.091486  0.143156  0  1.001241  0
H  H100  1  0.16052400  0.27564590  0.15948688  1  0.030281  0  0.091609  0.143361  0  1.000751  0
H  H101  1  0.99369256  0.15952707  0.88389343  1  0.0242  0  0.091664  0.1435  0  1.000979  0
H  H102  1  0.96881730  0.93225241  0.70811780  1  0.037726  0  0.093884  0.144402  0  0.997705  0
H  H103  1  0.80215544  0.70821592  0.77592356  1  0.024652  0  0.094163  0.1446  0  0.99841  0
H  H104  1  0.63538310  0.77592571  0.06766095  1  0.046207  0  0.093904  0.143881  0  0.998172  0
H  H105  1  0.46881629  0.06774803  0.29188216  1  0.037736  0  0.0939  0.14441  0  0.997716  0
H  H106  1  0.30215552  0.29178357  0.22407613  1  0.02464  0  0.094171  0.14462  0  0.998411  0
H  H107  1  0.13538219  0.22407431  0.93233930  1  0.046212  0  0.093894  0.143874  0  0.998171  0
H  H108  1  0.94826252  0.81652240  0.64596956  1  0.033403  0  0.09207  0.143134  0  1.011589  0
H  H109  1  0.78166029  0.64602384  0.82948019  1  0.046353  0  0.092194  0.143557  0  1.01175  0
H  H110  1  0.61486490  0.82947576  0.18340640  1  0.058385  0  0.092538  0.143379  0  1.011956  0
H  H111  1  0.44826062  0.18347713  0.35403016  1  0.033423  0  0.092074  0.143093  0  1.011604  0
H  H112  1  0.28166137  0.35397564  0.17051950  1  0.046352  0  0.092189  0.14356  0  1.011734  0
H  H113  1  0.11486589  0.17052425  0.81659384  1  0.058383  0  0.092579  0.143453  0  1.011949  0
C  C114  1  0.09455724  0.05588057  0.53435137  1  1.579196  0  0.214928  0.587643  0  4.157258  0
C  C115  1  0.92798459  0.53433780  0.47848931  1  1.579252  0  0.215145  0.588013  0  4.155623  0
C  C116  1  0.76145931  0.47853277  0.94412955  1  1.568024  0  0.215069  0.588625  0  4.154413  0
C  C117  1  0.59455632  0.94411944  0.46564887  1  1.579201  0  0.214964  0.587695  0  4.15727  0
C  C118  1  0.42798477  0.46566272  0.52150940  1  1.579094  0  0.215073  0.587887  0  4.156004  0
C  C119  1  0.26145856  0.52146762  0.05587037  1  1.568076  0  0.215102  0.588672  0  4.154365  0
C  C120  1  0.90853829  0.20256815  0.41475632  1  -0.093449  0  -0.079952  -0.181407  0  3.934488  0
C  C121  1  0.74201213  0.41481363  0.21225356  1  -0.024464  0  -0.080217  -0.181673  0  3.93252  0
C  C122  1  0.57532048  0.21224782  0.79742816  1  -0.067516  0  -0.08024  -0.180788  0  3.932839  0
C  C123  1  0.40853867  0.79743170  0.58524306  1  -0.0933  0  -0.079977  -0.181473  0  3.934472  0
C  C124  1  0.24201238  0.58518528  0.78774556  1  -0.024412  0  -0.080198  -0.181642  0  3.932523  0
C  C125  1  0.07531988  0.78775309  0.20257231  1  -0.067441  0  -0.080254  -0.180806  0  3.932833  0
C  C126  1  0.97318684  0.11102561  0.54700146  1  0.284721  0  -0.001948  -0.052689  0  3.80989  0
C  C127  1  0.80660689  0.54701038  0.43601723  1  0.266022  0  -0.001236  -0.049529  0  3.805829  0
C  C128  1  0.64007967  0.43600717  0.88898394  1  0.259619  0  -0.001984  -0.051951  0  3.806897  0
C  C129  1  0.47318630  0.88897450  0.45299883  1  0.284725  0  -0.001969  -0.052611  0  3.809806  0
C  C130  1  0.30660707  0.45299010  0.56398147  1  0.266012  0  -0.001282  -0.049653  0  3.806016  0
C  C131  1  0.14007990  0.56399285  0.11101630  1  0.259619  0  -0.001967  -0.051918  0  3.806905  0
C  C132  1  0.87560400  0.29046394  0.44558275  1  0.530218  0  0.046964  0.091219  0  3.942528  0
C  C133  1  0.70907397  0.44560753  0.15516086  1  0.439178  0  0.048178  0.092925  0  3.942663  0
C  C134  1  0.54234768  0.15510503  0.70956139  1  0.464484  0  0.047722  0.093056  0  3.942619  0
C  C135  1  0.37560240  0.70953615  0.55441752  1  0.53009  0  0.046997  0.091213  0  3.942493  0
C  C136  1  0.20907421  0.55439193  0.84483882  1  0.439191  0  0.048209  0.093007  0  3.942684  0
C  C137  1  0.04234615  0.84489530  0.29043850  1  0.464489  0  0.047734  0.093067  0  3.942611  0
C  C138  1  0.82038141  0.14711069  0.42375787  1  -0.00336  0  0.011706  0.142546  0  3.944247  0
C  C139  1  0.65382737  0.42379714  0.27669091  1  -0.043592  0  0.010958  0.140566  0  3.944889  0
C  C140  1  0.48715305  0.27670136  0.85288117  1  0.050091  0  0.011087  0.140966  0  3.945534  0
C  C141  1  0.32038085  0.85288881  0.57624183  1  -0.003457  0  0.011716  0.142587  0  3.944161  0
C  C142  1  0.15382666  0.57620322  0.72330901  1  -0.043712  0  0.010929  0.140479  0  3.944962  0
C  C143  1  0.98715200  0.72329842  0.14711946  1  0.050106  0  0.011098  0.140913  0  3.945551  0
C  C144  1  0.85727590  0.05601184  0.40504601  1  0.279712  0  -0.064753  -0.095984  0  3.890845  0
C  C145  1  0.69071131  0.40506720  0.34906642  1  0.253678  0  -0.064263  -0.09541  0  3.890145  0
C  C146  1  0.52409277  0.34906284  0.94397368  1  0.253376  0  -0.065375  -0.096307  0  3.891535  0
C  C147  1  0.35727539  0.94398800  0.59495335  1  0.280068  0  -0.06474  -0.09595  0  3.890773  0
C  C148  1  0.19071061  0.59493317  0.65093350  1  0.253851  0  -0.06433  -0.095503  0  3.890319  0
C  C149  1  0.02409305  0.65093715  0.05602655  1  0.2534  0  -0.065384  -0.096253  0  3.891509  0
C  C150  1  0.69946232  0.18160659  0.45971338  1  -0.060185  0  -0.082505  -0.177156  0  3.923673  0
C  C151  1  0.53291118  0.45974856  0.27813912  1  -0.000141  0  -0.082226  -0.176334  0  3.924799  0
C  C152  1  0.36621857  0.27813078  0.81839077  1  -0.034015  0  -0.081599  -0.176748  0  3.92376  0
C  C153  1  0.19946175  0.81839354  0.54028563  1  -0.060193  0  -0.082498  -0.177149  0  3.923551  0
C  C154  1  0.03291237  0.54025143  0.72186111  1  -0.000156  0  -0.082223  -0.176263  0  3.924782  0
C  C155  1  0.86621753  0.72186873  0.18160893  1  -0.034007  0  -0.081584  -0.176682  0  3.923691  0
C  C156  1  0.67445323  0.27020805  0.49023742  1  0.401903  0  0.047764  0.096641  0  3.922153  0
C  C157  1  0.50791264  0.49024878  0.22004430  1  0.408467  0  0.047859  0.096448  0  3.924277  0
C  C158  1  0.34119116  0.21999268  0.72980649  1  0.40574  0  0.048297  0.097887  0  3.923252  0
C  C159  1  0.17445164  0.72979174  0.50976193  1  0.40146  0  0.047739  0.096573  0  3.922098  0
C  C160  1  0.00791285  0.50975063  0.77995535  1  0.408494  0  0.047917  0.09647  0  3.924241  0
C  C161  1  0.84119111  0.78000821  0.27019525  1  0.405827  0  0.0483  0.097905  0  3.923233  0
C  C162  1  0.88912284  0.10625885  0.68152119  1  -0.138077  0  -0.251262  -0.40452  0  3.891513  0
C  C163  1  0.72253908  0.68156650  0.57528589  1  -0.088045  0  -0.25131  -0.404069  0  3.890716  0
C  C164  1  0.55584938  0.57522668  0.89369301  1  -0.08215  0  -0.252  -0.404442  0  3.892016  0
C  C165  1  0.38912230  0.89374067  0.31847852  1  -0.138078  0  -0.251322  -0.404693  0  3.891581  0
C  C166  1  0.22253822  0.31843355  0.42471436  1  -0.088043  0  -0.251288  -0.404042  0  3.890695  0
C  C167  1  0.05584857  0.42477299  0.10630755  1  -0.082081  0  -0.251991  -0.40443  0  3.891922  0
C  C168  1  0.93580585  0.16537047  0.64566681  1  0.058193  0  -0.087846  0.089767  0  3.861475  0
C  C169  1  0.76925860  0.64568214  0.48032451  1  0.072363  0  -0.088087  0.089894  0  3.860823  0
C  C170  1  0.60265637  0.48029080  0.83460841  1  0.038999  0  -0.088405  0.08881  0  3.860442  0
C  C171  1  0.43580527  0.83462939  0.35433258  1  0.058198  0  -0.087799  0.089799  0  3.861407  0
C  C172  1  0.26925968  0.35431858  0.51967509  1  0.072369  0  -0.088104  0.089916  0  3.860748  0
C  C173  1  0.10265562  0.51970921  0.16539182  1  0.03901  0  -0.088391  0.088808  0  3.860449  0
C  C174  1  0.84083331  0.23964202  0.66410779  1  -0.059781  0  -0.249356  -0.396471  0  3.909644  0
C  C175  1  0.67432066  0.66412226  0.42448170  1  -0.097628  0  -0.249101  -0.396371  0  3.909552  0
C  C176  1  0.50774533  0.42443042  0.76030427  1  -0.070589  0  -0.248699  -0.394939  0  3.908599  0
C  C177  1  0.34083269  0.76035805  0.33589248  1  -0.05983  0  -0.249356  -0.396445  0  3.909596  0
C  C178  1  0.17432173  0.33587868  0.57551879  1  -0.097413  0  -0.249094  -0.396341  0  3.909536  0
C  C179  1  0.00774557  0.57557046  0.23969619  1  -0.0705  0  -0.248714  -0.394927  0  3.908663  0
C  C180  1  0.83055564  0.89070106  0.60326126  1  1.57929  0  0.201342  0.678752  0  4.164125  0
C  C181  1  0.66397933  0.60330047  0.71259357  1  1.566054  0  0.200456  0.677827  0  4.165233  0
C  C182  1  0.49725603  0.71256155  0.10924368  1  1.578231  0  0.200936  0.678988  0  4.164359  0
C  C183  1  0.33055658  0.10929811  0.39673877  1  1.579293  0  0.201361  0.678766  0  4.164233  0
C  C184  1  0.16398043  0.39669931  0.28740577  1  1.56597  0  0.200478  0.677853  0  4.165239  0
C  C185  1  0.99725572  0.28743823  0.89075694  1  1.57844  0  0.200975  0.678992  0  4.164358  0
C  C186  1  0.89646177  0.87974932  0.67519893  1  -0.062503  0  -0.24938  -0.522877  0  3.919122  0
C  C187  1  0.72984319  0.67525386  0.79548983  1  -0.055116  0  -0.249798  -0.523741  0  3.920157  0
C  C188  1  0.56306028  0.79547296  0.12018340  1  -0.083661  0  -0.249605  -0.522728  0  3.919942  0
C  C189  1  0.39646079  0.12025020  0.32480077  1  -0.062509  0  -0.249444  -0.522869  0  3.919147  0
C  C190  1  0.22984425  0.32474561  0.20450985  1  -0.055133  0  -0.249762  -0.523745  0  3.920176  0
C  C191  1  0.06306032  0.20452647  0.87981626  1  -0.083712  0  -0.249649  -0.522846  0  3.920032  0
N  N192  1  0.76191787  0.32461415  0.48485712  1  -1.279003  0  -0.330615  -0.237867  0  3.559783  0
N  N193  1  0.59537823  0.48485827  0.16025041  1  -1.264169  0  -0.330757  -0.238221  0  3.560358  0
N  N194  1  0.42863462  0.16017428  0.67541013  1  -1.268469  0  -0.330789  -0.239479  0  3.560514  0
N  N195  1  0.26191721  0.67538591  0.51514314  1  -1.278576  0  -0.330641  -0.237842  0  3.559792  0
N  N196  1  0.09537940  0.51514174  0.83974983  1  -1.264145  0  -0.330835  -0.238331  0  3.560451  0
N  N197  1  0.92863461  0.83982615  0.32458982  1  -1.268509  0  -0.3308  -0.239505  0  3.560554  0
N  N198  1  0.86807101  0.05446844  0.48938265  1  -1.057894  0  -0.477194  -0.336113  0  3.495551  0
N  N199  1  0.70149587  0.48939191  0.43495846  1  -1.078959  0  -0.477744  -0.337352  0  3.4963  0
N  N200  1  0.53495136  0.43494955  0.94554371  1  -1.0655  0  -0.476591  -0.334972  0  3.493926  0
N  N201  1  0.36806954  0.94553107  0.51061705  1  -1.057911  0  -0.477167  -0.336111  0  3.495526  0
N  N202  1  0.20149608  0.51060937  0.56504170  1  -1.078989  0  -0.477742  -0.337284  0  3.496323  0
N  N203  1  0.03495063  0.56505012  0.05445685  1  -1.065531  0  -0.476565  -0.334923  0  3.493862  0
O  O204  1  0.19176805  0.10096879  0.57696421  1  -1.206162  0  -0.324706  -0.57482  0  2.408248  0
O  O205  1  0.02519004  0.57695476  0.47600643  1  -1.208656  0  -0.325087  -0.576013  0  2.408443  0
O  O206  1  0.85865377  0.47607693  0.89903925  1  -1.210056  0  -0.325219  -0.575949  0  2.408011  0
O  O207  1  0.69176808  0.89903149  0.42303694  1  -1.20614  0  -0.324713  -0.57483  0  2.408294  0
O  O208  1  0.52518884  0.42304632  0.52399157  1  -1.208604  0  -0.325069  -0.575964  0  2.408593  0
O  O209  1  0.35865494  0.52392315  0.10096102  1  -1.210064  0  -0.325224  -0.575964  0  2.408019  0
O  O210  1  0.09162316  0.97235515  0.48509466  1  -1.178343  0  -0.309153  -0.548625  0  2.271126  0
O  O211  1  0.92509639  0.48506395  0.51273416  1  -1.173302  0  -0.309524  -0.548675  0  2.270615  0
O  O212  1  0.75856536  0.51279611  0.02766154  1  -1.164146  0  -0.309067  -0.549048  0  2.269982  0
O  O213  1  0.59162269  0.02764576  0.51490582  1  -1.17837  0  -0.309175  -0.548663  0  2.271096  0
O  O214  1  0.42509468  0.51493780  0.48726447  1  -1.173207  0  -0.309443  -0.548554  0  2.270691  0
O  O215  1  0.25856460  0.48720451  0.97233929  1  -1.164189  0  -0.309088  -0.549075  0  2.26997  0
O  O216  1  0.90933841  0.87990072  0.54015500  1  -1.185497  0  -0.352117  -0.593409  0  2.318451  0
O  O217  1  0.74280343  0.54023849  0.66026653  1  -1.188413  0  -0.352081  -0.592904  0  2.319476  0
O  O218  1  0.57608591  0.66029466  0.12007055  1  -1.186533  0  -0.352531  -0.593932  0  2.318337  0
O  O219  1  0.40933744  0.12009880  0.45984471  1  -1.185485  0  -0.352065  -0.593332  0  2.318529  0
O  O220  1  0.24280553  0.45976198  0.33973216  1  -1.188372  0  -0.352102  -0.592934  0  2.319445  0
O  O221  1  0.07608506  0.33970444  0.87992944  1  -1.186732  0  -0.352534  -0.593912  0  2.318396  0
O  O222  1  0.71424572  0.90949957  0.60814067  1  -1.20127  0  -0.343312  -0.583513  0  2.078989  0
O  O223  1  0.54764826  0.60812683  0.69869178  1  -1.186556  0  -0.342758  -0.583152  0  2.07947  0
O  O224  1  0.38095476  0.69859675  0.09043676  1  -1.19814  0  -0.343216  -0.583502  0  2.078418  0
O  O225  1  0.21424473  0.09049752  0.39185796  1  -1.201288  0  -0.343345  -0.58356  0  2.078962  0
O  O226  1  0.04765032  0.39187317  0.30130845  1  -1.18651  0  -0.342771  -0.583154  0  2.079544  0
O  O227  1  0.88095349  0.30140292  0.90956508  1  -1.198156  0  -0.343257  -0.583517  0  2.078389  0
