# generated using pymatgen
data_Cd2H13C18N3O7
_symmetry_space_group_name_H-M   'P 1'
_cell_length_a   9.15554156
_cell_length_b   10.16083366
_cell_length_c   11.37373246
_cell_angle_alpha   106.85010928
_cell_angle_beta   99.05708495
_cell_angle_gamma   106.11364333
_symmetry_Int_Tables_number   1
_chemical_formula_structural   Cd2H13C18N3O7
_chemical_formula_sum   'Cd4 H26 C36 N6 O14'
_cell_volume   939.74445029
_cell_formula_units_Z   2
loop_
 _symmetry_equiv_pos_site_id
 _symmetry_equiv_pos_as_xyz
  1  'x, y, z'
loop_
 _atom_site_type_symbol
 _atom_site_label
 _atom_site_symmetry_multiplicity
 _atom_site_fract_x
 _atom_site_fract_y
 _atom_site_fract_z
 _atom_site_occupancy
 _atom_site_hle17_bader_spin_density
 _atom_site_hle17_ddec_charge
 _atom_site_hle17_ddec_spin_density
 _atom_site_hle17_ddec_sum_bond_order
 _atom_site_hle17_magmom
 _atom_site_hse06_10hf_bader_spin_density
 _atom_site_hse06_10hf_ddec_charge
 _atom_site_hse06_10hf_ddec_spin_density
 _atom_site_hse06_10hf_ddec_sum_bond_order
 _atom_site_hse06_10hf_magmom
 _atom_site_hse06_bader_spin_density
 _atom_site_hse06_ddec_charge
 _atom_site_hse06_ddec_spin_density
 _atom_site_hse06_ddec_sum_bond_order
 _atom_site_hse06_magmom
 _atom_site_pbe_bader_spin_density
 _atom_site_pbe_cm5_charge
 _atom_site_pbe_ddec_charge
 _atom_site_pbe_ddec_spin_density
 _atom_site_pbe_ddec_sum_bond_order
 _atom_site_pbe_magmom
Cd  Cd0  1  0.31488882  0.31711208  0.19846039  1  0  1.169072  0  1.734678  0  0  0.979579  0  2.193844  0  0  1.035572  0  2.138518  0  0  0.76685  0.93907  0  2.231939  0
Cd  Cd1  1  0.68510347  0.68288652  0.80154011  1  0  1.169104  0  1.734683  0  0  0.979616  0  2.193836  0  0  1.035608  0  2.138511  0  0  0.766878  0.939106  0  2.231928  0
Cd  Cd2  1  0.41637773  0.64453240  0.51554534  1  0  1.221727  0  1.663875  0  0  1.045118  0  2.115761  0  0  1.102551  0  2.057448  0  0  0.743043  1.002784  0  2.156671  0
Cd  Cd3  1  0.58361936  0.35546735  0.48445428  1  0  1.221693  0  1.66393  0  0  1.045085  0  2.115819  0  0  1.102519  0  2.057503  0  0  0.743027  1.002753  0  2.156733  0
H  H4  1  0.03883922  0.62049550  0.45610040  1  0  0.090824  0  0.951608  0  0  0.095663  0  1.022415  0  0  0.099179  0  1.01826  0  0  0.114428  0.092984  0  1.025628  0
H  H5  1  0.96115643  0.37949996  0.54390412  1  0  0.090837  0  0.95166  0  0  0.095677  0  1.022488  0  0  0.099192  0  1.018334  0  0  0.114422  0.092998  0  1.0257  0
H  H6  1  0.86369828  0.74145949  0.37203246  1  0  0.114225  0  0.955183  0  0  0.121996  0  1.015954  0  0  0.125467  0  1.015367  0  0  0.105213  0.119414  0  1.016584  0
H  H7  1  0.13630744  0.25854591  0.62797314  1  0  0.114206  0  0.955155  0  0  0.121977  0  1.01593  0  0  0.125447  0  1.015346  0  0  0.10519  0.119397  0  1.016562  0
H  H8  1  0.98328702  0.94459113  0.29266433  1  0  0.096022  0  0.963048  0  0  0.103817  0  1.029685  0  0  0.106423  0  1.028475  0  0  0.103519  0.101883  0  1.030563  0
H  H9  1  0.01671761  0.05541104  0.70734385  1  0  0.096061  0  0.963122  0  0  0.103892  0  1.029707  0  0  0.106499  0  1.028497  0  0  0.103576  0.101958  0  1.030581  0
H  H10  1  0.43062092  0.89625297  0.40270834  1  0  0.081254  0  0.970298  0  0  0.086111  0  1.044568  0  0  0.088798  0  1.04175  0  0  0.115196  0.084007  0  1.046938  0
H  H11  1  0.56937758  0.10373489  0.59729111  1  0  0.081245  0  0.97041  0  0  0.086089  0  1.044694  0  0  0.088776  0  1.041875  0  0  0.115244  0.083989  0  1.047055  0
H  H12  1  0.08536441  0.29239085  0.94312473  1  0  0.06927  0  0.960833  0  0  0.076281  0  1.029229  0  0  0.077969  0  1.028506  0  0  0.111789  0.075053  0  1.029671  0
H  H13  1  0.91463710  0.70761538  0.05686914  1  0  0.069292  0  0.960907  0  0  0.076283  0  1.029312  0  0  0.077963  0  1.028607  0  0  0.111808  0.075053  0  1.029754  0
H  H14  1  0.82994842  0.32441155  0.86383883  1  0  0.110391  0  0.957032  0  0  0.117885  0  1.018147  0  0  0.120308  0  1.019692  0  0  0.1057  0.116099  0  1.017386  0
H  H15  1  0.17004946  0.67559364  0.13616225  1  0  0.110466  0  0.957037  0  0  0.117926  0  1.018187  0  0  0.120361  0  1.019715  0  0  0.105728  0.11614  0  1.017426  0
H  H16  1  0.66381248  0.37131970  0.01461934  1  0  0.101948  0  0.981213  0  0  0.108732  0  1.050275  0  0  0.111823  0  1.047346  0  0  0.106129  0.106496  0  1.052249  0
H  H17  1  0.33619282  0.62868776  0.98538057  1  0  0.101978  0  0.981158  0  0  0.108742  0  1.050244  0  0  0.111832  0  1.047319  0  0  0.106155  0.106504  0  1.052216  0
H  H18  1  0.02259978  0.36912300  0.30708385  1  0  0.082062  0  0.937138  0  0  0.08917  0  1.006021  0  0  0.092596  0  1.002091  0  0  0.117238  0.086505  0  1.009158  0
H  H19  1  0.97739721  0.63087340  0.69290964  1  0  0.082067  0  0.937146  0  0  0.089188  0  1.006021  0  0  0.092584  0  1.002122  0  0  0.11723  0.086522  0  1.009157  0
H  H20  1  0.20549345  0.99019998  0.98410164  1  0  0.089226  0  0.935315  0  0  0.097231  0  0.998047  0  0  0.099778  0  0.996346  0  0  0.117922  0.095439  0  0.999053  0
H  H21  1  0.79450364  0.00980298  0.01589614  1  0  0.089248  0  0.935332  0  0  0.097249  0  0.998065  0  0  0.099786  0  0.996375  0  0  0.117924  0.095458  0  0.999071  0
H  H22  1  0.22922748  0.86975678  0.76308525  1  0  0.103699  0  0.976972  0  0  0.112426  0  1.038329  0  0  0.114824  0  1.039029  0  0  0.105941  0.110864  0  1.037746  0
H  H23  1  0.77076930  0.13024840  0.23691657  1  0  0.103776  0  0.976908  0  0  0.112463  0  1.038307  0  0  0.11486  0  1.039008  0  0  0.105947  0.110904  0  1.037717  0
H  H24  1  0.34894041  0.02760750  0.64732808  1  0  0.105073  0  0.9523  0  0  0.113838  0  1.017011  0  0  0.116629  0  1.014886  0  0  0.109583  0.111812  0  1.018556  0
H  H25  1  0.65105629  0.97239114  0.35267033  1  0  0.105088  0  0.952252  0  0  0.113875  0  1.016938  0  0  0.116665  0  1.014813  0  0  0.109568  0.111849  0  1.018483  0
H  H26  1  0.41638688  0.40261841  0.97619123  1  0  0.084635  0  0.963171  0  0  0.090262  0  1.035929  0  0  0.093472  0  1.031925  0  0  0.116774  0.087915  0  1.038751  0
H  H27  1  0.58361690  0.59738469  0.02380829  1  0  0.084602  0  0.963164  0  0  0.090225  0  1.035924  0  0  0.093434  0  1.031919  0  0  0.116764  0.087878  0  1.038745  0
H  H28  1  0.27488613  0.34411223  0.44018335  1  0  0.401313  0  0.874667  0  0  0.382637  0  0.929357  0  0  0.391504  0  0.917379  0  0  0.286728  0.376212  0  0.935102  0
H  H29  1  0.72511243  0.65588537  0.55981591  1  0  0.401336  0  0.874613  0  0  0.382654  0  0.929312  0  0  0.391523  0  0.917349  0  0  0.28673  0.376229  0  0.935055  0
C  C30  1  0.08580622  0.71003406  0.42290667  1  0  0.127735  0  3.692603  0  0  0.094976  0  3.946358  0  0  0.102956  0  3.964241  0  0  0.044947  0.090218  0  3.933996  0
C  C31  1  0.91418632  0.28995580  0.57708904  1  0  0.12759  0  3.692675  0  0  0.094801  0  3.946455  0  0  0.102782  0  3.96434  0  0  0.04487  0.090046  0  3.934094  0
C  C32  1  0.98876901  0.77741225  0.37544971  1  0  -0.132733  0  3.725101  0  0  -0.139943  0  3.973236  0  0  -0.148673  0  3.99546  0  0  -0.087904  -0.134304  0  3.957924  0
C  C33  1  0.01122947  0.22257880  0.62454613  1  0  -0.132691  0  3.724853  0  0  -0.139874  0  3.973005  0  0  -0.148606  0  3.99523  0  0  -0.087838  -0.134242  0  3.9577  0
C  C34  1  0.05436988  0.89013622  0.33257865  1  0  -0.011321  0  3.698513  0  0  -0.038852  0  3.941355  0  0  -0.033448  0  3.9591  0  0  -0.063177  -0.041744  0  3.928892  0
C  C35  1  0.94563091  0.10985820  0.66742272  1  0  -0.011369  0  3.698533  0  0  -0.038944  0  3.941403  0  0  -0.03354  0  3.959146  0  0  -0.063236  -0.041835  0  3.928941  0
C  C36  1  0.21588099  0.93492476  0.34143420  1  0  -0.111315  0  3.729607  0  0  -0.082642  0  3.961305  0  0  -0.094736  0  3.983238  0  0  -0.012248  -0.074985  0  3.946889  0
C  C37  1  0.78411989  0.06507622  0.65857147  1  0  -0.11125  0  3.729645  0  0  -0.082575  0  3.961318  0  0  -0.094669  0  3.983251  0  0  -0.012243  -0.074915  0  3.9469  0
C  C38  1  0.30435587  0.86327470  0.39264754  1  0  0.119091  0  3.688449  0  0  0.07847  0  3.940733  0  0  0.087045  0  3.957724  0  0  0.049848  0.072457  0  3.929935  0
C  C39  1  0.69564126  0.13672187  0.60735656  1  0  0.119185  0  3.68839  0  0  0.078582  0  3.940671  0  0  0.087158  0  3.957659  0  0  0.049871  0.07257  0  3.929875  0
C  C40  1  0.29458749  0.05718237  0.29804561  1  0  0.662532  0  3.934981  0  0  0.611787  0  4.225382  0  0  0.647926  0  4.217329  0  0  0.201835  0.587176  0  4.2302  0
C  C41  1  0.70541670  0.94281863  0.70195783  1  0  0.662386  0  3.935142  0  0  0.611663  0  4.225504  0  0  0.647803  0  4.217451  0  0  0.201813  0.587051  0  4.23032  0
C  C42  1  0.01069374  0.31649288  0.00614461  1  0  0.137587  0  3.70606  0  0  0.104091  0  3.960657  0  0  0.112471  0  3.978037  0  0  0.048803  0.098768  0  3.94891  0
C  C43  1  0.98930143  0.68350460  0.99385069  1  0  0.137498  0  3.70631  0  0  0.104013  0  3.960905  0  0  0.112394  0  3.978288  0  0  0.048696  0.098689  0  3.949157  0
C  C44  1  0.86830073  0.33222129  0.96186972  1  0  -0.115149  0  3.73405  0  0  -0.124048  0  3.984187  0  0  -0.132148  0  4.006037  0  0  -0.08224  -0.11914  0  3.969951  0
C  C45  1  0.13169898  0.66778283  0.03812956  1  0  -0.11528  0  3.734252  0  0  -0.124141  0  3.984367  0  0  -0.132247  0  4.006208  0  0  -0.082242  -0.119232  0  3.970129  0
C  C46  1  0.77623370  0.35932068  0.04584310  1  0  -0.004948  0  3.680422  0  0  -0.03397  0  3.922705  0  0  -0.028369  0  3.939531  0  0  -0.06193  -0.037352  0  3.911121  0
C  C47  1  0.22376752  0.64068458  0.95415840  1  0  -0.004962  0  3.68036  0  0  -0.033935  0  3.922666  0  0  -0.028336  0  3.939497  0  0  -0.061984  -0.037313  0  3.91108  0
C  C48  1  0.82877652  0.37089446  0.17186139  1  0  -0.118016  0  3.741197  0  0  -0.090152  0  3.974324  0  0  -0.103339  0  3.998641  0  0  -0.014354  -0.081751  0  3.957902  0
C  C49  1  0.17122653  0.62911294  0.82813647  1  0  -0.117969  0  3.741118  0  0  -0.090214  0  3.974374  0  0  -0.103401  0  3.998684  0  0  -0.014355  -0.081814  0  3.957953  0
C  C50  1  0.97567497  0.35833092  0.20912072  1  0  0.11702  0  3.69806  0  0  0.07633  0  3.951994  0  0  0.084582  0  3.969777  0  0  0.051513  0.071142  0  3.939924  0
C  C51  1  0.02432540  0.64166882  0.79087490  1  0  0.116989  0  3.697931  0  0  0.076315  0  3.951893  0  0  0.084594  0  3.969682  0  0  0.051553  0.071127  0  3.939825  0
C  C52  1  0.72340834  0.38678686  0.26076628  1  0  0.655968  0  3.955107  0  0  0.604279  0  4.249716  0  0  0.640304  0  4.242035  0  0  0.203135  0.579876  0  4.253988  0
C  C53  1  0.27659613  0.61321512  0.73922953  1  0  0.65602  0  3.954998  0  0  0.604378  0  4.249588  0  0  0.640401  0  4.241908  0  0  0.203164  0.579975  0  4.253859  0
C  C54  1  0.25731007  0.05376184  0.92910131  1  0  0.132813  0  3.683594  0  0  0.100528  0  3.933145  0  0  0.109114  0  3.949379  0  0  0.051834  0.095077  0  3.921816  0
C  C55  1  0.74269299  0.94624235  0.07089927  1  0  0.132738  0  3.683653  0  0  0.100459  0  3.933191  0  0  0.109054  0  3.949425  0  0  0.051859  0.095006  0  3.921862  0
C  C56  1  0.27070277  0.98820544  0.80729941  1  0  -0.109841  0  3.718554  0  0  -0.118789  0  3.966157  0  0  -0.125968  0  3.986261  0  0  -0.080475  -0.114466  0  3.952649  0
C  C57  1  0.72930404  0.01179994  0.19270368  1  0  -0.109907  0  3.718552  0  0  -0.11882  0  3.96615  0  0  -0.125998  0  3.986251  0  0  -0.080487  -0.114496  0  3.952644  0
C  C58  1  0.33825175  0.07642131  0.74285485  1  0  -0.000409  0  3.669921  0  0  -0.030033  0  3.913758  0  0  -0.024388  0  3.930324  0  0  -0.057957  -0.033473  0  3.902722  0
C  C59  1  0.66175090  0.92357853  0.25714459  1  0  -0.000353  0  3.669881  0  0  -0.02999  0  3.913683  0  0  -0.024344  0  3.930246  0  0  -0.057905  -0.033432  0  3.902646  0
C  C60  1  0.39557122  0.22855890  0.80313783  1  0  -0.109433  0  3.724594  0  0  -0.079299  0  3.955887  0  0  -0.091292  0  3.978709  0  0  -0.009927  -0.071906  0  3.940886  0
C  C61  1  0.60443106  0.77143985  0.19686217  1  0  -0.109498  0  3.724547  0  0  -0.079372  0  3.955852  0  0  -0.091362  0  3.978667  0  0  -0.009922  -0.071979  0  3.940852  0
C  C62  1  0.37666340  0.28503540  0.92496931  1  0  0.109568  0  3.694124  0  0  0.069957  0  3.944283  0  0  0.078218  0  3.961071  0  0  0.049017  0.064752  0  3.932646  0
C  C63  1  0.62334076  0.71496880  0.07503053  1  0  0.109546  0  3.694126  0  0  0.069943  0  3.944275  0  0  0.078205  0  3.961061  0  0  0.048948  0.064737  0  3.932637  0
C  C64  1  0.48154609  0.32864112  0.74158185  1  0  0.666181  0  3.932708  0  0  0.611168  0  4.234163  0  0  0.64693  0  4.226312  0  0  0.205055  0.586935  0  4.238523  0
C  C65  1  0.51845105  0.67135868  0.25842131  1  0  0.666248  0  3.932472  0  0  0.611252  0  4.233925  0  0  0.647014  0  4.226073  0  0  0.205055  0.587019  0  4.238286  0
N  N66  1  0.24128049  0.75167547  0.43058801  1  0  -0.337975  0  3.2269  0  0  -0.262965  0  3.4961  0  0  -0.282822  0  3.513442  0  0  -0.323012  -0.249252  0  3.484593  0
N  N67  1  0.75871441  0.24832106  0.56941580  1  0  -0.337976  0  3.226799  0  0  -0.262974  0  3.496011  0  0  -0.282829  0  3.513349  0  0  -0.323052  -0.249261  0  3.484507  0
N  N68  1  0.06429028  0.33065718  0.12784531  1  0  -0.337207  0  3.255917  0  0  -0.260875  0  3.5259  0  0  -0.280478  0  3.542736  0  0  -0.327878  -0.247738  0  3.514157  0
N  N69  1  0.93570718  0.66934363  0.87215286  1  0  -0.337123  0  3.255793  0  0  -0.26079  0  3.525783  0  0  -0.280392  0  3.542608  0  0  -0.32786  -0.247653  0  3.514038  0
N  N70  1  0.30819572  0.20018569  0.98612387  1  0  -0.335857  0  3.275548  0  0  -0.257196  0  3.542226  0  0  -0.277029  0  3.559201  0  0  -0.329063  -0.243462  0  3.530076  0
N  N71  1  0.69180956  0.79981853  0.01387611  1  0  -0.335771  0  3.275521  0  0  -0.257106  0  3.542183  0  0  -0.276938  0  3.559152  0  0  -0.329054  -0.243371  0  3.530032  0
O  O72  1  0.44318872  0.11618591  0.33959995  1  0  -0.668789  0  2.013946  0  0  -0.608636  0  2.269347  0  0  -0.637575  0  2.258075  0  0  -0.33745  -0.587775  0  2.276242  0
O  O73  1  0.55681694  0.88381295  0.66040313  1  0  -0.66876  0  2.013917  0  0  -0.608623  0  2.269316  0  0  -0.637561  0  2.258041  0  0  -0.337464  -0.587769  0  2.276222  0
O  O74  1  0.20456245  0.09057530  0.22318581  1  0  -0.64967  0  1.97107  0  0  -0.58961  0  2.216089  0  0  -0.617776  0  2.204412  0  0  -0.333797  -0.56955  0  2.223518  0
O  O75  1  0.79544388  0.90942242  0.77681267  1  0  -0.649601  0  1.971212  0  0  -0.589548  0  2.216209  0  0  -0.617715  0  2.204533  0  0  -0.333781  -0.569488  0  2.223635  0
O  O76  1  0.77917572  0.40134146  0.37578088  1  0  -0.660961  0  1.999789  0  0  -0.598974  0  2.254538  0  0  -0.628553  0  2.242739  0  0  -0.329351  -0.578176  0  2.26208  0
O  O77  1  0.22082125  0.59864846  0.62421362  1  0  -0.660955  0  1.999765  0  0  -0.59897  0  2.254494  0  0  -0.62855  0  2.242702  0  0  -0.32933  -0.578156  0  2.261998  0
O  O78  1  0.58687306  0.38049440  0.21235570  1  0  -0.649649  0  2.071285  0  0  -0.585728  0  2.328591  0  0  -0.614708  0  2.317724  0  0  -0.32646  -0.565551  0  2.335195  0
O  O79  1  0.41313381  0.61952073  0.78764809  1  0  -0.649718  0  2.071275  0  0  -0.585804  0  2.328575  0  0  -0.614779  0  2.317697  0  0  -0.3265  -0.565631  0  2.335178  0
O  O80  1  0.43096052  0.28862781  0.62151913  1  0  -0.657739  0  1.987891  0  0  -0.598234  0  2.243611  0  0  -0.626838  0  2.232192  0  0  -0.332911  -0.57781  0  2.250581  0
O  O81  1  0.56903475  0.71136978  0.37848324  1  0  -0.657798  0  1.98793  0  0  -0.598293  0  2.243639  0  0  -0.626897  0  2.23222  0  0  -0.332897  -0.577866  0  2.250604  0
O  O82  1  0.59823862  0.43917100  0.81476222  1  0  -0.648299  0  1.988013  0  0  -0.587994  0  2.243794  0  0  -0.616647  0  2.234081  0  0  -0.326446  -0.567555  0  2.249641  0
O  O83  1  0.40175807  0.56082762  0.18523531  1  0  -0.648288  0  1.987888  0  0  -0.587986  0  2.243633  0  0  -0.616641  0  2.233922  0  0  -0.326428  -0.567547  0  2.249481  0
O  O84  1  0.35129742  0.40322204  0.40880888  1  0  -0.989914  0  1.878263  0  0  -0.88438  0  2.146752  0  0  -0.921641  0  2.113215  0  0  -0.595453  -0.856945  0  2.166711  0
O  O85  1  0.64870263  0.59677344  0.59119179  1  0  -0.989942  0  1.878188  0  0  -0.884399  0  2.146665  0  0  -0.921661  0  2.113142  0  0  -0.595449  -0.856963  0  2.166623  0
