# generated using pymatgen
data_Zn6H36C70N5Cl5O24
_symmetry_space_group_name_H-M   'P 1'
_cell_length_a   18.49589110
_cell_length_b   18.61236739
_cell_length_c   18.71003916
_cell_angle_alpha   109.46216517
_cell_angle_beta   109.77692302
_cell_angle_gamma   108.85987849
_symmetry_Int_Tables_number   1
_chemical_formula_structural   Zn6H36C70N5Cl5O24
_chemical_formula_sum   'Zn6 H36 C70 N5 Cl5 O24'
_cell_volume   4977.18102927
_cell_formula_units_Z   1
loop_
 _symmetry_equiv_pos_site_id
 _symmetry_equiv_pos_as_xyz
  1  'x, y, z'
loop_
 _atom_site_type_symbol
 _atom_site_label
 _atom_site_symmetry_multiplicity
 _atom_site_fract_x
 _atom_site_fract_y
 _atom_site_fract_z
 _atom_site_occupancy
 _atom_site_pbe_bader_charge
 _atom_site_pbe_bader_spin_density
 _atom_site_pbe_cm5_charge
 _atom_site_pbe_ddec_charge
 _atom_site_pbe_ddec_spin_density
 _atom_site_pbe_ddec_sum_bond_order
 _atom_site_pbe_magmom
Zn  Zn0  1  0.50223999  0.42831467  0.43123771  1  1.30935  0  0.725139  0.951764  0  2.131493  0
Zn  Zn1  1  0.50286420  0.55706163  0.55484849  1  1.310543  0  0.726095  0.965843  0  2.125098  0
Zn  Zn2  1  0.93958418  0.43901349  0.00788493  1  1.311867  0  0.731299  0.971481  0  2.124556  0
Zn  Zn3  1  0.06998945  0.56022767  0.00932279  1  1.29995  0  0.711602  0.943001  0  2.145041  0
Zn  Zn4  1  0.93406441  0.01444163  0.44707238  1  1.304891  0  0.723973  0.945403  0  2.134679  0
Zn  Zn5  1  0.06907995  0.00871501  0.55495475  1  1.303974  0  0.71921  0.943873  0  2.172014  0
H  H6  1  0.23544923  0.59220442  0.30991390  1  0.061558  0  0.104622  0.094522  0  0.979134  0
H  H7  1  0.93845807  0.79609492  0.49151246  1  0.112997  0  0.099652  0.124035  0  1.043054  0
H  H8  1  0.71005856  0.87283337  0.46898989  1  0.118006  0  0.113142  0.133072  0  0.982936  0
H  H9  1  0.51009100  0.36791779  0.60723615  1  0.082562  0  0.103713  0.116154  0  1.01327  0
H  H10  1  0.44769378  0.31335897  0.68822306  1  0.084791  0  0.107893  0.122834  0  0.988101  0
H  H11  1  0.89697477  0.53343372  0.78859021  1  0.106661  0  0.111237  0.12967  0  0.988693  0
H  H12  1  0.33529296  0.40367630  0.63462803  1  0.100566  0  0.110288  0.116229  0  0.982746  0
H  H13  1  0.36903752  0.57354669  0.27523331  1  0.094596  0  0.103756  0.09508  0  0.986271  0
H  H14  1  0.29066515  0.30601956  0.34136698  1  0.079802  0  0.096041  0.104934  0  1.060018  0
H  H15  1  0.17221303  0.18360077  0.19659665  1  0.038446  0  0.101129  0.096134  0  0.996229  0
H  H16  1  0.04063532  0.06932328  0.18008470  1  0.084315  0  0.105241  0.102812  0  0.985917  0
H  H17  1  0.02902188  0.08035211  0.31051978  1  0.096829  0  0.103464  0.114462  0  1.011765  0
H  H18  1  0.21160757  0.28144666  0.61920829  1  0.06678  0  0.107878  0.112749  0  0.988596  0
H  H19  1  0.14425424  0.74218605  0.28642249  1  0.05385  0  0.105802  0.111988  0  0.990358  0
H  H20  1  0.74786373  0.65225422  0.98989192  1  0.074747  0  0.104418  0.133982  0  0.987154  0
H  H21  1  0.23402883  0.44122994  0.09983524  1  0.089109  0  0.10686  0.102385  0  0.978184  0
H  H22  1  0.13707492  0.84709976  0.40585831  1  0.112845  0  0.107325  0.114327  0  0.995532  0
H  H23  1  0.07981197  0.40114398  0.78066036  1  0.082685  0  0.108338  0.113707  0  0.985414  0
H  H24  1  0.04341565  0.31627303  0.98637262  1  0.075733  0  0.094142  0.107505  0  1.054666  0
H  H25  1  0.01865532  0.18575724  0.00147341  1  0.048173  0  0.092348  0.088104  0  1.026067  0
H  H26  1  0.99848070  0.05335299  0.88638640  1  0.026534  0  0.098451  0.103604  0  1.001684  0
H  H27  1  0.06496268  0.27150215  0.66585642  1  0.054504  0  0.104778  0.108576  0  0.995967  0
H  H28  1  0.22031452  0.31274456  0.15144143  1  0.090928  0  0.106203  0.110012  0  0.980919  0
H  H29  1  0.22349448  0.46471267  0.36430762  1  0.091313  0  0.107461  0.112649  0  0.971468  0
H  H30  1  0.71739104  0.56781061  0.50114605  1  0.073086  0  0.099034  0.103237  0  1.049656  0
H  H31  1  0.84936500  0.56133275  0.50831087  1  0.059968  0  0.10287  0.109072  0  0.994054  0
H  H32  1  0.01281664  0.71189148  0.48600482  1  0.438011  0  0.312318  0.309697  0  0.935079  0
H  H33  1  0.97595176  0.61700192  0.48871954  1  0.436652  0  0.31072  0.302291  0  0.941312  0
H  H34  1  0.77148226  0.55694029  0.60989068  1  0.450119  0  0.295811  0.2865  0  0.995647  0
H  H35  1  0.87257769  0.59034413  0.68978504  1  0.430021  0  0.31218  0.303567  0  0.936021  0
H  H36  1  0.96384516  0.68267370  0.02234217  1  0.449473  0  0.299694  0.301856  0  0.978985  0
H  H37  1  0.85382463  0.62406397  0.94805628  1  0.450284  0  0.293929  0.293038  0  0.978831  0
H  H38  1  0.75355380  0.75243666  0.25069924  1  0.431736  0  0.277258  0.273919  0  0.999094  0
H  H39  1  0.85788951  0.82932281  0.32812570  1  0.466714  0  0.277772  0.274431  0  1.052466  0
H  H40  1  0.03373188  0.03386497  0.71093715  1  0.458092  0  0.288822  0.292674  0  1.024264  0
H  H41  1  0.98824629  0.98315896  0.75729626  1  0.428072  0  0.305223  0.297323  0  0.940172  0
C  C42  1  0.61136660  0.62790191  0.50294176  1  1.544752  0  0.222555  0.622472  0  4.128199  0
C  C43  1  0.15260658  0.38622146  0.20926992  1  0.141809  0  0.023711  0.138173  0  3.695189  0
C  C44  1  0.22543665  0.46007906  0.30525668  1  -0.033297  0  -0.074013  -0.106561  0  3.630652  0
C  C45  1  0.29728432  0.44831021  0.28384341  1  0.003842  0  -0.006736  -0.021963  0  3.655719  0
C  C46  1  0.76737252  0.62037326  0.50308532  1  -0.022472  0  -0.099853  -0.129347  0  4.024956  0
C  C47  1  0.84062836  0.61575532  0.50517094  1  -0.110185  0  -0.100475  -0.187814  0  3.992322  0
C  C48  1  0.90404778  0.67986892  0.50115786  1  0.406884  0  0.092798  0.309034  0  4.139548  0
C  C49  1  0.89048975  0.74742256  0.49537891  1  0.035145  0  -0.11444  -0.267495  0  3.933848  0
C  C50  1  0.81633120  0.75438025  0.49409478  1  -0.031688  0  0.000614  0.080969  0  3.972282  0
C  C51  1  0.75188677  0.68903167  0.49768043  1  0.043342  0  -0.006854  0.053524  0  3.954687  0
C  C52  1  0.67580473  0.69443311  0.49564839  1  0.051243  0  -0.012483  -0.12158  0  3.902044  0
C  C53  1  0.37515966  0.45450718  0.34898846  1  1.538692  0  0.218305  0.598506  0  4.150967  0
C  C54  1  0.66193553  0.76018328  0.48494020  1  0.014757  0  0.012052  0.122939  0  4.053359  0
C  C55  1  0.72277222  0.82248336  0.47814409  1  0.063037  0  -0.084269  -0.15441  0  3.974363  0
C  C56  1  0.79931370  0.82175928  0.48486072  1  -0.022446  0  -0.009916  -0.056962  0  3.922493  0
C  C57  1  0.55398773  0.38113683  0.67178107  1  -0.052278  0  -0.093778  -0.121004  0  3.976938  0
C  C58  1  0.51876509  0.35105871  0.71650610  1  0.026703  0  -0.095939  -0.132333  0  4.031681  0
C  C59  1  0.57494274  0.37322883  0.80252845  1  0.035456  0  0.000948  0.081893  0  4.06925  0
C  C60  1  0.66637778  0.42023910  0.84078573  1  0.136407  0  0.00859  0.037843  0  3.991358  0
C  C61  1  0.70508635  0.44057348  0.79040722  1  0.011048  0  -0.009838  -0.005261  0  3.927312  0
C  C62  1  0.64678169  0.42820957  0.70778850  1  0.08343  0  -0.000331  0.080589  0  3.985777  0
C  C63  1  0.68114184  0.46448987  0.66281439  1  0.036904  0  -0.020416  -0.179758  0  3.883529  0
C  C64  1  0.37814477  0.40723380  0.51418569  1  1.521848  0  0.220685  0.604268  0  4.136994  0
C  C65  1  0.77143970  0.50685207  0.69334930  1  0.400594  0  0.096903  0.281289  0  4.122828  0
C  C66  1  0.82700335  0.50775656  0.76774157  1  -0.038853  0  -0.083488  -0.18029  0  3.918276  0
C  C67  1  0.79710882  0.47633629  0.81555132  1  -0.030467  0  -0.019358  -0.071709  0  3.95693  0
C  C68  1  0.23348079  0.25816545  0.33574880  1  -0.014514  0  -0.097614  -0.133732  0  3.966662  0
C  C69  1  0.16716514  0.18853298  0.25426619  1  -0.030706  0  -0.091338  -0.076431  0  4.048582  0
C  C70  1  0.09293104  0.12393922  0.24491387  1  -0.035061  0  -0.090355  -0.081739  0  4.048153  0
C  C71  1  0.08642953  0.12989257  0.31764530  1  -0.0709  0  -0.090184  -0.129336  0  3.973297  0
C  C72  1  0.15341041  0.20109206  0.40269284  1  0.021526  0  0.001787  0.05784  0  3.952228  0
C  C73  1  0.22907980  0.26737518  0.41244936  1  -0.008357  0  0.002862  0.065706  0  3.932204  0
C  C74  1  0.29501153  0.34001211  0.49843229  1  0.003756  0  -0.011301  -0.072477  0  3.929824  0
C  C75  1  0.61906946  0.46856453  0.58979972  1  1.55031  0  0.223762  0.62806  0  4.140565  0
C  C76  1  0.28530430  0.34687094  0.57031287  1  -0.03903  0  -0.082877  -0.094151  0  4.000451  0
C  C77  1  0.21485577  0.27892063  0.56137153  1  -0.03734  0  -0.086957  -0.106795  0  4.009754  0
C  C78  1  0.15050258  0.20716329  0.47961513  1  -0.013845  0  -0.005014  -0.056803  0  3.929553  0
C  C79  1  0.02370353  0.64278688  0.11813608  1  1.548794  0  0.22314  0.603196  0  4.153491  0
C  C80  1  0.09203082  0.46958129  0.12377919  1  1.514165  0  0.218138  0.60669  0  4.154285  0
C  C81  1  0.04948097  0.41048365  0.90978471  1  1.539803  0  0.219274  0.608934  0  4.126978  0
C  C82  1  0.86605920  0.47459062  0.88502095  1  1.552034  0  0.215503  0.594967  0  4.150328  0
C  C83  1  0.03766806  0.12422768  0.65188871  1  1.551175  0  0.227623  0.613461  0  4.110249  0
C  C84  1  0.86371010  0.89390320  0.48398733  1  1.521219  0  0.224701  0.611579  0  4.105914  0
C  C85  1  0.01472186  0.88726821  0.39707142  1  1.472843  0  0.21385  0.594793  0  4.114705  0
C  C86  1  0.30582337  0.52035959  0.25518306  1  -0.028418  0  -0.065679  -0.052831  0  3.601101  0
C  C87  1  0.08384059  0.13302738  0.47671367  1  1.538991  0  0.228571  0.617594  0  4.11701  0
C  C88  1  0.88229868  0.69113606  0.07543270  1  0.460984  0  0.088422  0.259521  0  4.113752  0
C  C89  1  0.79895773  0.68011703  0.05704237  1  0.021228  0  -0.121779  -0.279331  0  4.050326  0
C  C90  1  0.77987526  0.70432143  0.12454172  1  0.014506  0  0.001603  0.067364  0  4.056842  0
C  C91  1  0.84330358  0.74920282  0.21371811  1  0.467419  0  0.071891  0.160748  0  4.066305  0
C  C92  1  0.93126812  0.76608083  0.23471294  1  0.058435  0  -0.003194  -0.002532  0  3.882979  0
C  C93  1  0.94609754  0.72460627  0.16467775  1  0.04522  0  -0.006319  -0.035889  0  3.910531  0
C  C94  1  0.02136530  0.71272185  0.18567265  1  -0.065583  0  -0.002197  -0.023162  0  3.913221  0
C  C95  1  0.08782139  0.75317739  0.27171629  1  -0.005323  0  -0.100268  -0.134521  0  4.025723  0
C  C96  1  0.08175881  0.80837956  0.33901529  1  -0.040233  0  -0.083322  -0.085153  0  4.00947  0
C  C97  1  0.23390010  0.53062604  0.27639799  1  -0.010976  0  -0.067907  -0.047048  0  3.626303  0
C  C98  1  0.00622743  0.81621465  0.32274036  1  -0.034791  0  -0.021602  -0.082172  0  3.924411  0
C  C99  1  0.03889115  0.26057772  0.93768838  1  -0.001216  0  -0.118324  -0.179609  0  4.021486  0
C  C100  1  0.02348329  0.18656544  0.94518966  1  -0.07256  0  -0.097337  -0.054325  0  4.100202  0
C  C101  1  0.01259114  0.11221144  0.88059137  1  -0.026862  0  -0.115661  -0.224093  0  4.026301  0
C  C102  1  0.01842073  0.11035186  0.80764370  1  0.417078  0  0.097116  0.262708  0  4.067921  0
C  C103  1  0.03841137  0.18817961  0.79951460  1  0.038248  0  -0.004148  -0.043348  0  3.860983  0
C  C104  1  0.04531178  0.26302084  0.86503672  1  0.004781  0  0.001556  0.079722  0  3.954502  0
C  C105  1  0.05841624  0.33857500  0.85470451  1  -0.014983  0  -0.009753  -0.070012  0  3.928774  0
C  C106  1  0.06930706  0.34267409  0.78635321  1  -0.040126  0  -0.085242  -0.09424  0  4.020398  0
C  C107  1  0.06127982  0.27002564  0.72230073  1  0.031379  0  -0.090287  -0.111056  0  4.011783  0
C  C108  1  0.15960903  0.45669140  0.17968315  1  0.022878  0  -0.008321  -0.070952  0  3.644793  0
C  C109  1  0.04584804  0.19434803  0.72784487  1  -0.061577  0  -0.006323  -0.040339  0  3.911236  0
C  C110  1  0.23300444  0.44656110  0.15942323  1  -0.021498  0  -0.067948  -0.051599  0  3.622559  0
C  C111  1  0.22472186  0.37523567  0.18756705  1  -0.029825  0  -0.075278  -0.112195  0  3.62399  0
N  N112  1  0.97877307  0.67594805  0.50570457  1  -1.223217  0  -0.59279  -0.622432  0  3.297661  0
N  N113  1  0.80806750  0.54377507  0.65258630  1  -1.220634  0  -0.593313  -0.611497  0  3.323581  0
N  N114  1  0.90256617  0.67233692  0.00941896  1  -1.244617  0  -0.600477  -0.615884  0  3.353606  0
N  N115  1  0.81788178  0.76720967  0.27678923  1  -1.221026  0  -0.622803  -0.617432  0  3.33901  0
N  N116  1  0.99863903  0.03197436  0.74255807  1  -1.222712  0  -0.605459  -0.620237  0  3.333311  0
Cl  Cl117  1  0.52659366  0.34458978  0.86010981  1  -0.192903  0  -0.025451  -0.090617  0  1.481191  0
Cl  Cl118  1  0.72824940  0.46304134  0.95186615  1  -0.175478  0  0.014528  -0.030454  0  1.711783  0
Cl  Cl119  1  0.67135441  0.67932986  0.09482627  1  -0.229564  0  -0.022084  -0.093726  0  1.455645  0
Cl  Cl120  1  0.05516160  0.29986475  0.18202075  1  -0.223612  0  -0.037628  -0.122333  0  1.418141  0
Cl  Cl121  1  0.56783834  0.76649947  0.47484635  1  -0.206825  0  -0.022367  -0.089007  0  1.450188  0
O  O122  1  0.58326583  0.54798959  0.45164308  1  -1.170588  0  -0.308298  -0.565074  0  2.35207  0
O  O123  1  0.08054641  0.66584972  0.09366800  1  -1.130739  0  -0.319124  -0.533795  0  2.226096  0
O  O124  1  0.01000585  0.42030730  0.09599179  1  -1.115596  0  -0.313736  -0.525026  0  2.260402  0
O  O125  1  0.12161906  0.52962718  0.10657401  1  -1.167859  0  -0.31671  -0.568836  0  2.300462  0
O  O126  1  0.98918334  0.38930623  0.92889698  1  -1.180178  0  -0.307854  -0.568653  0  2.3694  0
O  O127  1  0.10030017  0.49036275  0.93256884  1  -1.132353  0  -0.324919  -0.541453  0  2.202126  0
O  O128  1  0.84116050  0.41534740  0.90556343  1  -1.123615  0  -0.312338  -0.519963  0  2.342871  0
O  O129  1  0.94635079  0.53055646  0.91727922  1  -1.184836  0  -0.320393  -0.584717  0  2.349911  0
O  O130  1  0.98046422  0.10249900  0.57661283  1  -1.171889  0  -0.305745  -0.557307  0  2.322398  0
O  O131  1  0.09216917  0.09417550  0.66665217  1  -1.143612  0  -0.317277  -0.53679  0  2.264615  0
O  O132  1  0.83305185  0.92313805  0.43365249  1  -1.128784  0  -0.317194  -0.528696  0  2.22291  0
O  O133  1  0.59005872  0.65564551  0.56099194  1  -1.115907  0  -0.311772  -0.523803  0  2.269458  0
O  O134  1  0.94538595  0.92363911  0.53239458  1  -1.185857  0  -0.305359  -0.569961  0  2.378056  0
O  O135  1  0.96969470  0.92543475  0.38152548  1  -1.175992  0  -0.315341  -0.582177  0  2.358853  0
O  O136  1  0.07186885  0.91203876  0.47621674  1  -1.140782  0  -0.328413  -0.546549  0  2.243992  0
O  O137  1  0.00099719  0.10423578  0.42861197  1  -1.13093  0  -0.309657  -0.520104  0  2.243213  0
O  O138  1  0.11578715  0.10398350  0.52449805  1  -1.162244  0  -0.308079  -0.559177  0  2.319418  0
O  O139  1  0.40330882  0.40083557  0.32470490  1  -1.130529  0  -0.317345  -0.523514  0  2.215658  0
O  O140  1  0.40953709  0.51484071  0.42706334  1  -1.185701  0  -0.314717  -0.57413  0  2.332544  0
O  O141  1  0.41605695  0.38067789  0.47446590  1  -1.177852  0  -0.311449  -0.581024  0  2.36066  0
O  O142  1  0.40841730  0.48829936  0.56837508  1  -1.129598  0  -0.317301  -0.530153  0  2.216079  0
O  O143  1  0.59444858  0.41713781  0.50998083  1  -1.127845  0  -0.313115  -0.52277  0  2.201757  0
O  O144  1  0.59592461  0.52530566  0.61372738  1  -1.157631  0  -0.306352  -0.563346  0  2.307154  0
O  O145  1  0.97049120  0.56483305  0.09295606  1  -1.156888  0  -0.305038  -0.559887  0  2.319817  0
