# generated using pymatgen
data_ZnSiC8S4(N2F5)2
_symmetry_space_group_name_H-M   'P 1'
_cell_length_a   7.77882866
_cell_length_b   8.93619962
_cell_length_c   8.93629762
_cell_angle_alpha   96.84435148
_cell_angle_beta   94.99288616
_cell_angle_gamma   94.99228601
_symmetry_Int_Tables_number   1
_chemical_formula_structural   ZnSiC8S4(N2F5)2
_chemical_formula_sum   'Zn1 Si1 C8 S4 N4 F10'
_cell_volume   611.43730865
_cell_formula_units_Z   1
loop_
 _symmetry_equiv_pos_site_id
 _symmetry_equiv_pos_as_xyz
  1  'x, y, z'
loop_
 _atom_site_type_symbol
 _atom_site_label
 _atom_site_symmetry_multiplicity
 _atom_site_fract_x
 _atom_site_fract_y
 _atom_site_fract_z
 _atom_site_occupancy
 _atom_site_pbe_bader_charge
 _atom_site_pbe_bader_spin_density
 _atom_site_pbe_cm5_charge
 _atom_site_pbe_ddec_charge
 _atom_site_pbe_ddec_spin_density
 _atom_site_pbe_ddec_sum_bond_order
 _atom_site_pbe_magmom
Zn  Zn0  1  0.50000167  0.50000274  0.49999826  1  1.367907  0  0.704004  0.880523  0  2.274436  0
Si  Si1  1  0.00000004  0.50000439  0.49999926  1  3.228387  0  0.24842  1.751389  0  3.886546  0
C  C2  1  0.36816429  0.45399272  0.14347429  1  1.218561  0  0.237663  0.427296  0  4.08559  0
C  C3  1  0.63184349  0.54600207  0.85652377  1  1.21821  0  0.237702  0.427241  0  4.085622  0
C  C4  1  0.58781196  0.52644572  0.00393694  1  -0.174976  0  -0.022758  -0.180812  0  4.107922  0
C  C5  1  0.41219402  0.47354412  0.99605636  1  -0.114777  0  -0.022846  -0.181082  0  4.107873  0
C  C6  1  0.36816879  0.14347600  0.45398318  1  1.218638  0  0.237767  0.427454  0  4.08521  0
C  C7  1  0.63182202  0.85651874  0.54602316  1  1.218373  0  0.237642  0.427207  0  4.085414  0
C  C8  1  0.58778470  0.00393698  0.52645664  1  -0.114443  0  -0.022803  -0.180836  0  4.108454  0
C  C9  1  0.41221095  0.99605809  0.47354736  1  -0.175633  0  -0.022782  -0.180901  0  4.108293  0
S  S10  1  0.68321616  0.54540746  0.18688253  1  0.775332  0  0.284058  0.417056  0  2.931562  0
S  S11  1  0.31678696  0.45459448  0.81311153  1  0.775876  0  0.284071  0.417125  0  2.931529  0
S  S12  1  0.68321013  0.18688360  0.54542556  1  0.77569  0  0.284083  0.41708  0  2.931319  0
S  S13  1  0.31678092  0.81310956  0.45457278  1  0.77571  0  0.28407  0.41702  0  2.931377  0
N  N14  1  0.49590458  0.48799906  0.25288421  1  -1.156035  0  -0.321965  -0.423148  0  3.384213  0
N  N15  1  0.50409967  0.51200293  0.74710869  1  -1.155763  0  -0.321953  -0.42311  0  3.384111  0
N  N16  1  0.49590593  0.25288812  0.48799859  1  -1.156134  0  -0.321969  -0.423233  0  3.384201  0
N  N17  1  0.50408421  0.74710853  0.51200336  1  -1.155919  0  -0.321953  -0.42303  0  3.384321  0
F  F18  1  0.23262288  0.49008039  0.49006698  1  -0.821125  0  -0.229183  -0.511399  0  1.294536  0
F  F19  1  0.76737982  0.50993951  0.50992812  1  -0.821159  0  -0.229164  -0.511394  0  1.29452  0
F  F20  1  0.00000582  0.37337800  0.62662138  1  -0.828594  0  -0.252751  -0.564241  0  1.205862  0
F  F21  1  0.99999230  0.62663716  0.37337693  1  -0.828574  0  -0.252765  -0.564215  0  1.205822  0
F  F22  1  0.04786040  0.64188587  0.64187397  1  -0.828385  0  -0.254416  -0.559979  0  1.180357  0
F  F23  1  0.95213605  0.35812555  0.35812078  1  -0.82835  0  -0.254399  -0.559954  0  1.180354  0
F  F24  1  0.21095045  0.40315961  0.17256406  1  -0.602189  0  -0.046902  -0.080451  0  1.413626  0
F  F25  1  0.78906274  0.59683127  0.82743478  1  -0.60231  0  -0.046947  -0.080495  0  1.413528  0
F  F26  1  0.21094806  0.17256545  0.40313081  1  -0.604191  0  -0.046998  -0.080593  0  1.413534  0
F  F27  1  0.78903886  0.82742833  0.59688460  1  -0.604129  0  -0.046926  -0.080514  0  1.413436  0
