# generated using pymatgen
data_CaH14C7O6
_symmetry_space_group_name_H-M   'P 1'
_cell_length_a   6.46294647
_cell_length_b   6.83871671
_cell_length_c   12.43099324
_cell_angle_alpha   88.02250396
_cell_angle_beta   81.65962283
_cell_angle_gamma   70.79233345
_symmetry_Int_Tables_number   1
_chemical_formula_structural   CaH14C7O6
_chemical_formula_sum   'Ca2 H28 C14 O12'
_cell_volume   513.30416927
_cell_formula_units_Z   2
loop_
 _symmetry_equiv_pos_site_id
 _symmetry_equiv_pos_as_xyz
  1  'x, y, z'
loop_
 _atom_site_type_symbol
 _atom_site_label
 _atom_site_symmetry_multiplicity
 _atom_site_fract_x
 _atom_site_fract_y
 _atom_site_fract_z
 _atom_site_occupancy
 _atom_site_hle17_bader_spin_density
 _atom_site_hle17_ddec_charge
 _atom_site_hle17_ddec_spin_density
 _atom_site_hle17_ddec_sum_bond_order
 _atom_site_hle17_magmom
 _atom_site_hse06_10hf_bader_spin_density
 _atom_site_hse06_10hf_ddec_charge
 _atom_site_hse06_10hf_ddec_spin_density
 _atom_site_hse06_10hf_ddec_sum_bond_order
 _atom_site_hse06_10hf_magmom
 _atom_site_hse06_bader_spin_density
 _atom_site_hse06_ddec_charge
 _atom_site_hse06_ddec_spin_density
 _atom_site_hse06_ddec_sum_bond_order
 _atom_site_hse06_magmom
 _atom_site_pbe_bader_spin_density
 _atom_site_pbe_cm5_charge
 _atom_site_pbe_ddec_charge
 _atom_site_pbe_ddec_spin_density
 _atom_site_pbe_ddec_sum_bond_order
 _atom_site_pbe_magmom
Ca  Ca0  1  0.06258043  0.22415880  0.07502383  1  0  1.534533  0  1.134019  0  0  1.397982  0  1.484887  0  0  1.444366  0  1.438172  0  0  0.874619  1.362994  0  1.518039  0
Ca  Ca1  1  0.93741862  0.77583625  0.92497460  1  0  1.534502  0  1.134058  0  0  1.397937  0  1.484954  0  0  1.444335  0  1.438217  0  0  0.8746  1.362946  0  1.518109  0
H  H2  1  0.61011183  0.77132267  0.30097499  1  0  0.131812  0  0.930845  0  0  0.155852  0  0.984473  0  0  0.15842  0  0.983354  0  0  0.101405  0.153892  0  0.985485  0
H  H3  1  0.38988766  0.22868476  0.69902637  1  0  0.13178  0  0.930779  0  0  0.155833  0  0.98441  0  0  0.158402  0  0.98329  0  0  0.101398  0.153872  0  0.985421  0
H  H4  1  0.70381194  0.98696056  0.28009605  1  0  0.137343  0  0.963243  0  0  0.156718  0  1.02334  0  0  0.159523  0  1.022487  0  0  0.102843  0.154675  0  1.024029  0
H  H5  1  0.29618965  0.01304530  0.71990357  1  0  0.137352  0  0.963272  0  0  0.156727  0  1.023374  0  0  0.159533  0  1.02252  0  0  0.102869  0.154689  0  1.024056  0
H  H6  1  0.57066736  0.94536313  0.41147323  1  0  0.106663  0  0.973444  0  0  0.128331  0  1.035436  0  0  0.130217  0  1.034714  0  0  0.086202  0.126902  0  1.036046  0
H  H7  1  0.42933423  0.05464274  0.58852881  1  0  0.106621  0  0.973482  0  0  0.128298  0  1.03546  0  0  0.13018  0  1.034743  0  0  0.086189  0.126869  0  1.036071  0
H  H8  1  0.20558140  0.13974677  0.45316186  1  0  0.103581  0  1.006229  0  0  0.113519  0  1.071313  0  0  0.115813  0  1.074314  0  0  0.085666  0.111825  0  1.069479  0
H  H9  1  0.79441755  0.86026220  0.54683950  1  0  0.103586  0  1.006215  0  0  0.113519  0  1.0713  0  0  0.115809  0  1.074306  0  0  0.085665  0.111824  0  1.069465  0
H  H10  1  0.61810933  0.34401009  0.43610411  1  0  0.12205  0  0.950311  0  0  0.14326  0  1.009356  0  0  0.145433  0  1.008587  0  0  0.093847  0.141668  0  1.009974  0
H  H11  1  0.38189125  0.65598959  0.56389490  1  0  0.122066  0  0.950262  0  0  0.143242  0  1.009347  0  0  0.145417  0  1.008575  0  0  0.093837  0.14165  0  1.009964  0
H  H12  1  0.76945266  0.50394305  0.46745197  1  0  0.121729  0  0.943774  0  0  0.143285  0  1.004881  0  0  0.145172  0  1.00478  0  0  0.095766  0.141959  0  1.004967  0
H  H13  1  0.23054372  0.49605974  0.53254731  1  0  0.121716  0  0.943781  0  0  0.143263  0  1.004897  0  0  0.14515  0  1.004797  0  0  0.09577  0.141937  0  1.004982  0
H  H14  1  0.82407709  0.25443486  0.52523557  1  0  0.120663  0  0.967733  0  0  0.141726  0  1.028327  0  0  0.143347  0  1.028998  0  0  0.090998  0.14056  0  1.027876  0
H  H15  1  0.17592036  0.74556484  0.47476369  1  0  0.120637  0  0.967706  0  0  0.141698  0  1.028313  0  0  0.143319  0  1.028984  0  0  0.090982  0.140532  0  1.027863  0
H  H16  1  0.67442866  0.35687360  0.75912155  1  0  0.132501  0  0.949916  0  0  0.152811  0  1.010248  0  0  0.155538  0  1.008301  0  0  0.102397  0.150768  0  1.011822  0
H  H17  1  0.32557146  0.64311835  0.24087605  1  0  0.132519  0  0.949875  0  0  0.152831  0  1.010207  0  0  0.155558  0  1.008261  0  0  0.102392  0.150787  0  1.011781  0
H  H18  1  0.91878626  0.16485050  0.69827927  1  0  0.123729  0  0.988479  0  0  0.140938  0  1.051623  0  0  0.142477  0  1.052352  0  0  0.093939  0.139752  0  1.051248  0
H  H19  1  0.08121596  0.83513990  0.30171901  1  0  0.12374  0  0.988542  0  0  0.140949  0  1.051666  0  0  0.14249  0  1.052396  0  0  0.093952  0.139764  0  1.051291  0
H  H20  1  0.90145778  0.43381483  0.70181672  1  0  0.129447  0  0.972639  0  0  0.147904  0  1.034633  0  0  0.149309  0  1.035669  0  0  0.096331  0.146836  0  1.034002  0
H  H21  1  0.09854288  0.56617558  0.29818168  1  0  0.129449  0  0.972592  0  0  0.147921  0  1.034582  0  0  0.149325  0  1.035618  0  0  0.096343  0.146852  0  1.033953  0
H  H22  1  0.38964400  0.36926453  0.93171228  1  0  0.426173  0  0.872257  0  0  0.397114  0  0.933134  0  0  0.407275  0  0.918351  0  0  0.307558  0.389853  0  0.943697  0
H  H23  1  0.61035346  0.63073517  0.06828778  1  0  0.42617  0  0.872259  0  0  0.397108  0  0.933141  0  0  0.40727  0  0.918358  0  0  0.307553  0.389848  0  0.943704  0
H  H24  1  0.49141423  0.12500406  0.90533532  1  0  0.421616  0  0.880885  0  0  0.387878  0  0.949274  0  0  0.399158  0  0.933075  0  0  0.302906  0.379842  0  0.960791  0
H  H25  1  0.50858479  0.87499564  0.09466542  1  0  0.421603  0  0.880903  0  0  0.387859  0  0.949303  0  0  0.39914  0  0.933103  0  0  0.302897  0.379824  0  0.96082  0
H  H26  1  0.64227020  0.32964250  0.17824792  1  0  0.425901  0  0.852136  0  0  0.396451  0  0.92515  0  0  0.406708  0  0.909895  0  0  0.315135  0.389064  0  0.936131  0
H  H27  1  0.35772986  0.67035873  0.82175191  1  0  0.425883  0  0.852146  0  0  0.396435  0  0.925169  0  0  0.406692  0  0.909915  0  0  0.315124  0.389048  0  0.936151  0
H  H28  1  0.56095886  0.29568635  0.06539572  1  0  0.440123  0  0.849859  0  0  0.407583  0  0.915757  0  0  0.418526  0  0.899827  0  0  0.313172  0.399765  0  0.927134  0
H  H29  1  0.43904172  0.70431333  0.93460410  1  0  0.440137  0  0.849842  0  0  0.4076  0  0.915736  0  0  0.418543  0  0.899807  0  0  0.313183  0.399782  0  0.927114  0
C  C30  1  0.57126217  0.93508217  0.32365865  1  0  -0.41581  0  3.660937  0  0  -0.494532  0  3.889728  0  0  -0.500244  0  3.892996  0  0  -0.246141  -0.490256  0  3.887482  0
C  C31  1  0.42873945  0.06491906  0.67634187  1  0  -0.415726  0  3.660849  0  0  -0.494444  0  3.889669  0  0  -0.500152  0  3.892941  0  0  -0.246124  -0.490172  0  3.887419  0
C  C32  1  0.35262545  0.06078922  0.28850462  1  0  0.527559  0  3.785586  0  0  0.516369  0  4.048716  0  0  0.54285  0  4.053928  0  0  0.126615  0.498616  0  4.044383  0
C  C33  1  0.64737511  0.93921511  0.71149752  1  0  0.527568  0  3.785442  0  0  0.516316  0  4.048682  0  0  0.542789  0  4.053906  0  0  0.12656  0.498563  0  4.044351  0
C  C34  1  0.17316748  0.15640259  0.36914891  1  0  -0.491194  0  3.726871  0  0  -0.512545  0  3.986381  0  0  -0.538621  0  4.007365  0  0  -0.163928  -0.494998  0  3.971931  0
C  C35  1  0.82683358  0.84360483  0.63085233  1  0  -0.491188  0  3.726773  0  0  -0.512504  0  3.986291  0  0  -0.538576  0  4.007276  0  0  -0.163884  -0.49495  0  3.971847  0
C  C36  1  0.95081839  0.25873742  0.35290746  1  0  0.527311  0  3.795865  0  0  0.520119  0  4.056543  0  0  0.546887  0  4.059751  0  0  0.127065  0.50208  0  4.053826  0
C  C37  1  0.04918426  0.74126534  0.64709214  1  0  0.527239  0  3.795927  0  0  0.52005  0  4.056601  0  0  0.546825  0  4.059797  0  0  0.126984  0.501994  0  4.053907  0
C  C38  1  0.78118447  0.34277289  0.45177505  1  0  -0.412906  0  3.67706  0  0  -0.49144  0  3.903841  0  0  -0.496965  0  3.907611  0  0  -0.248027  -0.487381  0  3.901086  0
C  C39  1  0.21881349  0.65722990  0.54822572  1  0  -0.412806  0  3.677023  0  0  -0.491297  0  3.903801  0  0  -0.496824  0  3.907569  0  0  -0.247951  -0.487232  0  3.901049  0
C  C40  1  0.93558440  0.28088929  0.85526131  1  0  0.78912  0  3.824101  0  0  0.749861  0  4.112187  0  0  0.784592  0  4.102039  0  0  0.229597  0.725993  0  4.118395  0
C  C41  1  0.06441675  0.71910420  0.14473779  1  0  0.789269  0  3.82412  0  0  0.750016  0  4.112191  0  0  0.784747  0  4.102042  0  0  0.229693  0.726147  0  4.118399  0
C  C42  1  0.85613962  0.30911771  0.74586239  1  0  -0.459739  0  3.656273  0  0  -0.536492  0  3.887364  0  0  -0.542753  0  3.889429  0  0  -0.244117  -0.53196  0  3.886059  0
C  C43  1  0.14385786  0.69087735  0.25413535  1  0  -0.459809  0  3.656274  0  0  -0.536562  0  3.887357  0  0  -0.542827  0  3.889422  0  0  -0.244139  -0.532029  0  3.886052  0
O  O44  1  0.34453216  0.06708322  0.18587556  1  0  -0.656879  0  2.019528  0  0  -0.584576  0  2.243241  0  0  -0.61188  0  2.236575  0  0  -0.346363  -0.565278  0  2.247292  0
O  O45  1  0.65546789  0.93291802  0.81412507  1  0  -0.656902  0  2.019554  0  0  -0.584585  0  2.243312  0  0  -0.611889  0  2.236652  0  0  -0.346354  -0.565286  0  2.247365  0
O  O46  1  0.88251616  0.28653788  0.26078445  1  0  -0.64647  0  2.009355  0  0  -0.58684  0  2.243016  0  0  -0.612359  0  2.235021  0  0  -0.344439  -0.568783  0  2.247967  0
O  O47  1  0.11748599  0.71346180  0.73921606  1  0  -0.64647  0  2.009316  0  0  -0.586836  0  2.242973  0  0  -0.612364  0  2.234983  0  0  -0.344422  -0.568773  0  2.247931  0
O  O48  1  0.94177857  0.43790013  0.90451376  1  0  -0.74771  0  2.009781  0  0  -0.683605  0  2.258835  0  0  -0.713157  0  2.249451  0  0  -0.393099  -0.662441  0  2.264626  0
O  O49  1  0.05822361  0.56209489  0.09548281  1  0  -0.747769  0  2.009762  0  0  -0.68369  0  2.258837  0  0  -0.713239  0  2.249452  0  0  -0.393148  -0.662526  0  2.264629  0
O  O50  1  0.99266361  0.10235463  0.89858645  1  0  -0.768985  0  1.982709  0  0  -0.707739  0  2.233637  0  0  -0.736962  0  2.22299  0  0  -0.394791  -0.686728  0  2.240257  0
O  O51  1  0.00733491  0.89764197  0.10141440  1  0  -0.769052  0  1.982777  0  0  -0.707792  0  2.233661  0  0  -0.737018  0  2.223023  0  0  -0.394852  -0.68678  0  2.240279  0
O  O52  1  0.41460414  0.23037876  0.96460145  1  0  -0.866884  0  1.859976  0  0  -0.805212  0  2.039086  0  0  -0.827048  0  2.007701  0  0  -0.586132  -0.789497  0  2.061141  0
O  O53  1  0.58539435  0.76962248  0.03539850  1  0  -0.866881  0  1.860017  0  0  -0.80521  0  2.039142  0  0  -0.827047  0  2.007755  0  0  -0.586119  -0.789492  0  2.061192  0
O  O54  1  0.64646983  0.36529387  0.10101444  1  0  -0.855255  0  1.879108  0  0  -0.794697  0  2.066082  0  0  -0.8156  0  2.034397  0  0  -0.579014  -0.779703  0  2.088411  0
O  O55  1  0.35353128  0.63470427  0.89898457  1  0  -0.855256  0  1.879121  0  0  -0.794706  0  2.066109  0  0  -0.81561  0  2.034423  0  0  -0.579008  -0.77971  0  2.088434  0
