# generated using pymatgen
data_Cu2H18C24N4O9
_symmetry_space_group_name_H-M   'P 1'
_cell_length_a   10.74113986
_cell_length_b   13.79153957
_cell_length_c   19.02745073
_cell_angle_alpha   89.96759453
_cell_angle_beta   90.02952965
_cell_angle_gamma   103.34151078
_symmetry_Int_Tables_number   1
_chemical_formula_structural   Cu2H18C24N4O9
_chemical_formula_sum   'Cu8 H72 C96 N16 O36'
_cell_volume   2742.59573636
_cell_formula_units_Z   4
loop_
 _symmetry_equiv_pos_site_id
 _symmetry_equiv_pos_as_xyz
  1  'x, y, z'
loop_
 _atom_site_type_symbol
 _atom_site_label
 _atom_site_symmetry_multiplicity
 _atom_site_fract_x
 _atom_site_fract_y
 _atom_site_fract_z
 _atom_site_occupancy
 _atom_site_pbe_bader_charge
 _atom_site_pbe_bader_spin_density
 _atom_site_pbe_cm5_charge
 _atom_site_pbe_ddec_charge
 _atom_site_pbe_ddec_spin_density
 _atom_site_pbe_ddec_sum_bond_order
 _atom_site_pbe_magmom
Cu  Cu0  1  0.92315295  0.15470187  0.87968994  1  1.112432  0.568792  0.720279  0.836024  0.720399  2.160991  0.569
Cu  Cu1  1  0.07723515  0.34506174  0.38026069  1  1.118055  0.597218  0.722281  0.842664  0.755652  2.154374  0.597
Cu  Cu2  1  0.07675720  0.84516514  0.12027182  1  1.113266  0.571382  0.72125  0.837079  0.723537  2.161608  0.571
Cu  Cu3  1  0.92296378  0.65462405  0.62046952  1  1.113555  0.573463  0.721063  0.836976  0.72648  2.161282  0.573
Cu  Cu4  1  0.73818125  0.78745147  0.51642305  1  1.123851  -0.564444  0.727509  0.858508  -0.729611  2.175666  -0.564
Cu  Cu5  1  0.26190554  0.71251536  0.01645124  1  1.123086  -0.567972  0.727084  0.857888  -0.734284  2.174553  -0.567
Cu  Cu6  1  0.26052718  0.21281417  0.48324572  1  1.129514  0.6073  0.727744  0.861555  0.770056  2.166628  0.606
Cu  Cu7  1  0.73800732  0.28730600  0.98366557  1  1.123719  -0.568471  0.727564  0.858799  -0.734483  2.174381  -0.568
H  H8  1  0.98455433  0.97682337  0.93779401  1  0.16824  0.002113  0.121868  0.098667  0.001112  1.066741  0.002
H  H9  1  0.01559237  0.52314998  0.43816648  1  0.162912  0.002187  0.121397  0.097622  0.00114  1.066413  0.002
H  H10  1  0.01541205  0.02314100  0.06226549  1  0.168182  0.002115  0.121715  0.098431  0.001113  1.06688  0.002
H  H11  1  0.98421333  0.47690821  0.56240435  1  0.168616  0.002058  0.121616  0.098516  0.001044  1.066579  0.002
H  H12  1  0.80131586  0.97864391  0.77674416  1  0.131009  -0.000126  0.114065  0.090355  -6.4e-05  1.009766  0.0
H  H13  1  0.19844432  0.52136922  0.27687932  1  0.129608  4.1e-05  0.11407  0.090006  9e-06  1.009926  0.0
H  H14  1  0.19881405  0.02102186  0.22298170  1  0.132769  -0.000204  0.113989  0.090057  -0.000136  1.01015  0.0
H  H15  1  0.80074706  0.47864491  0.72333299  1  0.084027  -0.000136  0.113933  0.090086  -6.7e-05  1.00956  0.0
H  H16  1  0.90931654  0.97005938  0.48087184  1  0.183015  -0.002376  0.123318  0.102953  -0.001155  1.061989  -0.002
H  H17  1  0.09094226  0.53000536  0.98066712  1  0.187353  -0.002449  0.123239  0.103109  -0.001249  1.061751  -0.002
H  H18  1  0.09081707  0.02944044  0.51907216  1  0.182987  0.002465  0.123178  0.10262  0.001151  1.062209  0.002
H  H19  1  0.90901565  0.46971774  0.01951278  1  0.19061  -0.002443  0.123469  0.103563  -0.001248  1.061568  -0.002
H  H20  1  0.54044996  0.59732786  0.46698520  1  0.133247  4e-06  0.113948  0.087609  -6.5e-05  1.047434  0.0
H  H21  1  0.45983943  0.90299953  0.96728416  1  0.132606  -1.1e-05  0.114246  0.088638  -7.9e-05  1.045976  0.0
H  H22  1  0.45934492  0.40320204  0.53290914  1  0.12509  -1.1e-05  0.114631  0.088616  1.4e-05  1.0464  0.0
H  H23  1  0.54012505  0.09688938  0.03282108  1  0.129944  -1.3e-05  0.11432  0.088537  -8e-05  1.046433  0.0
H  H24  1  0.82878846  0.08507151  0.56338828  1  0.075666  -0.000169  0.109223  0.109609  -0.000114  1.01247  0.0
H  H25  1  0.17102339  0.41480952  0.06361456  1  0.078695  -0.000145  0.108863  0.109367  -0.000109  1.012539  0.0
H  H26  1  0.17138842  0.91465887  0.43631287  1  0.079315  0.000141  0.108762  0.109251  9.1e-05  1.012963  0.0
H  H27  1  0.82932552  0.58501263  0.93664736  1  0.076371  -0.000165  0.109164  0.109492  -0.000119  1.013352  0.0
H  H28  1  0.38137014  0.13615925  0.81718713  1  0.094324  0.001101  0.112419  0.11841  0.000577  0.982212  0.001
H  H29  1  0.61908723  0.36407739  0.31706817  1  0.098031  0.001117  0.112304  0.118571  0.000589  0.982196  0.001
H  H30  1  0.61855557  0.86370686  0.18280459  1  0.093588  0.001045  0.112388  0.118332  0.000544  0.981882  0.001
H  H31  1  0.38130146  0.63586778  0.68293307  1  0.099653  0.001108  0.112009  0.118095  0.000573  0.98247  0.001
H  H32  1  0.18748517  0.20932424  0.81754905  1  0.14894  0.001639  0.119529  0.092745  0.000785  1.012988  0.002
H  H33  1  0.81302140  0.29096771  0.31764173  1  0.15113  0.001702  0.119616  0.093448  0.000816  1.012799  0.002
H  H34  1  0.81243824  0.79052548  0.18238118  1  0.147041  0.001648  0.119878  0.093254  0.000791  1.012338  0.002
H  H35  1  0.18748906  0.70908763  0.68272160  1  0.149157  0.001639  0.119669  0.093289  0.000783  1.012514  0.002
H  H36  1  0.94760722  0.27948583  0.74129807  1  0.133206  -0.000155  0.11376  0.088049  -7.4e-05  1.002518  0.0
H  H37  1  0.05201086  0.22054577  0.24165993  1  0.130385  -6.1e-05  0.113423  0.087499  -5.2e-05  1.002957  0.0
H  H38  1  0.05241175  0.72016741  0.25845195  1  0.127877  -7.2e-05  0.113486  0.088037  -2.8e-05  1.002754  0.0
H  H39  1  0.94762850  0.77940260  0.75856875  1  0.13372  -0.000156  0.113807  0.088306  -7.4e-05  1.002887  0.0
H  H40  1  0.92609190  0.25620556  0.60984798  1  0.111134  -5.8e-05  0.105884  0.12286  -1.1e-05  1.034753  0.0
H  H41  1  0.07359287  0.24373505  0.11021250  1  0.117864  2.9e-05  0.105893  0.12279  4.4e-05  1.035357  0.0
H  H42  1  0.07385264  0.74351405  0.38990359  1  0.11412  -6.2e-05  0.106087  0.123014  -9e-06  1.035162  0.0
H  H43  1  0.92659579  0.75611085  0.89005518  1  0.116271  -4.4e-05  0.105862  0.122884  9e-06  1.035004  0.0
H  H44  1  0.58720532  0.80354422  0.38245537  1  0.11841  -0.00207  0.123203  0.095491  -0.001007  0.987028  -0.001
H  H45  1  0.41336501  0.69672850  0.88266683  1  0.110404  -0.002115  0.122906  0.095221  -0.001026  0.986744  -0.002
H  H46  1  0.41260161  0.19704621  0.61709629  1  0.113229  0.002204  0.122699  0.094931  0.001036  0.987679  0.002
H  H47  1  0.58643066  0.30318049  0.11747517  1  0.108566  -0.002116  0.122843  0.09489  -0.001025  0.987019  -0.002
H  H48  1  0.24216481  0.80610336  0.52518958  1  0.079105  -7e-06  0.106787  0.11398  -2.7e-05  1.011929  0.0
H  H49  1  0.75796455  0.69363266  0.02478900  1  0.089022  -1.8e-05  0.107022  0.114469  -3.1e-05  1.01254  0.0
H  H50  1  0.75716848  0.19388493  0.47503117  1  0.061215  -1.6e-05  0.106656  0.11403  -1.8e-05  1.011528  0.0
H  H51  1  0.24199229  0.30622871  0.97521691  1  0.075143  -2e-05  0.107062  0.114615  -3.1e-05  1.012203  0.0
H  H52  1  0.15879762  0.64801942  0.46009356  1  0.154729  9.7e-05  0.109926  0.115446  0.000117  1.037481  0.0
H  H53  1  0.84127468  0.85191330  0.95982342  1  0.153631  9.6e-05  0.110033  0.115504  0.000114  1.037016  0.0
H  H54  1  0.84081985  0.35214137  0.53994430  1  0.157469  0.000118  0.109481  0.114978  0.000123  1.037532  0.0
H  H55  1  0.15866677  0.14798554  0.04021980  1  0.15489  9.8e-05  0.110009  0.115528  0.000116  1.037075  0.0
H  H56  1  0.58699409  0.93916461  0.29463619  1  0.105158  -0.001105  0.112353  0.117389  -0.000582  0.991673  -0.001
H  H57  1  0.41370611  0.56133324  0.79480926  1  0.051838  -0.001138  0.11238  0.116907  -0.000583  0.991751  -0.001
H  H58  1  0.41359249  0.06183015  0.70505846  1  0.053471  0.001269  0.112176  0.116961  0.000641  0.991393  0.001
H  H59  1  0.58593597  0.43871455  0.20518712  1  0.098015  -0.0011  0.112308  0.116918  -0.000577  0.992457  -0.001
H  H60  1  0.76122732  0.09698676  0.30108490  1  0.105201  2.3e-05  0.112706  0.113284  6.6e-05  0.984323  0.0
H  H61  1  0.23948143  0.40347492  0.80106730  1  0.109103  3e-06  0.112823  0.113848  4.9e-05  0.984392  0.0
H  H62  1  0.23976835  0.90364138  0.69897199  1  0.106177  0.000504  0.112579  0.113504  0.000311  0.984063  0.0
H  H63  1  0.76015668  0.59657516  0.19887231  1  0.105511  8e-06  0.112796  0.113637  5.4e-05  0.984242  0.0
H  H64  1  0.37020251  0.97298348  0.87807459  1  0.130857  9.4e-05  0.112025  0.120138  -4.2e-05  1.00556  0.0
H  H65  1  0.63008727  0.52714512  0.37799016  1  0.13288  0.000126  0.112038  0.120194  -2.7e-05  1.005973  0.0
H  H66  1  0.62977575  0.02696808  0.12201014  1  0.131794  9.1e-05  0.111934  0.119821  -4.7e-05  1.005679  0.0
H  H67  1  0.36993447  0.47285096  0.62190590  1  0.133353  0.000792  0.112  0.120124  0.000482  1.006169  0.0
H  H68  1  0.47682074  0.85447933  0.55620883  1  0.10614  0.000202  0.112356  0.085805  0.000108  0.994724  0.0
H  H69  1  0.52346340  0.64541210  0.05607972  1  0.107431  0.000203  0.112382  0.085898  0.000112  0.99456  0.0
H  H70  1  0.52247705  0.14570723  0.44401345  1  0.112154  6.3e-05  0.112354  0.086309  1.2e-05  0.994916  0.0
H  H71  1  0.47648818  0.35441420  0.94394565  1  0.10879  0.000203  0.112564  0.08646  0.000112  0.994602  0.0
H  H72  1  0.75084887  0.25714168  0.85666444  1  0.650011  -0.00026  0.287518  0.37547  -0.000186  0.978061  0.0
H  H73  1  0.25061336  0.24279656  0.35575919  1  0.64894  -0.000151  0.287747  0.377297  0.000564  0.975235  0.0
H  H74  1  0.24911260  0.74273756  0.14341347  1  0.649359  -0.00026  0.28753  0.375487  -0.000179  0.978003  0.0
H  H75  1  0.75093742  0.75716829  0.64342970  1  0.649666  -0.000266  0.287669  0.375241  -0.00018  0.978393  0.0
H  H76  1  0.69082423  0.14103112  0.89329161  1  0.653902  0.00037  0.288725  0.374461  0.000279  0.973728  0.0
H  H77  1  0.31032473  0.35933335  0.39227621  1  0.649011  8.5e-05  0.289317  0.377421  0.00079  0.971111  0.0
H  H78  1  0.30911083  0.85881399  0.10673533  1  0.654299  0.000369  0.288861  0.37499  0.000276  0.973136  0.0
H  H79  1  0.69069818  0.64111035  0.60681580  1  0.653751  0.000372  0.28871  0.374268  0.000289  0.973454  0.0
C  C80  1  0.07308296  0.00868687  0.91040473  1  0.463597  -0.000662  0.053893  0.080997  0.000249  3.889105  0.0
C  C81  1  0.92716822  0.49139860  0.41063124  1  0.47019  -0.00064  0.054551  0.082051  0.000278  3.886803  0.0
C  C82  1  0.92687397  0.99124397  0.08962587  1  0.46349  -0.000636  0.053714  0.08083  0.000267  3.888969  0.0
C  C83  1  0.07279378  0.50871062  0.58979349  1  0.462848  0.000837  0.053781  0.081122  0.001142  3.889468  0.001
C  C84  1  0.34468547  0.61087124  0.45623451  1  -0.013058  0.007798  -0.01717  -0.090237  0.005415  3.964533  0.006
C  C85  1  0.65551443  0.88927724  0.95628156  1  -0.033639  0.007408  -0.017335  -0.089873  0.005097  3.964043  0.006
C  C86  1  0.65505994  0.38946558  0.54367721  1  -0.043804  0.008118  -0.01658  -0.088103  0.005595  3.962437  0.006
C  C87  1  0.34443750  0.11061329  0.04379792  1  -0.03332  0.007421  -0.016881  -0.08856  0.005109  3.964708  0.006
C  C88  1  0.95732198  0.13684414  0.40349551  1  1.593993  -0.001294  0.20603  0.574318  0.000411  4.22518  -0.002
C  C89  1  0.04305604  0.36344362  0.90336094  1  1.595833  -0.00092  0.204917  0.573104  0.000592  4.226516  -0.002
C  C90  1  0.04315235  0.86326010  0.59676008  1  1.604581  0.000565  0.205632  0.574721  0.001627  4.223733  -0.001
C  C91  1  0.95675033  0.63643097  0.09663024  1  1.59896  -0.000915  0.205447  0.573579  0.000598  4.22651  -0.002
C  C92  1  0.82519763  0.03907795  0.73853093  1  0.504598  -0.00223  0.04939  0.081156  -0.001492  3.93653  -0.002
C  C93  1  0.17455620  0.46091329  0.23871694  1  0.501837  -0.002107  0.049367  0.082752  -0.001344  3.935805  -0.002
C  C94  1  0.17493190  0.96055048  0.26117497  1  0.52579  0.001207  0.049012  0.081529  0.000786  3.935694  0.001
C  C95  1  0.82485445  0.53905417  0.76152065  1  0.553264  -0.002225  0.049352  0.0812  -0.001495  3.937071  -0.002
C  C96  1  0.17361328  0.96029921  0.91095608  1  0.008246  -0.00334  -0.012394  -0.069715  -0.002487  3.934911  -0.002
C  C97  1  0.82662823  0.53979555  0.41106496  1  0.003782  -0.00306  -0.011974  -0.069066  -0.002285  3.932841  -0.002
C  C98  1  0.82636497  0.03965534  0.08912130  1  0.007965  -0.003384  -0.012652  -0.070604  -0.002515  3.935323  -0.002
C  C99  1  0.17327627  0.46034785  0.58911485  1  0.008429  0.017796  -0.012928  -0.070282  0.012147  3.937429  0.014
C  C100  1  0.84932896  0.04591339  0.39155909  1  -0.000589  0.002914  -0.01133  -0.074497  0.002077  3.93893  0.002
C  C101  1  0.15118275  0.45434817  0.89145235  1  0.002632  0.002906  -0.011461  -0.07526  0.002042  3.941072  0.002
C  C102  1  0.15123216  0.95416780  0.60844319  1  -0.000459  0.014991  -0.011965  -0.076454  0.01023  3.942914  0.012
C  C103  1  0.84863520  0.54554871  0.10861135  1  0.005369  0.002959  -0.011963  -0.075354  0.002072  3.93948  0.002
C  C104  1  0.80477177  0.01955976  0.66677609  1  -0.006225  -0.005886  -0.017677  -0.087262  -0.00417  3.971248  -0.005
C  C105  1  0.19509402  0.48037359  0.16695073  1  -0.009844  -0.005446  -0.01805  -0.089054  -0.003876  3.971403  -0.004
C  C106  1  0.19543658  0.98011583  0.33292402  1  -0.056641  0.006703  -0.017899  -0.088327  0.004636  3.971217  0.005
C  C107  1  0.80472701  0.51952396  0.83329482  1  -0.007951  -0.005902  -0.018101  -0.087516  -0.004187  3.971756  -0.005
C  C108  1  0.84047604  0.96665883  0.43853307  1  0.457696  0.002113  0.058784  0.086122  0.000793  3.87575  0.002
C  C109  1  0.15994517  0.53352929  0.93842755  1  0.45528  0.002098  0.058721  0.085782  0.000762  3.877385  0.002
C  C110  1  0.15982981  0.03325345  0.56135779  1  0.459191  -0.000695  0.057988  0.08576  4.1e-05  3.877246  0.0
C  C111  1  0.83996079  0.46626970  0.06171501  1  0.453031  0.0021  0.058627  0.085217  0.000772  3.876713  0.002
C  C112  1  0.15268589  0.86386407  0.95189927  1  1.602066  0.000623  0.202787  0.570656  -0.001057  4.234925  0.002
C  C113  1  0.84752574  0.63620869  0.45197194  1  1.601549  0.000635  0.202991  0.571  -0.001052  4.234661  0.002
C  C114  1  0.84731996  0.13611041  0.04820701  1  1.604085  0.000621  0.203053  0.571128  -0.00106  4.235311  0.002
C  C115  1  0.15247466  0.36420889  0.54803860  1  1.602614  -0.00098  0.202752  0.571189  0.000608  4.234208  -0.003
C  C116  1  0.47191779  0.64232040  0.47795697  1  0.511922  0.001274  0.048493  0.084559  0.000845  3.934658  0.001
C  C117  1  0.52835478  0.85788123  0.97811459  1  0.514777  0.001244  0.048999  0.083671  0.000828  3.934414  0.001
C  C118  1  0.52778774  0.35810116  0.52197732  1  0.519428  0.000408  0.048992  0.083725  0.000318  3.93407  0.001
C  C119  1  0.47160621  0.14200549  0.02197068  1  0.515042  0.001248  0.048252  0.082623  0.000831  3.935176  0.001
C  C120  1  0.84060369  0.09888964  0.61958444  1  -0.009888  -0.000639  -0.061057  -0.031784  -0.000435  3.914712  0.0
C  C121  1  0.15918715  0.40101911  0.11982180  1  -0.073713  -0.0007  -0.060734  -0.031465  -0.00048  3.913554  0.0
C  C122  1  0.15952961  0.90081422  0.38012565  1  -0.072278  -0.000111  -0.060651  -0.031347  -4.8e-05  3.913075  0.0
C  C123  1  0.84086780  0.59882193  0.88043535  1  -0.075483  -0.000628  -0.060753  -0.031697  -0.000425  3.9155  0.0
C  C124  1  0.75452372  0.91488725  0.64162547  1  1.565356  -0.00147  0.210607  0.58127  -0.002286  4.18503  -0.001
C  C125  1  0.24548190  0.58501563  0.14174061  1  1.565114  -0.001392  0.21126  0.583353  -0.00223  4.182762  0.0
C  C126  1  0.24597833  0.08477469  0.35803475  1  1.589703  0.001129  0.209978  0.582036  0.002117  4.185648  0.0
C  C127  1  0.75443111  0.41486024  0.85846868  1  1.561472  -0.001481  0.211559  0.58273  -0.002292  4.184012  -0.001
C  C128  1  0.29369930  0.09683236  0.84297238  1  -0.030994  0.006186  -0.08286  -0.129753  0.004163  3.994893  0.005
C  C129  1  0.70667895  0.40337910  0.34296140  1  -0.031607  0.006408  -0.082648  -0.129482  0.004306  3.995104  0.005
C  C130  1  0.70623585  0.90307327  0.15704193  1  -0.030853  0.006157  -0.082876  -0.13  0.004135  3.994431  0.005
C  C131  1  0.29356110  0.59661509  0.65716067  1  -0.037041  0.006575  -0.082549  -0.130417  0.004313  3.995098  0.005
C  C132  1  0.18757364  0.13877201  0.84320320  1  0.433138  -4.9e-05  0.048539  0.088154  0.000675  3.942873  0.0
C  C133  1  0.81284536  0.36147404  0.34328084  1  0.431244  1.1e-05  0.048278  0.086324  0.000756  3.944552  0.0
C  C134  1  0.81235343  0.86110755  0.15676434  1  0.445631  -6.9e-05  0.047956  0.087278  0.000698  3.942553  0.0
C  C135  1  0.18743475  0.63859222  0.65701939  1  0.434717  -0.001283  0.048837  0.088874  -0.000164  3.942643  0.0
C  C136  1  0.90814593  0.20660810  0.71793876  1  0.489642  -0.000947  0.047492  0.108673  -0.000684  3.939454  -0.001
C  C137  1  0.09150275  0.29340192  0.21825419  1  0.490041  -0.000801  0.048167  0.109673  -0.000534  3.938081  -0.001
C  C138  1  0.09185170  0.79303935  0.28179707  1  0.487152  -0.000207  0.047316  0.108096  -9.9e-05  3.939554  0.0
C  C139  1  0.90814729  0.70655085  0.78199394  1  0.488269  -0.000935  0.047377  0.108354  -0.000676  3.939163  -0.001
C  C140  1  0.89383378  0.19377466  0.64552914  1  -0.073974  -2.8e-05  -0.086647  -0.128157  1.1e-05  3.952034  0.0
C  C141  1  0.10587046  0.30617461  0.14584515  1  -0.008353  0.000406  -0.086482  -0.127748  0.000299  3.951104  0.0
C  C142  1  0.10616187  0.80592361  0.35418933  1  -0.009564  -4.8e-05  -0.086953  -0.128301  -4.9e-05  3.950978  0.0
C  C143  1  0.89412755  0.69369306  0.85441671  1  -0.009525  -1e-05  -0.086475  -0.127969  2.8e-05  3.95138  0.0
C  C144  1  0.65997877  0.87325870  0.38339945  1  0.401975  0.000121  0.053347  0.093503  -0.000688  3.930358  0.0
C  C145  1  0.34057030  0.62704499  0.88352330  1  0.473785  0.000334  0.053107  0.093603  -0.000643  3.930527  0.0
C  C146  1  0.34005498  0.12724016  0.61625160  1  0.470629  -0.001159  0.052358  0.093051  5.7e-05  3.930631  0.0
C  C147  1  0.65924231  0.37286163  0.11660241  1  0.469068  0.00031  0.053572  0.094861  -0.000654  3.930984  0.0
C  C148  1  0.30302876  0.51304615  0.41846340  1  1.563458  2e-05  0.215312  0.580667  0.001247  4.176482  -0.001
C  C149  1  0.69721117  0.98724093  0.91864107  1  1.586385  0.00013  0.215544  0.58101  0.001345  4.17622  -0.001
C  C150  1  0.69689241  0.48736842  0.58134952  1  1.588519  7.5e-05  0.214922  0.580152  0.001325  4.176163  -0.001
C  C151  1  0.30270226  0.01262155  0.08138218  1  1.584777  0.00013  0.215261  0.580511  0.001347  4.177339  -0.001
C  C152  1  0.30613494  0.75879920  0.51029590  1  -0.022508  0.000179  -0.086432  -0.12716  4.5e-05  3.97581  0.0
C  C153  1  0.69400988  0.74104873  0.01003286  1  -0.042773  0.000154  -0.086699  -0.127895  3.8e-05  3.976289  0.0
C  C154  1  0.69330413  0.24131449  0.48985126  1  -0.022833  0.000522  -0.086561  -0.127683  0.000301  3.976012  0.0
C  C155  1  0.30595344  0.25882752  0.99000931  1  -0.026786  0.000153  -0.08678  -0.127919  3.6e-05  3.975762  0.0
C  C156  1  0.25989852  0.67041557  0.47357647  1  -0.107724  -4.3e-05  -0.062575  -0.041085  -4.2e-05  3.914464  0.0
C  C157  1  0.74023161  0.82954368  0.97339406  1  -0.113544  -9e-06  -0.062292  -0.040656  -1.4e-05  3.914064  0.0
C  C158  1  0.73971262  0.32976993  0.52645771  1  -0.092675  -0.001224  -0.062549  -0.041375  -0.00078  3.914278  -0.001
C  C159  1  0.25972730  0.17033633  0.02666335  1  -0.115198  -3e-06  -0.062458  -0.041425  -1e-05  3.914577  0.0
C  C160  1  0.66123308  0.94896580  0.33472402  1  0.005038  -0.005273  -0.083847  -0.135884  -0.003702  3.997833  -0.004
C  C161  1  0.33937364  0.55143046  0.83483569  1  -0.014882  -0.005448  -0.084134  -0.13567  -0.003758  3.999093  -0.004
C  C162  1  0.33919940  0.05170225  0.66502796  1  -0.01341  0.006026  -0.084306  -0.136186  0.003995  3.998978  0.005
C  C163  1  0.66034314  0.44854273  0.16521904  1  -0.062171  -0.005488  -0.084287  -0.136294  -0.003765  3.999806  -0.004
C  C164  1  0.75715137  0.03656154  0.33859188  1  -0.047297  0.003422  -0.059215  -0.040897  0.002269  3.93292  0.002
C  C165  1  0.24344306  0.46380487  0.83859349  1  -0.048856  0.00359  -0.059673  -0.042066  0.002369  3.936756  0.002
C  C166  1  0.24354281  0.96390778  0.66135148  1  -0.043075  -0.004345  -0.059521  -0.041547  -0.002858  3.935949  -0.003
C  C167  1  0.75628882  0.53616297  0.16142288  1  -0.044016  0.003589  -0.059323  -0.041457  0.002371  3.935406  0.002
C  C168  1  0.28736194  0.00607109  0.87690091  1  -0.062663  -0.004073  -0.058196  -0.038443  -0.002723  3.905748  -0.002
C  C169  1  0.71294721  0.49407246  0.37689537  1  -0.062477  -0.004237  -0.05855  -0.038948  -0.002835  3.905333  -0.002
C  C170  1  0.71259941  0.99385896  0.12315019  1  -0.063651  -0.004083  -0.057948  -0.037459  -0.002732  3.905368  -0.002
C  C171  1  0.28711975  0.50596727  0.62316203  1  -0.065989  -0.004998  -0.058592  -0.038561  -0.00326  3.905933  -0.003
C  C172  1  0.43536131  0.78530738  0.52831502  1  0.483762  -4.5e-05  0.042385  0.086845  -2.1e-05  3.980588  0.0
C  C173  1  0.56488949  0.71462794  0.02820829  1  0.503737  8e-06  0.042803  0.087116  1.5e-05  3.980117  0.0
C  C174  1  0.56407060  0.21490049  0.47183265  1  0.473496  -0.001029  0.043585  0.086932  -0.000592  3.98121  -0.001
C  C175  1  0.43506669  0.28522521  0.97183389  1  0.502875  5e-06  0.042241  0.085878  1.2e-05  3.981226  0.0
N  N176  1  0.07885893  0.09521521  0.87703408  1  -1.203025  0.084633  -0.338293  -0.221071  0.056094  3.599453  0.073
N  N177  1  0.92145778  0.40494904  0.37725149  1  -1.204122  0.088063  -0.337022  -0.219959  0.058276  3.59648  0.076
N  N178  1  0.92107415  0.90468073  0.12295291  1  -1.21322  0.08482  -0.337788  -0.220241  0.056186  3.599228  0.073
N  N179  1  0.07861225  0.59513909  0.62323844  1  -1.206102  0.087646  -0.338985  -0.22246  0.058014  3.600844  0.076
N  N180  1  0.74822976  0.88281650  0.43472210  1  -1.181453  -0.08022  -0.335726  -0.211315  -0.054207  3.59128  -0.069
N  N181  1  0.25220599  0.61736349  0.93474462  1  -1.183186  -0.081424  -0.335883  -0.211167  -0.054969  3.59393  -0.07
N  N182  1  0.25171676  0.11735211  0.56494950  1  -1.187918  0.087709  -0.33491  -0.210887  0.057974  3.589786  0.076
N  N183  1  0.74765723  0.38244781  0.06541739  1  -1.182144  -0.081544  -0.335991  -0.21192  -0.055057  3.593211  -0.07
N  N184  1  0.51703980  0.72782952  0.51267025  1  -1.23687  0.006332  -0.331791  -0.28546  0.003945  3.512838  0.004
N  N185  1  0.48328526  0.77227148  0.01275586  1  -1.244239  0.006128  -0.332579  -0.286141  0.003818  3.512681  0.004
N  N186  1  0.48256632  0.27252634  0.48738754  1  -1.224408  0.005734  -0.331821  -0.28449  0.003894  3.510478  0.006
N  N187  1  0.51668666  0.22760843  0.98731575  1  -1.242271  0.006066  -0.331712  -0.284728  0.003776  3.512465  0.004
N  N188  1  0.87499314  0.13055090  0.76372375  1  -1.239365  -0.006939  -0.335151  -0.28069  -0.004333  3.527953  -0.004
N  N189  1  0.12464658  0.36949356  0.26396122  1  -1.241385  0.000895  -0.335253  -0.282078  0.000987  3.526291  0.002
N  N190  1  0.12500191  0.86910031  0.23600682  1  -1.235438  -0.002386  -0.335181  -0.28032  -0.001525  3.529658  -0.001
N  N191  1  0.87470224  0.63050581  0.73627057  1  -1.240696  -0.006981  -0.335481  -0.280658  -0.00436  3.529886  -0.004
O  O192  1  0.18185955  0.48181235  0.41013610  1  -1.122879  0.088243  -0.313855  -0.545287  0.05635  2.393429  0.08
O  O193  1  0.81829359  0.01813831  0.90986191  1  -1.123738  0.083787  -0.314358  -0.54534  0.053578  2.394789  0.076
O  O194  1  0.81800095  0.51818871  0.59011468  1  -1.121173  0.085205  -0.313569  -0.5444  0.054483  2.394078  0.077
O  O195  1  0.18162191  0.98172491  0.09010195  1  -1.122955  0.084017  -0.314221  -0.544976  0.053701  2.395498  0.076
O  O196  1  0.95992420  0.21116161  0.36169589  1  -1.130751  0.097127  -0.324027  -0.560378  0.061967  2.358365  0.087
O  O197  1  0.04026800  0.28919686  0.86154184  1  -1.131731  0.093725  -0.323907  -0.560125  0.059849  2.355835  0.084
O  O198  1  0.04024912  0.78914008  0.63876037  1  -1.133577  0.096508  -0.324651  -0.561284  0.061596  2.353691  0.087
O  O199  1  0.95954410  0.71070832  0.13843461  1  -1.13228  0.094161  -0.323978  -0.560401  0.06013  2.355905  0.085
O  O200  1  0.76199676  0.20603295  0.89653992  1  -1.205842  0.005201  -0.564889  -0.762492  0.003021  2.462872  0.005
O  O201  1  0.23977004  0.29417037  0.39539146  1  -1.20529  0.12928  -0.569016  -0.771489  0.08472  2.458713  0.116
O  O202  1  0.23796858  0.79377156  0.10349386  1  -1.205501  0.00512  -0.564936  -0.762823  0.002978  2.462703  0.005
O  O203  1  0.76197592  0.70609474  0.60356194  1  -1.204369  0.006612  -0.564826  -0.761866  0.003947  2.463968  0.006
O  O204  1  0.38693760  0.46738982  0.39918023  1  -1.173414  0.002559  -0.31399  -0.528615  0.001229  2.158285  0.002
O  O205  1  0.61342938  0.03338245  0.89988106  1  -1.173384  -0.000864  -0.314135  -0.528633  -0.000823  2.160484  -0.001
O  O206  1  0.61317950  0.53347823  0.60018906  1  -1.176887  -0.000791  -0.313883  -0.528568  -0.000812  2.159451  -0.001
O  O207  1  0.38645509  0.96645561  0.10014692  1  -1.174176  -0.000859  -0.313986  -0.528748  -0.000822  2.159832  -0.001
O  O208  1  0.04737679  0.83210345  0.98155165  1  -1.168434  -0.001373  -0.312222  -0.561557  -0.000631  2.245942  0.0
O  O209  1  0.95285488  0.66799162  0.48159865  1  -1.16684  -0.001475  -0.311689  -0.560841  -0.000702  2.245584  0.0
O  O210  1  0.95267712  0.16798416  0.01865500  1  -1.168119  -0.001473  -0.312092  -0.561165  -0.000697  2.245275  0.0
O  O211  1  0.04732126  0.33258820  0.51810443  1  -1.169167  0.001411  -0.313074  -0.563937  0.000466  2.247135  0.002
O  O212  1  0.25023870  0.82386192  0.95293602  1  -1.112855  -0.105841  -0.325376  -0.549344  -0.068706  2.36518  -0.095
O  O213  1  0.74991850  0.67616431  0.45298328  1  -1.112696  -0.105626  -0.325678  -0.549751  -0.068557  2.365012  -0.095
O  O214  1  0.74968096  0.17602366  0.04712297  1  -1.113552  -0.106073  -0.325514  -0.549482  -0.06886  2.366301  -0.095
O  O215  1  0.24987992  0.32403684  0.54694581  1  -1.113798  0.112452  -0.325817  -0.550691  0.071545  2.366494  0.101
O  O216  1  0.72125332  0.90461249  0.57687202  1  -1.130647  -0.075076  -0.324705  -0.55741  -0.049102  2.357725  -0.067
O  O217  1  0.27876301  0.59529076  0.07700483  1  -1.127764  -0.074989  -0.325296  -0.558684  -0.049068  2.356582  -0.067
O  O218  1  0.27893526  0.09517086  0.42278025  1  -1.133055  0.081381  -0.325299  -0.559685  0.052244  2.353648  0.072
O  O219  1  0.72112578  0.40451285  0.92320185  1  -1.131403  -0.075138  -0.325126  -0.55819  -0.049137  2.357547  -0.067
O  O220  1  0.03268293  0.13303057  0.45269423  1  -1.15434  -0.000524  -0.303484  -0.548109  -0.00074  2.307156  0.0
O  O221  1  0.96784025  0.36737623  0.95257897  1  -1.151106  0.001597  -0.303025  -0.546376  0.00077  2.301677  0.001
O  O222  1  0.96777614  0.86704244  0.54752299  1  -1.160198  0.003089  -0.304343  -0.548421  0.001658  2.300933  0.002
O  O223  1  0.03188188  0.63248486  0.04741325  1  -1.1525  0.001602  -0.30332  -0.546584  0.000771  2.302213  0.001
O  O224  1  0.75189197  0.84447522  0.68510607  1  -1.168416  -0.001048  -0.318633  -0.526298  -0.000437  2.168648  0.0
O  O225  1  0.24818158  0.65544652  0.18517130  1  -1.170086  -0.001102  -0.319062  -0.527171  -0.000476  2.167933  0.0
O  O226  1  0.24904033  0.15513014  0.31437238  1  -1.170465  0.007396  -0.319374  -0.527675  0.004304  2.165423  0.006
O  O227  1  0.75180696  0.34449298  0.81500646  1  -1.167315  -0.001114  -0.319705  -0.52755  -0.000476  2.16853  0.0
