# generated using pymatgen
data_La2H14C9O16
_symmetry_space_group_name_H-M   'P 1'
_cell_length_a   7.03319962
_cell_length_b   10.10668672
_cell_length_c   14.28109594
_cell_angle_alpha   71.21502920
_cell_angle_beta   75.75057527
_cell_angle_gamma   69.62303373
_symmetry_Int_Tables_number   1
_chemical_formula_structural   La2H14C9O16
_chemical_formula_sum   'La4 H28 C18 O32'
_cell_volume   890.58879780
_cell_formula_units_Z   2
loop_
 _symmetry_equiv_pos_site_id
 _symmetry_equiv_pos_as_xyz
  1  'x, y, z'
loop_
 _atom_site_type_symbol
 _atom_site_label
 _atom_site_symmetry_multiplicity
 _atom_site_fract_x
 _atom_site_fract_y
 _atom_site_fract_z
 _atom_site_occupancy
 _atom_site_hle17_bader_spin_density
 _atom_site_hle17_ddec_charge
 _atom_site_hle17_ddec_spin_density
 _atom_site_hle17_ddec_sum_bond_order
 _atom_site_hle17_magmom
 _atom_site_hse06_10hf_bader_spin_density
 _atom_site_hse06_10hf_ddec_charge
 _atom_site_hse06_10hf_ddec_spin_density
 _atom_site_hse06_10hf_ddec_sum_bond_order
 _atom_site_hse06_10hf_magmom
 _atom_site_hse06_bader_spin_density
 _atom_site_hse06_ddec_charge
 _atom_site_hse06_ddec_spin_density
 _atom_site_hse06_ddec_sum_bond_order
 _atom_site_hse06_magmom
 _atom_site_pbe_bader_spin_density
 _atom_site_pbe_cm5_charge
 _atom_site_pbe_ddec_charge
 _atom_site_pbe_ddec_spin_density
 _atom_site_pbe_ddec_sum_bond_order
 _atom_site_pbe_magmom
La  La0  1  0.04007738  0.86190464  0.66086355  1  0  2.158465  0  1.713784  0  0  2.033278  0  2.21662  0  0  2.137837  0  2.114659  0  0  1.400029  1.953668  0  2.289667  0
La  La1  1  0.43698088  0.36209069  0.16090977  1  0  2.157818  0  1.714185  0  0  2.032442  0  2.217156  0  0  2.137091  0  2.11504  0  0  1.399635  1.952925  0  2.29018  0
La  La2  1  0.95991978  0.13809782  0.33913891  1  0  2.15839  0  1.713928  0  0  2.033213  0  2.216743  0  0  2.13777  0  2.114794  0  0  1.400009  1.953608  0  2.28979  0
La  La3  1  0.56302597  0.63790951  0.83908874  1  0  2.15784  0  1.714158  0  0  2.032481  0  2.217108  0  0  2.137131  0  2.114991  0  0  1.39964  1.952979  0  2.290121  0
H  H4  1  0.05795203  0.35545451  0.90761581  1  0  0.151729  0  0.91962  0  0  0.162215  0  0.97745  0  0  0.165862  0  0.975313  0  0  0.120396  0.159556  0  0.97925  0
H  H5  1  0.67883862  0.85550642  0.40766679  1  0  0.151727  0  0.920546  0  0  0.162319  0  0.978104  0  0  0.165987  0  0.975941  0  0  0.120799  0.159721  0  0.979848  0
H  H6  1  0.94204343  0.64454463  0.09238445  1  0  0.151743  0  0.919684  0  0  0.162264  0  0.977466  0  0  0.16591  0  0.975331  0  0  0.120413  0.159606  0  0.979265  0
H  H7  1  0.32116238  0.14449492  0.59233395  1  0  0.151721  0  0.920528  0  0  0.162309  0  0.978125  0  0  0.165984  0  0.975961  0  0  0.120792  0.159712  0  0.979869  0
H  H8  1  0.31423593  0.32643040  0.84265249  1  0  0.163007  0  0.887318  0  0  0.179022  0  0.934334  0  0  0.182851  0  0.931905  0  0  0.12949  0.176318  0  0.936143  0
H  H9  1  0.51679945  0.82662905  0.34248688  1  0  0.163252  0  0.887367  0  0  0.179556  0  0.93391  0  0  0.183409  0  0.931415  0  0  0.129584  0.176874  0  0.935808  0
H  H10  1  0.68576107  0.67356869  0.15734481  1  0  0.163071  0  0.887327  0  0  0.179086  0  0.934335  0  0  0.182914  0  0.931905  0  0  0.129477  0.176382  0  0.936143  0
H  H11  1  0.48320284  0.17337229  0.65751405  1  0  0.163224  0  0.887364  0  0  0.179558  0  0.933896  0  0  0.183419  0  0.931403  0  0  0.129586  0.176882  0  0.93579  0
H  H12  1  0.10697968  0.15079151  0.77085898  1  0  0.142457  0  0.930411  0  0  0.154479  0  0.987297  0  0  0.157638  0  0.985651  0  0  0.113717  0.152284  0  0.988505  0
H  H13  1  0.97088000  0.65166605  0.27052598  1  0  0.141097  0  0.929862  0  0  0.152584  0  0.987728  0  0  0.155733  0  0.986102  0  0  0.11291  0.150486  0  0.988795  0
H  H14  1  0.89301906  0.84920763  0.22914094  1  0  0.142456  0  0.930389  0  0  0.154472  0  0.987285  0  0  0.157631  0  0.98563  0  0  0.113728  0.152279  0  0.988493  0
H  H15  1  0.02912061  0.34833310  0.72947499  1  0  0.141103  0  0.929839  0  0  0.152569  0  0.987738  0  0  0.155721  0  0.986111  0  0  0.112911  0.15047  0  0.988805  0
H  H16  1  0.88151680  0.98600081  0.86022195  1  0  0.427548  0  0.877464  0  0  0.395057  0  0.943068  0  0  0.407037  0  0.925906  0  0  0.295609  0.386419  0  0.955442  0
H  H17  1  0.27199236  0.48620751  0.36018057  1  0  0.427736  0  0.877289  0  0  0.395182  0  0.942948  0  0  0.407125  0  0.925832  0  0  0.295503  0.386469  0  0.955479  0
H  H18  1  0.11848438  0.01399722  0.13977766  1  0  0.42753  0  0.877498  0  0  0.395078  0  0.943046  0  0  0.407058  0  0.925884  0  0  0.295612  0.386438  0  0.955425  0
H  H19  1  0.72800806  0.51379382  0.63981930  1  0  0.427692  0  0.877363  0  0  0.395161  0  0.942992  0  0  0.407104  0  0.925876  0  0  0.295496  0.386449  0  0.955522  0
H  H20  1  0.86421253  0.82398992  0.89341792  1  0  0.436753  0  0.863342  0  0  0.406233  0  0.925425  0  0  0.417933  0  0.908544  0  0  0.305224  0.397774  0  0.937646  0
H  H21  1  0.41839971  0.32423549  0.39345066  1  0  0.435306  0  0.865465  0  0  0.404968  0  0.927274  0  0  0.416655  0  0.910398  0  0  0.304796  0.396587  0  0.939355  0
H  H22  1  0.13578865  0.17600812  0.10658168  1  0  0.436657  0  0.863446  0  0  0.406121  0  0.925563  0  0  0.417819  0  0.908684  0  0  0.305181  0.397666  0  0.937778  0
H  H23  1  0.58159917  0.67576475  0.60654994  1  0  0.435296  0  0.86548  0  0  0.404957  0  0.92729  0  0  0.416645  0  0.910411  0  0  0.304802  0.396576  0  0.939369  0
H  H24  1  0.91649812  0.64756139  0.60029619  1  0  0.425751  0  0.87783  0  0  0.397193  0  0.938063  0  0  0.408741  0  0.921326  0  0  0.29522  0.388721  0  0.950396  0
H  H25  1  0.83537205  0.14755410  0.10036217  1  0  0.424634  0  0.879512  0  0  0.395724  0  0.940276  0  0  0.407306  0  0.923486  0  0  0.29462  0.387403  0  0.952317  0
H  H26  1  0.08350514  0.35244102  0.39970314  1  0  0.425738  0  0.877851  0  0  0.397169  0  0.938103  0  0  0.408716  0  0.921368  0  0  0.295202  0.388695  0  0.950438  0
H  H27  1  0.16463112  0.85244392  0.89963692  1  0  0.424632  0  0.879521  0  0  0.395721  0  0.940282  0  0  0.407302  0  0.923492  0  0  0.294634  0.387401  0  0.95232  0
H  H28  1  0.11751679  0.65751748  0.51606619  1  0  0.439712  0  0.854884  0  0  0.407386  0  0.919582  0  0  0.419388  0  0.902113  0  0  0.297558  0.398704  0  0.932223  0
H  H29  1  0.70846681  0.15739430  0.01623409  1  0  0.439128  0  0.855564  0  0  0.406951  0  0.919994  0  0  0.418935  0  0.902561  0  0  0.297551  0.398247  0  0.932662  0
H  H30  1  0.88248447  0.34248494  0.48393366  1  0  0.439744  0  0.854843  0  0  0.407415  0  0.919545  0  0  0.419418  0  0.902074  0  0  0.297566  0.398732  0  0.932188  0
H  H31  1  0.29153559  0.84260589  0.98376301  1  0  0.439149  0  0.85553  0  0  0.406978  0  0.919951  0  0  0.41896  0  0.902523  0  0  0.29759  0.398273  0  0.932621  0
C  C32  1  0.13152332  0.55081466  0.81244294  1  0  0.775353  0  3.798893  0  0  0.732407  0  4.089046  0  0  0.770273  0  4.07966  0  0  0.236584  0.706138  0  4.094506  0
C  C33  1  0.50508210  0.05101383  0.31252168  1  0  0.775575  0  3.794675  0  0  0.733009  0  4.084131  0  0  0.770732  0  4.07495  0  0  0.237673  0.706854  0  4.089632  0
C  C34  1  0.86847825  0.44918556  0.18755644  1  0  0.775387  0  3.798808  0  0  0.732446  0  4.088966  0  0  0.770312  0  4.079575  0  0  0.236575  0.706179  0  4.094423  0
C  C35  1  0.49491366  0.94899406  0.68747750  1  0  0.775704  0  3.794629  0  0  0.733087  0  4.084191  0  0  0.770821  0  4.075009  0  0  0.237697  0.706925  0  4.089701  0
C  C36  1  0.18914812  0.39982707  0.88223702  1  0  -0.432078  0  3.623428  0  0  -0.467842  0  3.862508  0  0  -0.477305  0  3.859902  0  0  -0.149729  -0.461454  0  3.864429  0
C  C37  1  0.52867769  0.89991618  0.38219765  1  0  -0.43147  0  3.622325  0  0  -0.467327  0  3.861057  0  0  -0.476737  0  3.858388  0  0  -0.149931  -0.461278  0  3.863506  0
C  C38  1  0.81084947  0.60017316  0.11776340  1  0  -0.432204  0  3.623549  0  0  -0.468021  0  3.86264  0  0  -0.477482  0  3.860028  0  0  -0.149764  -0.461638  0  3.864562  0
C  C39  1  0.47132229  0.10008624  0.61780202  1  0  -0.431419  0  3.62232  0  0  -0.467285  0  3.861192  0  0  -0.476733  0  3.858568  0  0  -0.149896  -0.461242  0  3.863649  0
C  C40  1  0.26909982  0.39421521  0.97356836  1  0  0.746407  0  3.827577  0  0  0.695986  0  4.135136  0  0  0.731024  0  4.129573  0  0  0.224825  0.67189  0  4.13782  0
C  C41  1  0.36298822  0.89413352  0.47351494  1  0  0.747666  0  3.824313  0  0  0.696791  0  4.132537  0  0  0.731877  0  4.126918  0  0  0.224905  0.672773  0  4.135316  0
C  C42  1  0.73090340  0.60577953  0.02643115  1  0  0.746439  0  3.827778  0  0  0.696046  0  4.135275  0  0  0.731087  0  4.129711  0  0  0.224826  0.671949  0  4.137959  0
C  C43  1  0.63700925  0.10586674  0.52648705  1  0  0.747821  0  3.824165  0  0  0.696786  0  4.13265  0  0  0.731881  0  4.127034  0  0  0.22488  0.672765  0  4.13543  0
C  C44  1  0.89933890  0.24361456  0.66213297  1  0  0.751153  0  3.833168  0  0  0.704897  0  4.136003  0  0  0.739482  0  4.127592  0  0  0.230301  0.680875  0  4.141266  0
C  C45  1  0.19476709  0.74399896  0.16190100  1  0  0.75008  0  3.830908  0  0  0.703294  0  4.134516  0  0  0.737894  0  4.126074  0  0  0.229497  0.679425  0  4.139739  0
C  C46  1  0.10066183  0.75638457  0.33786643  1  0  0.751198  0  3.833104  0  0  0.704946  0  4.135956  0  0  0.739521  0  4.127541  0  0  0.230262  0.680919  0  4.141223  0
C  C47  1  0.80522882  0.25599908  0.83809947  1  0  0.75013  0  3.830835  0  0  0.703342  0  4.134443  0  0  0.737951  0  4.125999  0  0  0.229511  0.67948  0  4.139662  0
C  C48  1  0.98011422  0.24963854  0.75016602  1  0  -0.451556  0  3.64648  0  0  -0.490825  0  3.891285  0  0  -0.500738  0  3.891552  0  0  -0.166345  -0.483942  0  3.890973  0
C  C49  1  0.01988638  0.75035948  0.24983271  1  0  -0.451581  0  3.646521  0  0  -0.490849  0  3.891304  0  0  -0.500743  0  3.891553  0  0  -0.166376  -0.483966  0  3.890992  0
O  O50  1  0.26733207  0.61845879  0.77402504  1  0  -0.736609  0  2.029542  0  0  -0.68808  0  2.286675  0  0  -0.726101  0  2.278731  0  0  -0.388974  -0.660095  0  2.290953  0
O  O51  1  0.34011109  0.11872062  0.27402345  1  0  -0.736062  0  2.027228  0  0  -0.687596  0  2.284017  0  0  -0.725577  0  2.276186  0  0  -0.388946  -0.659763  0  2.288616  0
O  O52  1  0.73266983  0.38154036  0.22597611  1  0  -0.736656  0  2.029565  0  0  -0.688136  0  2.286702  0  0  -0.726159  0  2.278755  0  0  -0.389014  -0.660151  0  2.29098  0
O  O53  1  0.65988513  0.88128730  0.72597818  1  0  -0.736172  0  2.027177  0  0  -0.687691  0  2.28403  0  0  -0.725676  0  2.276193  0  0  -0.388966  -0.659857  0  2.288634  0
O  O54  1  0.94970668  0.61003065  0.79249391  1  0  -0.718351  0  2.050382  0  0  -0.668578  0  2.309456  0  0  -0.705807  0  2.303158  0  0  -0.368312  -0.641316  0  2.312929  0
O  O55  1  0.64761185  0.11017002  0.29270763  1  0  -0.719309  0  2.048648  0  0  -0.670043  0  2.307929  0  0  -0.707266  0  2.301703  0  0  -0.369791  -0.642892  0  2.311173  0
O  O56  1  0.05029560  0.38996956  0.20750476  1  0  -0.718308  0  2.050364  0  0  -0.668519  0  2.309398  0  0  -0.705745  0  2.303091  0  0  -0.368259  -0.641258  0  2.312866  0
O  O57  1  0.35238757  0.88983351  0.70729341  1  0  -0.719375  0  2.048688  0  0  -0.670071  0  2.307991  0  0  -0.707295  0  2.301759  0  0  -0.36978  -0.642919  0  2.311238  0
O  O58  1  0.31555737  0.50289612  0.97854792  1  0  -0.732427  0  2.029342  0  0  -0.684947  0  2.287785  0  0  -0.721601  0  2.282878  0  0  -0.371999  -0.658203  0  2.289968  0
O  O59  1  0.20295367  0.00287811  0.47860280  1  0  -0.733609  0  2.028542  0  0  -0.685776  0  2.286632  0  0  -0.722411  0  2.281556  0  0  -0.372481  -0.659024  0  2.28876  0
O  O60  1  0.68444585  0.49709863  0.02145159  1  0  -0.73247  0  2.029477  0  0  -0.684996  0  2.287898  0  0  -0.72165  0  2.28299  0  0  -0.372041  -0.658253  0  2.290082  0
O  O61  1  0.79704123  0.99712215  0.52139884  1  0  -0.733677  0  2.028517  0  0  -0.685783  0  2.286692  0  0  -0.722418  0  2.281614  0  0  -0.372487  -0.659032  0  2.288819  0
O  O62  1  0.28744901  0.27856838  0.04459231  1  0  -0.652217  0  2.00377  0  0  -0.595667  0  2.233544  0  0  -0.626035  0  2.224273  0  0  -0.334557  -0.573986  0  2.239443  0
O  O63  1  0.38928019  0.77833613  0.54443324  1  0  -0.652799  0  2.004059  0  0  -0.596235  0  2.234096  0  0  -0.626672  0  2.224843  0  0  -0.334237  -0.574532  0  2.239763  0
O  O64  1  0.71255947  0.72142521  0.95540409  1  0  -0.652175  0  2.003822  0  0  -0.595623  0  2.23356  0  0  -0.625998  0  2.224294  0  0  -0.334466  -0.57394  0  2.239458  0
O  O65  1  0.61072241  0.22166301  0.45556722  1  0  -0.652874  0  2.003986  0  0  -0.596253  0  2.234128  0  0  -0.626682  0  2.224855  0  0  -0.334234  -0.574549  0  2.239798  0
O  O66  1  0.92496727  0.11853605  0.65112906  1  0  -0.717638  0  2.043301  0  0  -0.676394  0  2.317197  0  0  -0.711132  0  2.307882  0  0  -0.406308  -0.650707  0  2.322804  0
O  O67  1  0.30492358  0.61880510  0.15095676  1  0  -0.717947  0  2.042761  0  0  -0.676088  0  2.31652  0  0  -0.710816  0  2.30715  0  0  -0.406049  -0.650571  0  2.322189  0
O  O68  1  0.07502235  0.88146422  0.34887344  1  0  -0.717661  0  2.043333  0  0  -0.676404  0  2.317181  0  0  -0.711161  0  2.30792  0  0  -0.406232  -0.650716  0  2.322787  0
O  O69  1  0.69507516  0.38119403  0.84904316  1  0  -0.717932  0  2.04271  0  0  -0.6761  0  2.316487  0  0  -0.710832  0  2.307115  0  0  -0.406044  -0.650587  0  2.322157  0
O  O70  1  0.80770037  0.36263334  0.60532941  1  0  -0.618672  0  1.940899  0  0  -0.557356  0  2.142638  0  0  -0.581513  0  2.129384  0  0  -0.299738  -0.540589  0  2.152161  0
O  O71  1  0.22465395  0.86287456  0.10512746  1  0  -0.617081  0  1.938065  0  0  -0.5561  0  2.140342  0  0  -0.580232  0  2.127095  0  0  -0.29925  -0.53924  0  2.149536  0
O  O72  1  0.19230719  0.63736685  0.39466841  1  0  -0.618701  0  1.940841  0  0  -0.557397  0  2.142591  0  0  -0.581551  0  2.129338  0  0  -0.299759  -0.540631  0  2.152118  0
O  O73  1  0.77533892  0.13712344  0.89487020  1  0  -0.61722  0  1.938093  0  0  -0.55616  0  2.14031  0  0  -0.580297  0  2.127058  0  0  -0.299283  -0.539304  0  2.149498  0
O  O74  1  0.95252088  0.88551699  0.84848994  1  0  -0.887499  0  1.883541  0  0  -0.832149  0  2.068727  0  0  -0.859716  0  2.035545  0  0  -0.595468  -0.812116  0  2.092181  0
O  O75  1  0.31340856  0.38566703  0.34852906  1  0  -0.886019  0  1.884751  0  0  -0.830955  0  2.069866  0  0  -0.858426  0  2.03678  0  0  -0.595181  -0.811002  0  2.093452  0
O  O76  1  0.04747934  0.11447997  0.15151126  1  0  -0.887413  0  1.883652  0  0  -0.832064  0  2.068776  0  0  -0.859635  0  2.03561  0  0  -0.595423  -0.812032  0  2.092229  0
O  O77  1  0.68658846  0.61433432  0.65147273  1  0  -0.885988  0  1.88482  0  0  -0.830947  0  2.069886  0  0  -0.858419  0  2.036799  0  0  -0.595201  -0.810997  0  2.093473  0
O  O78  1  0.04999949  0.67039468  0.58382299  1  0  -0.896198  0  1.852497  0  0  -0.850374  0  2.040454  0  0  -0.877202  0  2.006137  0  0  -0.649848  -0.83047  0  2.064668  0
O  O79  1  0.69542617  0.17026515  0.08399475  1  0  -0.894714  0  1.853994  0  0  -0.848573  0  2.042245  0  0  -0.875445  0  2.007935  0  0  -0.649277  -0.828863  0  2.066429  0
O  O80  1  0.95000230  0.32960990  0.41617506  1  0  -0.896207  0  1.852434  0  0  -0.850383  0  2.040416  0  0  -0.877215  0  2.006101  0  0  -0.649852  -0.830477  0  2.064632  0
O  O81  1  0.30457592  0.82973724  0.91600283  1  0  -0.894733  0  1.853949  0  0  -0.848591  0  2.042222  0  0  -0.875461  0  2.007913  0  0  -0.649321  -0.828884  0  2.066405  0
