# generated using pymatgen
data_AgH23C31SN8O5
_symmetry_space_group_name_H-M   'P 1'
_cell_length_a   12.46359310
_cell_length_b   12.46359058
_cell_length_c   12.71379337
_cell_angle_alpha   115.33175790
_cell_angle_beta   117.30135128
_cell_angle_gamma   95.49041318
_symmetry_Int_Tables_number   1
_chemical_formula_structural   AgH23C31SN8O5
_chemical_formula_sum   'Ag2 H46 C62 S2 N16 O10'
_cell_volume   1477.73825583
_cell_formula_units_Z   2
loop_
 _symmetry_equiv_pos_site_id
 _symmetry_equiv_pos_as_xyz
  1  'x, y, z'
loop_
 _atom_site_type_symbol
 _atom_site_label
 _atom_site_symmetry_multiplicity
 _atom_site_fract_x
 _atom_site_fract_y
 _atom_site_fract_z
 _atom_site_occupancy
 _atom_site_hle17_bader_spin_density
 _atom_site_hle17_ddec_charge
 _atom_site_hle17_ddec_spin_density
 _atom_site_hle17_ddec_sum_bond_order
 _atom_site_hle17_magmom
 _atom_site_hse06_10hf_bader_spin_density
 _atom_site_hse06_10hf_ddec_charge
 _atom_site_hse06_10hf_ddec_spin_density
 _atom_site_hse06_10hf_ddec_sum_bond_order
 _atom_site_hse06_10hf_magmom
 _atom_site_hse06_bader_spin_density
 _atom_site_hse06_ddec_charge
 _atom_site_hse06_ddec_spin_density
 _atom_site_hse06_ddec_sum_bond_order
 _atom_site_hse06_magmom
 _atom_site_pbe_bader_spin_density
 _atom_site_pbe_cm5_charge
 _atom_site_pbe_ddec_charge
 _atom_site_pbe_ddec_spin_density
 _atom_site_pbe_ddec_sum_bond_order
 _atom_site_pbe_magmom
Ag  Ag0  1  0.37803308  0.18276535  0.92784262  1  0  0.674889  0  1.563236  0  0  0.557231  0  2.048961  0  0  0.575574  0  2.001693  0  0  0.560569  0.545516  0  2.081216  0
Ag  Ag1  1  0.24507801  0.54980714  0.42784163  1  0  0.674906  0  1.563209  0  0  0.55725  0  2.048916  0  0  0.575595  0  2.001644  0  0  0.56058  0.545537  0  2.081175  0
H  H2  1  0.94137069  0.42870486  0.85208030  1  0  0.130625  0  0.967066  0  0  0.139771  0  1.023673  0  0  0.144125  0  1.020665  0  0  0.112001  0.136616  0  1.025938  0
H  H3  1  0.92337352  0.91070762  0.35207952  1  0  0.130629  0  0.967065  0  0  0.139797  0  1.023638  0  0  0.144151  0  1.020629  0  0  0.112024  0.136637  0  1.025911  0
H  H4  1  0.92470100  0.16696519  0.57928741  1  0  0.12753  0  0.973473  0  0  0.133346  0  1.038004  0  0  0.137816  0  1.034608  0  0  0.11004  0.130122  0  1.040529  0
H  H5  1  0.91232216  0.65458673  0.07928553  1  0  0.127545  0  0.973483  0  0  0.133362  0  1.03801  0  0  0.13783  0  1.034616  0  0  0.110057  0.130136  0  1.040535  0
H  H6  1  0.82650620  0.25985390  0.01084159  1  0  0.12714  0  0.987505  0  0  0.133836  0  1.049588  0  0  0.137696  0  1.047632  0  0  0.110399  0.131087  0  1.051005  0
H  H7  1  0.25098695  0.18433401  0.51083998  1  0  0.127159  0  0.987458  0  0  0.133842  0  1.049574  0  0  0.1377  0  1.047614  0  0  0.110405  0.131095  0  1.050984  0
H  H8  1  0.23655699  0.39134346  0.08087999  1  0  0.306432  0  0.924707  0  0  0.285572  0  0.9936  0  0  0.293657  0  0.987313  0  0  0.305053  0.279832  0  0.998107  0
H  H9  1  0.18953492  0.84432337  0.58088054  1  0  0.306464  0  0.924712  0  0  0.285612  0  0.993589  0  0  0.293697  0  0.987301  0  0  0.305073  0.279871  0  0.998099  0
H  H10  1  0.17147385  0.28533141  0.15090156  1  0  0.308725  0  0.939302  0  0  0.287236  0  1.009013  0  0  0.295764  0  1.001845  0  0  0.303756  0.281217  0  1.014059  0
H  H11  1  0.36556939  0.97942622  0.65089983  1  0  0.308667  0  0.939333  0  0  0.287182  0  1.009046  0  0  0.295706  0  1.001884  0  0  0.303731  0.281162  0  1.014091  0
H  H12  1  0.14397970  0.16994983  0.24124528  1  0  0.112311  0  0.947568  0  0  0.125004  0  1.004219  0  0  0.127545  0  1.003728  0  0  0.108918  0.123185  0  1.004621  0
H  H13  1  0.57129616  0.09726540  0.74124434  1  0  0.112324  0  0.947521  0  0  0.125019  0  1.004172  0  0  0.12756  0  1.00368  0  0  0.108927  0.1232  0  1.004574  0
H  H14  1  0.08548242  0.51137980  0.52774588  1  0  0.095411  0  0.96784  0  0  0.101115  0  1.038602  0  0  0.10505  0  1.035049  0  0  0.098529  0.098281  0  1.04114  0
H  H15  1  0.51636755  0.44226368  0.02774507  1  0  0.095422  0  0.967874  0  0  0.101145  0  1.03862  0  0  0.10508  0  1.035065  0  0  0.098535  0.098306  0  1.041162  0
H  H16  1  0.37354753  0.71228136  0.03534771  1  0  0.093366  0  0.985199  0  0  0.101862  0  1.050138  0  0  0.10451  0  1.048968  0  0  0.098608  0.099967  0  1.051042  0
H  H17  1  0.82306325  0.66180018  0.53534520  1  0  0.093385  0  0.985178  0  0  0.101894  0  1.050107  0  0  0.104542  0  1.048934  0  0  0.098616  0.099998  0  1.05101  0
H  H18  1  0.85016616  0.40294224  0.40618050  1  0  0.103968  0  0.934074  0  0  0.118975  0  0.987159  0  0  0.121986  0  0.985833  0  0  0.108504  0.116755  0  0.988287  0
H  H19  1  0.50323741  0.55601512  0.90617980  1  0  0.104007  0  0.934052  0  0  0.119006  0  0.98715  0  0  0.122017  0  0.985824  0  0  0.108503  0.116794  0  0.988268  0
H  H20  1  0.35771145  0.55503812  0.10128911  1  0  0.115317  0  0.947701  0  0  0.128035  0  1.003005  0  0  0.131248  0  1.001568  0  0  0.10629  0.12572  0  1.004085  0
H  H21  1  0.04624876  0.74357724  0.60128943  1  0  0.11534  0  0.947702  0  0  0.128076  0  1.002976  0  0  0.13129  0  1.001536  0  0  0.106308  0.125762  0  1.004055  0
H  H22  1  0.24394481  0.45163759  0.67991446  1  0  0.100809  0  0.950334  0  0  0.111391  0  1.010136  0  0  0.114281  0  1.009041  0  0  0.104153  0.109297  0  1.011017  0
H  H23  1  0.72827581  0.43596953  0.17991162  1  0  0.100819  0  0.950364  0  0  0.111402  0  1.010158  0  0  0.114291  0  1.009063  0  0  0.104158  0.109307  0  1.011038  0
H  H24  1  0.00806703  0.05736638  0.28190638  1  0  0.11239  0  0.956012  0  0  0.122122  0  1.014987  0  0  0.125348  0  1.012999  0  0  0.108504  0.119779  0  1.016542  0
H  H25  1  0.72454045  0.27383835  0.78190622  1  0  0.112397  0  0.955991  0  0  0.122111  0  1.014991  0  0  0.125336  0  1.013003  0  0  0.108496  0.119766  0  1.016547  0
H  H26  1  0.17146182  0.72832231  0.87286726  1  0  0.09946  0  0.945828  0  0  0.113178  0  1.000789  0  0  0.115865  0  1.000094  0  0  0.104784  0.111243  0  1.001355  0
H  H27  1  0.64454036  0.70140343  0.37286337  1  0  0.099386  0  0.945867  0  0  0.113128  0  1.00081  0  0  0.115819  0  1.00011  0  0  0.104757  0.111189  0  1.001387  0
H  H28  1  0.68318728  0.25896499  0.35764599  1  0  0.310619  0  0.915932  0  0  0.292163  0  0.98022  0  0  0.299753  0  0.97428  0  0  0.311139  0.286802  0  0.984425  0
H  H29  1  0.59867979  0.67445792  0.85764445  1  0  0.310586  0  0.915931  0  0  0.292148  0  0.980213  0  0  0.299738  0  0.974272  0  0  0.311138  0.286788  0  0.984418  0
H  H30  1  0.77823648  0.04482733  0.18845792  1  0  0.104546  0  0.946861  0  0  0.113807  0  1.008698  0  0  0.117009  0  1.007298  0  0  0.104686  0.111484  0  1.009804  0
H  H31  1  0.64363196  0.41022112  0.68845809  1  0  0.104547  0  0.946877  0  0  0.11381  0  1.008708  0  0  0.117013  0  1.007306  0  0  0.104689  0.111486  0  1.009814  0
H  H32  1  0.50944906  0.15314269  0.28711884  1  0  0.305894  0  0.925054  0  0  0.286818  0  0.989031  0  0  0.294745  0  0.982885  0  0  0.309538  0.281237  0  0.993315  0
H  H33  1  0.63397448  0.77766923  0.78711744  1  0  0.305853  0  0.925164  0  0  0.286817  0  0.989079  0  0  0.294745  0  0.982934  0  0  0.309525  0.281237  0  0.993363  0
H  H34  1  0.54695555  0.93065673  0.41656256  1  0  0.121655  0  0.97897  0  0  0.128694  0  1.043178  0  0  0.132494  0  1.040879  0  0  0.109774  0.12595  0  1.044934  0
H  H35  1  0.98590510  0.86960778  0.91656376  1  0  0.121678  0  0.978959  0  0  0.128721  0  1.043167  0  0  0.132521  0  1.040867  0  0  0.109774  0.125976  0  1.044926  0
H  H36  1  0.10588858  0.93114948  0.14151064  1  0  0.101172  0  0.978451  0  0  0.108975  0  1.043832  0  0  0.111881  0  1.042184  0  0  0.104677  0.106903  0  1.045047  0
H  H37  1  0.71036124  0.03562308  0.64151144  1  0  0.101165  0  0.978432  0  0  0.108953  0  1.043822  0  0  0.111857  0  1.042175  0  0  0.104688  0.106882  0  1.045038  0
H  H38  1  0.29875535  0.08120386  0.19712129  1  0  0.112799  0  0.967871  0  0  0.121268  0  1.031239  0  0  0.124883  0  1.029159  0  0  0.103563  0.118546  0  1.032941  0
H  H39  1  0.61591686  0.89836617  0.69712100  1  0  0.112768  0  0.967851  0  0  0.121237  0  1.031221  0  0  0.12485  0  1.029144  0  0  0.103547  0.118516  0  1.032923  0
H  H40  1  0.13237815  0.78222923  0.22383755  1  0  0.105159  0  0.93935  0  0  0.116798  0  0.997587  0  0  0.119763  0  0.996301  0  0  0.108173  0.114599  0  0.998692  0
H  H41  1  0.94161070  0.09145909  0.72384064  1  0  0.105143  0  0.939345  0  0  0.116778  0  0.997589  0  0  0.119741  0  0.996306  0  0  0.108167  0.114581  0  0.998688  0
H  H42  1  0.48616666  0.56037811  0.42095036  1  0  0.160864  0  0.968164  0  0  0.172568  0  1.035085  0  0  0.176162  0  1.032715  0  0  0.099923  0.169988  0  1.036829  0
H  H43  1  0.36057262  0.93478508  0.92095068  1  0  0.160851  0  0.968141  0  0  0.172551  0  1.035067  0  0  0.176145  0  1.032699  0  0  0.099926  0.169971  0  1.03681  0
H  H44  1  0.62776137  0.54120086  0.42089559  1  0  0.156211  0  0.954657  0  0  0.174318  0  1.011183  0  0  0.176816  0  1.010307  0  0  0.105963  0.172532  0  1.011843  0
H  H45  1  0.37969434  0.79313624  0.92089627  1  0  0.156209  0  0.954645  0  0  0.174301  0  1.011175  0  0  0.1768  0  1.0103  0  0  0.10596  0.172515  0  1.011835  0
H  H46  1  0.57427413  0.47962708  0.49851955  1  0  0.163304  0  0.939083  0  0  0.177875  0  0.998942  0  0  0.180924  0  0.997385  0  0  0.104462  0.175716  0  1.000061  0
H  H47  1  0.51889551  0.92424844  0.99852342  1  0  0.163264  0  0.939195  0  0  0.17784  0  0.999039  0  0  0.180888  0  0.997485  0  0  0.104443  0.175681  0  1.000158  0
C  C48  1  0.14873402  0.48268791  0.98404611  1  0  0.271553  0  3.795573  0  0  0.265726  0  4.046093  0  0  0.273518  0  4.067565  0  0  0.102128  0.260272  0  4.031478  0
C  C49  1  0.00135635  0.83531189  0.48404676  1  0  0.271643  0  3.795491  0  0  0.26582  0  4.046015  0  0  0.273611  0  4.067487  0  0  0.102155  0.260365  0  4.031401  0
C  C50  1  0.04530568  0.34175557  0.02719066  1  0  0.719648  0  3.873117  0  0  0.650374  0  4.179043  0  0  0.684891  0  4.174917  0  0  0.330229  0.627135  0  4.180954  0
C  C51  1  0.18543319  0.98188415  0.52719063  1  0  0.719736  0  3.873026  0  0  0.650487  0  4.178918  0  0  0.685004  0  4.174789  0  0  0.33029  0.627248  0  4.180832  0
C  C52  1  0.03569469  0.49056133  0.89263536  1  0  -0.1886  0  3.663356  0  0  -0.218058  0  3.907777  0  0  -0.222103  0  3.925839  0  0  -0.08645  -0.215131  0  3.895561  0
C  C53  1  0.90207166  0.85694002  0.39263440  1  0  -0.188548  0  3.663306  0  0  -0.218025  0  3.907695  0  0  -0.222072  0  3.925754  0  0  -0.086415  -0.215095  0  3.895485  0
C  C54  1  0.99463889  0.22116852  0.12087211  1  0  0.274107  0  3.800534  0  0  0.268708  0  4.050013  0  0  0.276681  0  4.07133  0  0  0.104277  0.263102  0  4.035624  0
C  C55  1  0.39970321  0.12623157  0.62086922  1  0  0.274125  0  3.800601  0  0  0.268765  0  4.050036  0  0  0.276737  0  4.071351  0  0  0.104295  0.263157  0  4.035645  0
C  C56  1  0.95953622  0.24215361  0.56831136  1  0  -0.176781  0  3.63503  0  0  -0.20676  0  3.880985  0  0  -0.21055  0  3.898468  0  0  -0.081576  -0.204077  0  3.869247  0
C  C57  1  0.82615716  0.60877479  0.06830931  1  0  -0.176742  0  3.634984  0  0  -0.20672  0  3.880909  0  0  -0.210507  0  3.898392  0  0  -0.08156  -0.204034  0  3.869165  0
C  C58  1  0.86645012  0.21552148  0.06944195  1  0  -0.19233  0  3.669871  0  0  -0.220826  0  3.912451  0  0  -0.225809  0  3.933213  0  0  -0.088112  -0.217292  0  3.898411  0
C  C59  1  0.35392002  0.20298761  0.56943848  1  0  -0.192327  0  3.669778  0  0  -0.220806  0  3.912442  0  0  -0.225784  0  3.9332  0  0  -0.088098  -0.217269  0  3.898399  0
C  C60  1  0.87096118  0.27792991  0.48503946  1  0  0.273827  0  3.80792  0  0  0.268033  0  4.059064  0  0  0.275779  0  4.080724  0  0  0.106984  0.262573  0  4.044421  0
C  C61  1  0.70710856  0.61407782  0.98503682  1  0  0.273755  0  3.807936  0  0  0.268035  0  4.059019  0  0  0.275778  0  4.080682  0  0  0.10699  0.262576  0  4.044376  0
C  C62  1  0.09299341  0.30584212  0.63768621  1  0  0.029737  0  3.90684  0  0  0.050321  0  4.142582  0  0  0.048225  0  4.164467  0  0  0.000848  0.05173  0  4.127821  0
C  C63  1  0.83184545  0.54469411  0.13768585  1  0  0.029705  0  3.906802  0  0  0.050272  0  4.142557  0  0  0.048177  0  4.164441  0  0  0.000813  0.051678  0  4.127799  0
C  C64  1  0.04363908  0.16383926  0.19843229  1  0  -0.146204  0  3.664782  0  0  -0.166323  0  3.914766  0  0  -0.169693  0  3.934236  0  0  -0.082082  -0.163953  0  3.901649  0
C  C65  1  0.53459394  0.15479265  0.69843044  1  0  -0.146228  0  3.664751  0  0  -0.166357  0  3.914721  0  0  -0.169726  0  3.93419  0  0  -0.082102  -0.163987  0  3.901603  0
C  C66  1  0.05102819  0.43583945  0.53909146  1  0  -0.04943  0  3.785903  0  0  -0.063497  0  4.043871  0  0  -0.06503  0  4.064683  0  0  -0.086818  -0.062402  0  4.029727  0
C  C67  1  0.60325175  0.48806284  0.03908919  1  0  -0.04941  0  3.785982  0  0  -0.06349  0  4.043943  0  0  -0.065023  0  4.064754  0  0  -0.086803  -0.062394  0  4.029797  0
C  C68  1  0.18175466  0.27246583  0.72647195  1  0  0.338801  0  3.705536  0  0  0.321444  0  3.965521  0  0  0.334981  0  3.98221  0  0  0.223078  0.312082  0  3.954507  0
C  C69  1  0.95400520  0.54471692  0.22647133  1  0  0.338782  0  3.70557  0  0  0.321432  0  3.965552  0  0  0.334969  0  3.982243  0  0  0.22309  0.312073  0  3.954539  0
C  C70  1  0.79073123  0.15270748  0.09521463  1  0  0.022671  0  3.91809  0  0  0.044896  0  4.152812  0  0  0.04276  0  4.174267  0  0  -0.004268  0.046329  0  4.13831  0
C  C71  1  0.44250720  0.30448054  0.59521035  1  0  0.022709  0  3.918013  0  0  0.044807  0  4.152947  0  0  0.042669  0  4.174403  0  0  -0.004247  0.046238  0  4.138444  0
C  C72  1  0.27792592  0.64971684  0.99258181  1  0  -0.06204  0  3.806986  0  0  -0.076436  0  4.064354  0  0  -0.078431  0  4.087205  0  0  -0.092985  -0.075042  0  4.048736  0
C  C73  1  0.84286175  0.71465665  0.49257971  1  0  -0.062105  0  3.807042  0  0  -0.076516  0  4.064417  0  0  -0.078515  0  4.08727  0  0  -0.093048  -0.075121  0  4.048797  0
C  C74  1  0.04565743  0.57859108  0.85344130  1  0  0.042273  0  3.914462  0  0  0.063628  0  4.146561  0  0  0.062342  0  4.168825  0  0  0.001518  0.064432  0  4.131476  0
C  C75  1  0.77484576  0.80778191  0.35343650  1  0  0.042216  0  3.914475  0  0  0.063609  0  4.146523  0  0  0.062325  0  4.168791  0  0  0.00151  0.064415  0  4.131436  0
C  C76  1  0.92822329  0.57959839  0.75633727  1  0  0.285678  0  3.738832  0  0  0.27176  0  4.008157  0  0  0.283453  0  4.025029  0  0  0.195508  0.263842  0  3.996818  0
C  C77  1  0.67673561  0.82811436  0.25633392  1  0  0.285738  0  3.738767  0  0  0.271808  0  4.008079  0  0  0.283503  0  4.024953  0  0  0.195555  0.263891  0  3.996741  0
C  C78  1  0.91887307  0.37482609  0.47084633  1  0  -0.146538  0  3.701528  0  0  -0.168938  0  3.952841  0  0  -0.172533  0  3.973489  0  0  -0.084672  -0.166355  0  3.938832  0
C  C79  1  0.59601929  0.55197418  0.97084489  1  0  -0.146593  0  3.701511  0  0  -0.169014  0  3.952833  0  0  -0.17261  0  3.973483  0  0  -0.084686  -0.166439  0  3.93882  0
C  C80  1  0.26980465  0.56210746  0.03159518  1  0  -0.156158  0  3.695808  0  0  -0.177529  0  3.94645  0  0  -0.181487  0  3.966847  0  0  -0.089557  -0.174652  0  3.932553  0
C  C81  1  0.96948675  0.76179132  0.53159492  1  0  -0.156215  0  3.695852  0  0  -0.177601  0  3.946489  0  0  -0.181558  0  3.96689  0  0  -0.089567  -0.174724  0  3.932594  0
C  C82  1  0.14029661  0.40290688  0.62433174  1  0  -0.102028  0  3.728399  0  0  -0.128113  0  3.978538  0  0  -0.130186  0  4.0  0  0  -0.083966  -0.126575  0  3.963896  0
C  C83  1  0.72142484  0.48403511  0.12432998  1  0  -0.102023  0  3.72843  0  0  -0.128104  0  3.978581  0  0  -0.130174  0  4.000037  0  0  -0.083969  -0.126564  0  3.963935  0
C  C84  1  0.96669404  0.10043760  0.22145207  1  0  -0.040369  0  3.749311  0  0  -0.055493  0  4.006089  0  0  -0.056547  0  4.026576  0  0  -0.084693  -0.05477  0  3.992189  0
C  C85  1  0.62101439  0.25475719  0.72145051  1  0  -0.040358  0  3.749212  0  0  -0.055458  0  4.005971  0  0  -0.056513  0  4.026459  0  0  -0.084672  -0.054735  0  3.992067  0
C  C86  1  0.16632933  0.65993393  0.90379716  1  0  -0.106649  0  3.737801  0  0  -0.132078  0  3.98678  0  0  -0.134539  0  4.008132  0  0  -0.087376  -0.130256  0  3.972202  0
C  C87  1  0.74385948  0.73746886  0.40379523  1  0  -0.106517  0  3.737811  0  0  -0.131986  0  3.986783  0  0  -0.134444  0  4.008135  0  0  -0.087313  -0.130164  0  3.972199  0
C  C88  1  0.66820887  0.13407346  0.42003255  1  0  0.727634  0  3.862217  0  0  0.657681  0  4.169453  0  0  0.692287  0  4.165188  0  0  0.333487  0.634364  0  4.17148  0
C  C89  1  0.78595947  0.75182450  0.92003300  1  0  0.727604  0  3.862148  0  0  0.657661  0  4.169411  0  0  0.692267  0  4.165144  0  0  0.333478  0.634344  0  4.171441  0
C  C90  1  0.66431823  0.15701253  0.04551690  1  0  0.323807  0  3.704057  0  0  0.307131  0  3.961529  0  0  0.320756  0  3.977242  0  0  0.219334  0.297713  0  3.951195  0
C  C91  1  0.38850450  0.38119406  0.54551380  1  0  0.323771  0  3.70408  0  0  0.307131  0  3.961607  0  0  0.320758  0  3.977317  0  0  0.219266  0.297713  0  3.951274  0
C  C92  1  0.83874307  0.09323778  0.16989526  1  0  -0.098752  0  3.714317  0  0  -0.12708  0  3.968869  0  0  -0.128691  0  3.988428  0  0  -0.086975  -0.125888  0  3.955578  0
C  C93  1  0.57665641  0.33115129  0.66989146  1  0  -0.098806  0  3.714248  0  0  -0.127094  0  3.968829  0  0  -0.128703  0  3.988388  0  0  -0.087006  -0.125902  0  3.955533  0
C  C94  1  0.45142696  0.93189415  0.35743419  1  0  -0.186651  0  3.657559  0  0  -0.217411  0  3.904064  0  0  -0.221719  0  3.923326  0  0  -0.085038  -0.214368  0  3.891098  0
C  C95  1  0.92554141  0.90600828  0.85743594  1  0  -0.186703  0  3.65765  0  0  -0.217472  0  3.904143  0  0  -0.221778  0  3.923403  0  0  -0.085039  -0.214428  0  3.891178  0
C  C96  1  0.20242942  0.93169100  0.20174364  1  0  -0.04389  0  3.771677  0  0  -0.059235  0  4.030602  0  0  -0.060235  0  4.051133  0  0  -0.086724  -0.058517  0  4.016553  0
C  C97  1  0.77005249  0.99931409  0.70174381  1  0  -0.043848  0  3.771667  0  0  -0.059174  0  4.030575  0  0  -0.060168  0  4.051102  0  0  -0.086705  -0.058455  0  4.016524  0
C  C98  1  0.31000273  0.01458089  0.23225581  1  0  -0.157052  0  3.676837  0  0  -0.177879  0  3.924452  0  0  -0.181951  0  3.943998  0  0  -0.088305  -0.174903  0  3.91126  0
C  C99  1  0.71767607  0.92225283  0.73225615  1  0  -0.156997  0  3.676858  0  0  -0.17782  0  3.924455  0  0  -0.181894  0  3.944001  0  0  -0.088259  -0.174845  0  3.911264  0
C  C100  1  0.43569943  0.01643863  0.31086215  1  0  0.286961  0  3.786601  0  0  0.283687  0  4.031001  0  0  0.291899  0  4.052407  0  0  0.109063  0.27794  0  4.016471  0
C  C101  1  0.79442343  0.87516153  0.81086142  1  0  0.286967  0  3.786574  0  0  0.283702  0  4.030958  0  0  0.291915  0  4.052362  0  0  0.109056  0.277955  0  4.01643  0
C  C102  1  0.35359358  0.76062604  0.36881464  1  0  0.326079  0  3.71165  0  0  0.311886  0  3.968764  0  0  0.325342  0  3.984947  0  0  0.213718  0.302658  0  3.958014  0
C  C103  1  0.10819045  0.01522271  0.86881881  1  0  0.326153  0  3.711658  0  0  0.311963  0  3.968769  0  0  0.325421  0  3.984951  0  0  0.213724  0.302731  0  3.95802  0
C  C104  1  0.34114910  0.84846688  0.32474577  1  0  0.019162  0  3.92187  0  0  0.041462  0  4.155935  0  0  0.038944  0  4.178437  0  0  -0.004917  0.043159  0  4.140663  0
C  C105  1  0.97628029  0.98359873  0.82475001  1  0  0.019179  0  3.921897  0  0  0.041473  0  4.155975  0  0  0.038954  0  4.178479  0  0  -0.004904  0.043171  0  4.140701  0
C  C106  1  0.21616009  0.84742293  0.24739362  1  0  -0.083414  0  3.700198  0  0  -0.113121  0  3.956096  0  0  -0.114462  0  3.975679  0  0  -0.082005  -0.112084  0  3.942805  0
C  C107  1  0.89997105  0.03123302  0.74739517  1  0  -0.08341  0  3.700136  0  0  -0.113118  0  3.956045  0  0  -0.114456  0  3.97562  0  0  -0.082019  -0.11208  0  3.942755  0
C  C108  1  0.54272827  0.49863413  0.41480082  1  0  -0.496234  0  3.587839  0  0  -0.569341  0  3.829574  0  0  -0.575862  0  3.829821  0  0  -0.24083  -0.564625  0  3.829319  0
C  C109  1  0.41617030  0.87207670  0.91480542  1  0  -0.496194  0  3.587829  0  0  -0.569278  0  3.829554  0  0  -0.575785  0  3.829775  0  0  -0.240825  -0.564561  0  3.8293  0
S  S110  1  0.44586043  0.35295758  0.25094425  1  0  1.382003  0  5.600071  0  0  1.293646  0  6.122316  0  0  1.338856  0  6.09911  0  0  0.49693  1.2624  0  6.137377  0
S  S111  1  0.39798825  0.80508580  0.75094679  1  0  1.382114  0  5.599926  0  0  1.293757  0  6.122163  0  0  1.338963  0  6.098964  0  0  0.496963  1.26251  0  6.137229  0
N  N112  1  0.14825320  0.39931632  0.03043215  1  0  -0.50176  0  3.302683  0  0  -0.445097  0  3.544736  0  0  -0.467942  0  3.551722  0  0  -0.406957  -0.429252  0  3.539488  0
N  N113  1  0.13111431  0.88217778  0.53043120  1  0  -0.501888  0  3.302598  0  0  -0.445249  0  3.544658  0  0  -0.468093  0  3.551636  0  0  -0.407038  -0.429404  0  3.539413  0
N  N114  1  0.07724520  0.28216358  0.10136768  1  0  -0.519634  0  3.347211  0  0  -0.465735  0  3.598888  0  0  -0.488233  0  3.604207  0  0  -0.408567  -0.450192  0  3.594916  0
N  N115  1  0.31920384  0.02412098  0.60136784  1  0  -0.519572  0  3.347178  0  0  -0.465687  0  3.598845  0  0  -0.488182  0  3.604163  0  0  -0.408539  -0.450143  0  3.594873  0
N  N116  1  0.83035381  0.57618184  0.67410882  1  0  -0.416434  0  2.59966  0  0  -0.390818  0  2.826618  0  0  -0.402138  0  2.83813  0  0  -0.310337  -0.383279  0  2.818936  0
N  N117  1  0.59792332  0.84375582  0.17410475  1  0  -0.416508  0  2.599583  0  0  -0.390886  0  2.826532  0  0  -0.402208  0  2.838045  0  0  -0.310402  -0.383347  0  2.818851  0
N  N118  1  0.25506241  0.24722482  0.80162703  1  0  -0.43762  0  2.943905  0  0  -0.387714  0  3.251769  0  0  -0.402406  0  3.254976  0  0  -0.346529  -0.378185  0  3.249923  0
N  N119  1  0.05440339  0.54656655  0.30162839  1  0  -0.437609  0  2.943892  0  0  -0.387704  0  3.251748  0  0  -0.402396  0  3.254956  0  0  -0.346544  -0.378177  0  3.249904  0
N  N120  1  0.73714040  0.22284020  0.41345945  1  0  -0.503344  0  3.30769  0  0  -0.446946  0  3.549475  0  0  -0.469581  0  3.556581  0  0  -0.407479  -0.431248  0  3.544126  0
N  N121  1  0.69061892  0.67631935  0.91345765  1  0  -0.503231  0  3.307715  0  0  -0.446925  0  3.549558  0  0  -0.469559  0  3.556665  0  0  -0.407476  -0.431226  0  3.544207  0
N  N122  1  0.53647354  0.10287504  0.33514025  1  0  -0.49878  0  3.32732  0  0  -0.440881  0  3.565164  0  0  -0.464486  0  3.573481  0  0  -0.405963  -0.424536  0  3.558974  0
N  N123  1  0.73226408  0.79866658  0.83514043  1  0  -0.49879  0  3.327324  0  0  -0.440915  0  3.565132  0  0  -0.464525  0  3.57345  0  0  -0.405979  -0.424572  0  3.558942  0
N  N124  1  0.35775803  0.68604720  0.40183299  1  0  -0.450866  0  2.829497  0  0  -0.407177  0  3.113386  0  0  -0.420252  0  3.115959  0  0  -0.336936  -0.398698  0  3.112017  0
N  N125  1  0.21578634  0.04407737  0.90183401  1  0  -0.450942  0  2.82954  0  0  -0.407255  0  3.113434  0  0  -0.420332  0  3.116009  0  0  -0.336964  -0.398776  0  3.112067  0
N  N126  1  0.56334177  0.16715306  0.00427028  1  0  -0.423253  0  3.002296  0  0  -0.372418  0  3.320869  0  0  -0.38664  0  3.323058  0  0  -0.347042  -0.363221  0  3.319698  0
N  N127  1  0.33711711  0.44092691  0.50427000  1  0  -0.423242  0  3.002237  0  0  -0.3724  0  3.320791  0  0  -0.386621  0  3.322978  0  0  -0.347005  -0.363204  0  3.319621  0
O  O128  1  0.93582750  0.34500417  0.96509862  1  0  -0.593129  0  1.969348  0  0  -0.540929  0  2.188556  0  0  -0.563189  0  2.182857  0  0  -0.294527  -0.52546  0  2.191943  0
O  O129  1  0.12009444  0.02927277  0.46510226  1  0  -0.593187  0  1.969363  0  0  -0.541001  0  2.188559  0  0  -0.563267  0  2.182872  0  0  -0.29458  -0.525532  0  2.191946  0
O  O130  1  0.71896669  0.08965260  0.49271182  1  0  -0.590686  0  1.942318  0  0  -0.539515  0  2.16318  0  0  -0.561533  0  2.157159  0  0  -0.294165  -0.524281  0  2.1669  0
O  O131  1  0.90305904  0.77374617  0.99271103  1  0  -0.590697  0  1.942318  0  0  -0.539521  0  2.163184  0  0  -0.561536  0  2.15716  0  0  -0.294177  -0.524289  0  2.166908  0
O  O132  1  0.33394179  0.29024827  0.24320650  1  0  -0.695072  0  1.983046  0  0  -0.642734  0  2.237386  0  0  -0.663433  0  2.2239  0  0  -0.348856  -0.628102  0  2.246213  0
O  O133  1  0.45295893  0.90926592  0.74320810  1  0  -0.695088  0  1.982985  0  0  -0.642774  0  2.237366  0  0  -0.663462  0  2.223865  0  0  -0.348877  -0.628139  0  2.246194  0
O  O134  1  0.40600222  0.38669355  0.14360091  1  0  -0.707386  0  1.97466  0  0  -0.64681  0  2.23343  0  0  -0.668067  0  2.217518  0  0  -0.353601  -0.631771  0  2.243821  0
O  O135  1  0.25690768  0.73759846  0.64360323  1  0  -0.707437  0  1.974622  0  0  -0.64686  0  2.233389  0  0  -0.668121  0  2.217463  0  0  -0.353607  -0.631823  0  2.243782  0
O  O136  1  0.52971785  0.27728984  0.24578023  1  0  -0.703463  0  1.986242  0  0  -0.647457  0  2.232875  0  0  -0.6679  0  2.218612  0  0  -0.350801  -0.632996  0  2.242192  0
O  O137  1  0.46849095  0.71606316  0.74578162  1  0  -0.70348  0  1.986258  0  0  -0.647483  0  2.232894  0  0  -0.667927  0  2.218628  0  0  -0.350783  -0.633021  0  2.242213  0
