# generated using pymatgen
data_CuH14C16S(N3O2)2
_symmetry_space_group_name_H-M   'P 1'
_cell_length_a   9.14315745
_cell_length_b   10.06512785
_cell_length_c   10.21513028
_cell_angle_alpha   85.64189674
_cell_angle_beta   83.71775162
_cell_angle_gamma   70.57780978
_symmetry_Int_Tables_number   1
_chemical_formula_structural   CuH14C16S(N3O2)2
_chemical_formula_sum   'Cu2 H28 C32 S2 N12 O8'
_cell_volume   880.46201215
_cell_formula_units_Z   2
loop_
 _symmetry_equiv_pos_site_id
 _symmetry_equiv_pos_as_xyz
  1  'x, y, z'
loop_
 _atom_site_type_symbol
 _atom_site_label
 _atom_site_symmetry_multiplicity
 _atom_site_fract_x
 _atom_site_fract_y
 _atom_site_fract_z
 _atom_site_occupancy
 _atom_site_hle17_ddec_charge
 _atom_site_hle17_ddec_spin_density
 _atom_site_hle17_ddec_sum_bond_order
 _atom_site_hle17_magmom
 _atom_site_hse06_10hf_ddec_charge
 _atom_site_hse06_10hf_ddec_spin_density
 _atom_site_hse06_10hf_ddec_sum_bond_order
 _atom_site_hse06_10hf_magmom
 _atom_site_hse06_ddec_charge
 _atom_site_hse06_ddec_spin_density
 _atom_site_hse06_ddec_sum_bond_order
 _atom_site_hse06_magmom
 _atom_site_pbe_cm5_charge
 _atom_site_pbe_ddec_charge
 _atom_site_pbe_ddec_spin_density
 _atom_site_pbe_ddec_sum_bond_order
 _atom_site_pbe_magmom
Cu  Cu0  1  0.83020996  0.05061422  0.58974722  1  0.864802  0.726998  1.861467  0.516  0.847628  0.810349  2.241397  0.631  0.928996  0.882051  2.182422  0.713  0.785464  0.795727  0.753699  2.283  0.573
Cu  Cu1  1  0.16978695  0.94938787  0.41025490  1  0.864773  -0.726978  1.861433  -0.516  0.847576  -0.81035  2.241412  -0.631  0.929004  -0.882064  2.182485  -0.713  0.785436  0.795641  -0.753695  2.283105  -0.573
H  H2  1  0.81022848  0.53567203  0.78041118  1  0.131127  1.5e-05  0.939719  0.0  0.14456  7e-06  0.996085  0.0  0.147623  5e-06  0.994567  0.0  0.118878  0.142187  2.8e-05  0.997127  0.0
H  H3  1  0.18976870  0.46432584  0.21958735  1  0.13113  -1.7e-05  0.939688  0.0  0.144562  -6e-06  0.996055  0.0  0.147624  -5e-06  0.994537  0.0  0.118868  0.142189  -2.8e-05  0.997097  0.0
H  H4  1  0.79848136  0.72959207  0.14759382  1  0.139629  5.6e-05  0.99184  0.0  0.147007  6.3e-05  1.055884  0.0  0.151349  4e-05  1.053067  0.0  0.110687  0.143744  5.7e-05  1.057938  0.0
H  H5  1  0.20152015  0.27040893  0.85240195  1  0.139632  -5.8e-05  0.991938  0.0  0.147013  -6.4e-05  1.055981  0.0  0.151357  -4e-05  1.05316  0.0  0.110689  0.143746  -5.7e-05  1.058036  0.0
H  H6  1  0.67113092  0.35365803  0.14891335  1  0.1087  4.1e-05  0.982018  0.0  0.116756  3.3e-05  1.04903  0.0  0.119762  2.5e-05  1.048247  0.0  0.107064  0.114767  4.1e-05  1.049419  0.0
H  H7  1  0.32887115  0.64634193  0.85108832  1  0.108719  -4e-05  0.981958  0.0  0.116732  -3.4e-05  1.049039  0.0  0.119737  -2.5e-05  1.048258  0.0  0.107049  0.114748  -4.1e-05  1.049412  0.0
H  H8  1  0.86878319  0.31207504  0.71580323  1  0.115342  0.000109  0.999174  0.001  0.118325  7e-05  1.070332  0.0  0.122313  4.4e-05  1.065436  0.0  0.134759  0.115398  8.3e-05  1.07329  0.0
H  H9  1  0.13121188  0.68792600  0.28419921  1  0.115285  -0.000108  0.999161  -0.001  0.11828  -7e-05  1.070307  0.0  0.122279  -4.4e-05  1.065412  0.0  0.134721  0.115353  -8.3e-05  1.073271  0.0
H  H10  1  0.55560946  0.08757125  0.83735385  1  0.11998  8.9e-05  0.918902  0.0  0.133068  0.000263  0.968953  0.0  0.135415  0.000176  0.967722  0.0  0.130248  0.131393  0.000355  0.969573  0.001
H  H11  1  0.44439200  0.91242451  0.16265119  1  0.120008  -8.8e-05  0.91886  0.0  0.133094  -0.000263  0.968916  0.0  0.135441  -0.000176  0.967685  0.0  0.130268  0.13142  -0.000356  0.969537  -0.001
H  H12  1  0.52986194  0.27888564  0.02745325  1  0.113279  0.00053  0.964309  0.001  0.123863  0.000477  1.02247  0.001  0.125953  0.000367  1.022397  0.0  0.123193  0.122323  0.000579  1.022669  0.001
H  H13  1  0.47014107  0.72110590  0.97255392  1  0.113213  -0.00053  0.964387  -0.001  0.123848  -0.000477  1.022486  -0.001  0.125933  -0.000366  1.022419  0.0  0.123164  0.122307  -0.000579  1.022688  -0.001
H  H14  1  0.75584582  0.77281905  0.70059004  1  0.114734  0.000122  0.944071  0.0  0.12324  0.000162  1.006232  0.0  0.126164  0.000116  1.00232  0.0  0.140176  0.120323  0.000195  1.010127  0.0
H  H15  1  0.24416634  0.22717348  0.29940318  1  0.114743  -0.000112  0.944048  0.0  0.123222  -0.000161  1.006248  0.0  0.126148  -0.000116  1.002328  0.0  0.140119  0.120286  -0.000195  1.010166  0.0
H  H16  1  0.04576777  0.97920298  0.82600175  1  0.129135  0.000163  0.962826  0.0  0.134825  0.000269  1.026177  0.001  0.138011  0.000192  1.024207  0.0  0.120044  0.13215  0.000333  1.02801  0.001
H  H17  1  0.95423045  0.02079595  0.17400636  1  0.12911  -0.000164  0.962836  0.0  0.134765  -0.000269  1.026242  -0.001  0.137953  -0.000191  1.024271  0.0  0.120022  0.132094  -0.000333  1.028076  -0.001
H  H18  1  0.99223832  0.79492066  0.03125518  1  0.123317  0.000447  0.960715  0.001  0.131444  0.000373  1.022959  0.0  0.134127  0.000274  1.021506  0.0  0.125329  0.129255  0.000402  1.024273  0.0
H  H19  1  0.00775348  0.20508041  0.96874864  1  0.123364  -0.000448  0.960671  -0.001  0.131463  -0.000373  1.022936  0.0  0.134145  -0.000274  1.021486  0.0  0.125331  0.129275  -0.000402  1.024248  0.0
H  H20  1  0.59170586  0.63951067  0.33592018  1  0.098794  0.000426  0.918735  0.001  0.111833  0.000273  0.982881  0.0  0.112164  0.000196  0.983861  0.0  0.116382  0.11198  0.000274  0.981437  0.0
H  H21  1  0.40829982  0.36048822  0.66407918  1  0.098758  -0.000434  0.918676  -0.001  0.111762  -0.000274  0.982877  0.0  0.112096  -0.000196  0.983846  0.0  0.116346  0.11191  -0.000274  0.981433  0.0
H  H22  1  0.79228506  0.57022695  0.35508923  1  0.121271  9.2e-05  0.942438  0.0  0.135764  9.6e-05  0.999671  0.0  0.137936  4.6e-05  0.998096  0.0  0.121573  0.133633  0.00019  1.00147  0.0
H  H23  1  0.20771990  0.42977088  0.64491031  1  0.121292  -0.000102  0.942416  0.0  0.135778  -9.6e-05  0.999653  0.0  0.137946  -4.6e-05  0.99808  0.0  0.121581  0.133648  -0.00019  1.001452  0.0
H  H24  1  0.89971966  0.32028808  0.44957300  1  0.116608  0.000288  0.958148  0.001  0.121895  0.000235  1.025317  0.0  0.125128  0.000187  1.021178  0.0  0.136112  0.119243  0.000276  1.028331  0.0
H  H25  1  0.10027739  0.67971085  0.55043330  1  0.116612  -0.000285  0.958165  -0.001  0.121883  -0.000235  1.025351  0.0  0.125109  -0.000187  1.021217  0.0  0.136116  0.119229  -0.000276  1.028365  0.0
H  H26  1  0.51034867  0.18026604  0.45502711  1  0.141369  0.000184  0.977094  0.001  0.149045  0.000272  1.037121  0.001  0.151939  0.00017  1.034465  0.001  0.122073  0.146655  0.000326  1.039094  0.001
H  H27  1  0.48965001  0.81973602  0.54496109  1  0.14137  -0.00018  0.977112  -0.001  0.149105  -0.000272  1.037072  -0.001  0.151967  -0.000171  1.034462  -0.001  0.122115  0.146753  -0.000326  1.038998  -0.001
H  H28  1  0.43866076  0.45108175  0.33642214  1  0.10818  0.00055  0.959473  0.001  0.118565  0.000458  1.020616  0.001  0.120715  0.000352  1.020202  0.0  0.117802  0.117031  0.000572  1.020728  0.001
H  H29  1  0.56134378  0.54891923  0.66356445  1  0.108195  -0.000554  0.95952  -0.001  0.11858  -0.000458  1.020647  -0.001  0.120731  -0.000351  1.020232  0.0  0.117813  0.117031  -0.000572  1.020776  -0.001
C  C30  1  0.73108064  0.43753940  0.95818524  1  0.197763  0.001096  3.8259  0.001  0.191128  0.000734  4.08204  0.001  0.197987  0.000644  4.103988  0.001  0.094346  0.186438  0.000817  4.066793  0.001
C  C31  1  0.26891887  0.56245847  0.04181692  1  0.197783  -0.001157  3.825912  -0.001  0.191105  -0.00073  4.082083  -0.001  0.197962  -0.000646  4.104034  -0.001  0.094318  0.186381  -0.000817  4.066881  -0.001
C  C32  1  0.78475282  0.53884500  0.88706793  1  -0.251622  -0.000781  3.706012  -0.001  -0.285887  -0.000348  3.969353  0.0  -0.292266  -0.00037  3.989095  0.0  -0.095853  -0.280689  -0.000379  3.954639  0.0
C  C33  1  0.21524810  0.46115180  0.11293219  1  -0.251564  0.00085  3.705882  0.001  -0.285831  0.000344  3.969197  0.0  -0.292209  0.000373  3.988939  0.0  -0.095825  -0.280624  0.000379  3.954493  0.0
C  C34  1  0.81022353  0.64218896  0.95723783  1  0.207393  0.001152  3.800002  0.001  0.200181  0.000736  4.05145  0.001  0.207094  0.000632  4.073883  0.001  0.098358  0.195663  0.000796  4.035957  0.001
C  C35  1  0.18977469  0.35780890  0.04275862  1  0.207264  -0.001219  3.800007  -0.001  0.200125  -0.000731  4.051365  -0.001  0.207035  -0.000636  4.073804  -0.001  0.098351  0.195607  -0.000796  4.035869  -0.001
C  C36  1  0.78348518  0.64514499  0.09428891  1  -0.205027  -0.000478  3.657922  0.0  -0.235285  -0.00017  3.906145  0.0  -0.24118  -0.000227  3.926  0.0  -0.091627  -0.232304  5.6e-05  3.893219  0.0
C  C37  1  0.21651600  0.35485391  0.90570806  1  -0.205015  0.000557  3.658057  0.0  -0.235286  0.000166  3.906261  0.0  -0.241191  0.00023  3.926111  0.0  -0.091639  -0.232299  -5.6e-05  3.893333  0.0
C  C38  1  0.73116852  0.54171825  0.16362575  1  0.122663  0.00043  3.741281  0.0  0.144166  0.00023  3.982156  0.0  0.146227  0.000206  4.005123  0.0  -0.000342  0.143359  0.000258  3.967149  0.0
C  C39  1  0.26883197  0.45827960  0.83637238  1  0.122614  -0.000509  3.741302  -0.001  0.144091  -0.000227  3.982208  0.0  0.146175  -0.000208  4.005143  0.0  -0.000344  0.143281  -0.000258  3.967204  0.0
C  C40  1  0.70666032  0.43720535  0.09550519  1  -0.217105  -0.000238  3.731902  0.0  -0.256334  2e-05  3.996982  0.0  -0.261274  -9.5e-05  4.016526  0.0  -0.100884  -0.253881  2.1e-05  3.984194  0.0
C  C41  1  0.29333878  0.56279357  0.90449596  1  -0.21707  0.0003  3.731819  0.0  -0.256258  -2.2e-05  3.996911  0.0  -0.261204  9.8e-05  4.01645  0.0  -0.100847  -0.253792  -2.1e-05  3.984139  0.0
C  C42  1  0.77621640  0.27965788  0.77197717  1  0.153039  -0.006397  3.596489  -0.006  0.096963  -0.001459  3.867544  -0.002  0.112325  -0.00232  3.87816  -0.003  0.139677  0.087182  -0.000702  3.859868  -0.001
C  C43  1  0.22378097  0.72034000  0.22802721  1  0.153138  0.006386  3.596557  0.006  0.097029  0.001459  3.867566  0.002  0.112377  0.002318  3.878192  0.003  0.139751  0.087246  0.000702  3.859888  0.001
C  C44  1  0.61759341  0.16201178  0.84138147  1  0.012449  0.000204  3.72369  0.0  -0.018397  0.001433  3.993398  0.001  -0.015319  0.000615  4.012824  0.0  0.007504  -0.020002  0.001982  3.980131  0.002
C  C45  1  0.38240355  0.83798716  0.15862189  1  0.012508  -0.000209  3.723521  0.0  -0.018356  -0.001436  3.993242  -0.001  -0.015277  -0.000614  4.012664  0.0  0.007511  -0.019961  -0.001982  3.979969  -0.002
C  C46  1  0.60417694  0.25540272  0.93639476  1  -0.051195  0.004082  3.664761  0.004  -0.087393  0.002269  3.914168  0.002  -0.08518  0.002063  3.932446  0.002  0.004765  -0.089299  0.002496  3.90266  0.003
C  C47  1  0.39582272  0.74459200  0.06361158  1  -0.051153  -0.004086  3.664751  -0.004  -0.087406  -0.002268  3.91416  -0.002  -0.085188  -0.002064  3.932436  -0.002  0.004798  -0.08931  -0.002496  3.90265  -0.003
C  C48  1  0.82898555  0.80166527  0.76241404  1  0.15163  -0.004313  3.624345  -0.004  0.097011  0.000113  3.8894  0.0  0.112557  -0.000746  3.900956  -0.001  0.143503  0.086357  0.000812  3.882824  0.001
C  C49  1  0.17102073  0.19833149  0.23758053  1  0.151646  0.004246  3.624417  0.004  0.097069  -0.000112  3.88945  0.0  0.112619  0.000747  3.901007  0.001  0.143551  0.086428  -0.000811  3.882882  -0.001
C  C50  1  0.97672161  0.90879871  0.83302216  1  0.006401  -0.00031  3.689871  -0.001  -0.023791  0.000851  3.955564  0.0  -0.02129  0.000158  3.975325  0.0  0.000823  -0.025314  0.001367  3.94298  0.001
C  C51  1  0.02327608  0.09120127  0.16698103  1  0.006438  0.000294  3.689851  0.001  -0.023717  -0.000853  3.955553  0.0  -0.021215  -0.000158  3.975318  0.0  0.000794  -0.025246  -0.001367  3.942974  -0.001
C  C52  1  0.95431898  0.81681773  0.93285906  1  -0.044911  0.003673  3.638031  0.004  -0.081412  0.001804  3.890067  0.002  -0.07895  0.001579  3.907428  0.002  0.00606  -0.082829  0.002009  3.878454  0.002
C  C53  1  0.04567864  0.18317909  0.06714147  1  -0.044991  -0.00364  3.638107  -0.004  -0.081464  -0.001806  3.890138  -0.002  -0.079  -0.001579  3.907497  -0.002  0.006048  -0.082877  -0.002009  3.878521  -0.002
C  C54  1  0.69721751  0.54957388  0.31161806  1  -0.06246  0.001075  3.634283  0.001  -0.124487  0.00076  3.872004  0.001  -0.121806  0.000518  3.883429  0.001  -0.045585  -0.126532  0.001138  3.864727  0.001
C  C55  1  0.30278739  0.45042396  0.68837952  1  -0.062388  -0.001038  3.634168  -0.001  -0.124366  -0.000761  3.871848  -0.001  -0.121685  -0.000518  3.883266  -0.001  -0.045566  -0.126413  -0.001138  3.864569  -0.001
C  C56  1  0.78689750  0.31529364  0.43087278  1  0.167647  -0.005035  3.601149  -0.005  0.110021  -0.000448  3.870333  -0.001  0.125672  -0.001385  3.882735  -0.002  0.142853  0.099611  9e-05  3.86263  0.0
C  C57  1  0.21309978  0.68470739  0.56912939  1  0.16765  0.005  3.601221  0.005  0.110045  0.000452  3.870406  0.001  0.125706  0.001382  3.882807  0.002  0.142857  0.099637  -9e-05  3.862697  0.0
C  C58  1  0.58198440  0.24766262  0.43258400  1  -0.003911  -0.00053  3.705119  -0.001  -0.034997  0.001155  3.972269  0.001  -0.030453  0.000341  3.990332  0.0  -0.000579  -0.038625  0.001722  3.962057  0.002
C  C59  1  0.41801751  0.75233733  0.56741279  1  -0.003874  0.000476  3.704965  0.001  -0.035007  -0.001154  3.972136  -0.001  -0.030439  -0.000342  3.990224  0.0  -0.000585  -0.038664  -0.001722  3.961903  -0.002
C  C60  1  0.54466003  0.38124441  0.37464173  1  -0.079743  0.005071  3.695176  0.005  -0.118662  0.002595  3.956836  0.003  -0.11785  0.002175  3.975705  0.002  -0.009308  -0.119055  0.00284  3.944348  0.003
C  C61  1  0.45534465  0.61875341  0.62534903  1  -0.079746  -0.005021  3.695088  -0.005  -0.118658  -0.002597  3.956762  -0.003  -0.117845  -0.002173  3.975621  -0.002  -0.009308  -0.119037  -0.00284  3.94429  -0.003
S  S62  1  0.83853811  0.83342749  0.39299926  1  1.524305  -0.002701  5.859945  -0.004  1.427337  0.001917  6.404614  -0.001  1.486284  0.001642  6.370004  0.0  0.531426  1.385639  0.001912  6.426285  -0.001
S  S63  1  0.16146203  0.16658090  0.60700095  1  1.524308  0.002711  5.860014  0.004  1.427349  -0.001914  6.404663  0.001  1.486289  -0.001617  6.370062  0.0  0.531458  1.385649  -0.001913  6.426331  0.001
N  N64  1  0.70457201  0.33003467  0.89139499  1  -0.096943  0.00194  3.597364  0.003  -0.006025  0.001777  3.804658  0.002  -0.021003  0.001299  3.829255  0.002  -0.22727  0.003678  0.001988  3.787857  0.003
N  N65  1  0.29542425  0.66996322  0.10860953  1  -0.097023  -0.001931  3.597405  -0.003  -0.006073  -0.001775  3.804714  -0.002  -0.02105  -0.001299  3.829312  -0.002  -0.22732  0.00364  -0.001988  3.78792  -0.003
N  N66  1  0.72507795  0.17820393  0.74063488  1  -0.345948  0.071407  3.340751  0.089  -0.305721  0.055811  3.655549  0.075  -0.334059  0.047369  3.674755  0.067  -0.363695  -0.287918  0.060055  3.642675  0.077
N  N67  1  0.27492049  0.82179395  0.25936839  1  -0.346011  -0.071407  3.340671  -0.089  -0.305717  -0.055812  3.655411  -0.075  -0.334065  -0.047366  3.67465  -0.067  -0.363691  -0.287906  -0.060056  3.642547  -0.077
N  N68  1  0.86202187  0.74801463  0.88697788  1  -0.092  0.002351  3.585237  0.003  -0.001418  0.002075  3.791349  0.003  -0.016381  0.001537  3.81585  0.002  -0.22476  0.008772  0.002461  3.774322  0.003
N  N69  1  0.13797748  0.25198323  0.11301941  1  -0.091936  -0.002339  3.585377  -0.003  -0.001381  -0.002072  3.791482  -0.003  -0.016344  -0.001537  3.815981  -0.002  -0.224743  0.008811  -0.002461  3.774451  -0.003
N  N70  1  0.89653079  0.89869692  0.72873402  1  -0.335127  0.065647  3.352426  0.081  -0.293438  0.047961  3.665214  0.063  -0.32212  0.040319  3.685714  0.055  -0.370105  -0.276113  0.051574  3.653273  0.065
N  N71  1  0.10347379  0.10130197  0.27126547  1  -0.335117  -0.065623  3.352313  -0.081  -0.293475  -0.047958  3.665131  -0.063  -0.322178  -0.040317  3.685671  -0.055  -0.370059  -0.276143  -0.051572  3.653203  -0.065
N  N72  1  0.67511326  0.42233570  0.37436442  1  -0.062298  0.002095  3.605843  0.003  0.030986  0.001678  3.823897  0.002  0.016634  0.001212  3.849773  0.002  -0.246448  0.040486  0.002077  3.806482  0.003
N  N73  1  0.32488721  0.57766531  0.62563344  1  -0.062369  -0.002098  3.605786  -0.003  0.030914  -0.001678  3.823842  -0.002  0.016561  -0.00121  3.849715  -0.002  -0.246457  0.040417  -0.002078  3.806419  -0.003
N  N74  1  0.73290747  0.20899219  0.46678380  1  -0.332149  0.076406  3.336257  0.095  -0.293221  0.053888  3.653403  0.071  -0.323727  0.044678  3.673293  0.062  -0.375481  -0.27554  0.057559  3.643211  0.073
N  N75  1  0.26709050  0.79100673  0.53321651  1  -0.332182  -0.07638  3.336263  -0.095  -0.29326  -0.05389  3.653439  -0.071  -0.323789  -0.044676  3.673358  -0.062  -0.375525  -0.275576  -0.05756  3.643268  -0.073
O  O76  1  0.93232919  0.91797394  0.44564202  1  -0.74135  0.101894  2.113962  0.132  -0.729581  0.057545  2.449828  0.08  -0.772868  0.042077  2.436223  0.061  -0.392239  -0.698657  0.070366  2.458761  0.095
O  O77  1  0.06767140  0.08203024  0.55436045  1  -0.741354  -0.101866  2.113871  -0.132  -0.729602  -0.057552  2.449756  -0.08  -0.772898  -0.042062  2.436162  -0.061  -0.392242  -0.69867  -0.070368  2.458691  -0.095
O  O78  1  0.69668016  0.85470940  0.48380068  1  -0.723476  0.006639  1.904655  0.009  -0.692911  9e-06  2.156756  0.001  -0.715435  -0.001048  2.13757  -0.001  -0.372179  -0.675128  0.002236  2.168239  0.004
O  O79  1  0.30330405  0.14532115  0.51618884  1  -0.723533  -0.006663  1.904906  -0.009  -0.692912  -3e-06  2.156967  -0.001  -0.715458  0.001022  2.137812  0.001  -0.372135  -0.675116  -0.002234  2.168444  -0.004
O  O80  1  0.94150693  0.68303171  0.39516365  1  -0.724123  0.015824  1.875737  0.02  -0.683516  0.007003  2.110867  0.01  -0.706867  0.003921  2.094474  0.006  -0.380458  -0.66531  0.010186  2.12079  0.014
O  O81  1  0.05847786  0.31697468  0.60485234  1  -0.724134  -0.01586  1.875777  -0.02  -0.683533  -0.007006  2.110901  -0.01  -0.706868  -0.003937  2.094504  -0.006  -0.380488  -0.665325  -0.010188  2.120824  -0.014
O  O82  1  0.80615569  0.88651410  0.25663219  1  -0.720136  0.007345  1.879708  0.009  -0.683098  0.003323  2.117168  0.005  -0.704304  0.001848  2.100357  0.003  -0.382262  -0.665762  0.00597  2.127229  0.008
O  O83  1  0.19386461  0.11348681  0.74336323  1  -0.720127  -0.007335  1.879699  -0.009  -0.683125  -0.003323  2.11718  -0.005  -0.704329  -0.001842  2.100364  -0.003  -0.382319  -0.665804  -0.00597  2.127265  -0.008
