# generated using pymatgen
data_Al6H25C75O29F3
_symmetry_space_group_name_H-M   'P 1'
_cell_length_a   12.44489850
_cell_length_b   12.50610194
_cell_length_c   28.76500542
_cell_angle_alpha   90.64656173
_cell_angle_beta   91.03093517
_cell_angle_gamma   61.69659012
_symmetry_Int_Tables_number   1
_chemical_formula_structural   Al6H25C75O29F3
_chemical_formula_sum   'Al6 H25 C75 O29 F3'
_cell_volume   3941.02894739
_cell_formula_units_Z   1
loop_
 _symmetry_equiv_pos_site_id
 _symmetry_equiv_pos_as_xyz
  1  'x, y, z'
loop_
 _atom_site_type_symbol
 _atom_site_label
 _atom_site_symmetry_multiplicity
 _atom_site_fract_x
 _atom_site_fract_y
 _atom_site_fract_z
 _atom_site_occupancy
 _atom_site_pbe_bader_charge
 _atom_site_pbe_bader_spin_density
 _atom_site_pbe_cm5_charge
 _atom_site_pbe_ddec_charge
 _atom_site_pbe_ddec_spin_density
 _atom_site_pbe_ddec_sum_bond_order
 _atom_site_pbe_magmom
Al  Al0  1  0.40896593  0.40411225  0.50193341  1  2.493277  0  0.400384  1.682694  0  2.558025  0
Al  Al1  1  0.41926210  0.65660366  0.50073905  1  2.48261  0  0.511901  1.658973  0  2.510054  0
Al  Al2  1  0.65692526  0.42529801  0.50097640  1  2.472422  0  0.512022  1.660304  0  2.508643  0
Al  Al3  1  0.93163693  0.92208696  0.00309506  1  2.492712  0  0.400642  1.682237  0  2.555834  0
Al  Al4  1  0.67767422  0.91250168  0.99961878  1  2.479064  0  0.510281  1.661757  0  2.509094  0
Al  Al5  1  0.91006720  0.67577810  0.99940794  1  2.482362  0  0.511238  1.662762  0  2.505229  0
H  H6  1  0.45990509  0.79025403  0.78026432  1  0.076169  0  0.10543  0.096955  0  0.987352  0
H  H7  1  0.71159538  0.32347152  0.28415077  1  0.090166  0  0.108669  0.113801  0  0.995217  0
H  H8  1  0.56339413  0.87936877  0.71440331  1  0.066534  0  0.105124  0.09659  0  0.991358  0
H  H9  1  0.71854299  0.28778265  0.19860979  1  0.082211  0  0.112614  0.117556  0  0.980905  0
H  H10  1  0.62751822  0.99915622  0.21945106  1  0.088891  0  0.106993  0.110624  0  1.003065  0
H  H11  1  0.62307084  0.03341959  0.30506062  1  0.107644  0  0.115161  0.121686  0  0.975341  0
H  H12  1  0.95656859  0.80094728  0.21483368  1  0.089256  0  0.109947  0.109467  0  1.004461  0
H  H13  1  0.33206204  0.52434722  0.20474885  1  0.086832  0  0.115149  0.117806  0  0.977423  0
H  H14  1  0.35333324  0.52457948  0.29062596  1  0.132957  0  0.112304  0.121393  0  0.99306  0
H  H15  1  0.54994236  0.56855522  0.72924564  1  0.076953  0  0.101232  0.092052  0  1.006948  0
H  H16  1  0.76714459  0.47222136  0.78284634  1  0.112115  0  0.101114  0.098626  0  1.011034  0
H  H17  1  0.63348646  0.02824784  0.69527473  1  0.07255  0  0.115757  0.122268  0  0.985508  0
H  H18  1  0.87193716  0.56132624  0.71717334  1  0.046849  0  0.106533  0.098835  0  0.985674  0
H  H19  1  0.78335872  0.78192238  0.76812563  1  0.057742  0  0.100508  0.088309  0  1.010844  0
H  H20  1  0.63743445  0.99659033  0.78110106  1  0.090338  0  0.111887  0.118256  0  0.998257  0
H  H21  1  0.86454099  0.87978161  0.28385199  1  0.045163  0  0.091008  0.016936  0  1.018001  0
H  H22  1  0.03926992  0.62305526  0.69598743  1  0.081633  0  0.111823  0.113971  0  0.990325  0
H  H23  1  0.00435424  0.62759706  0.78126722  1  0.077078  0  0.108051  0.109906  0  1.003124  0
H  H24  1  0.30159524  0.70673151  0.80755044  1  0.084086  0  0.111496  0.11389  0  0.988814  0
H  H25  1  0.33625726  0.70231873  0.72229338  1  0.064834  0  0.10722  0.108267  0  1.010382  0
H  H26  1  0.76154467  0.74949405  0.30542368  1  0.119146  0  0.114102  0.121218  0  0.999902  0
H  H27  1  0.78218023  0.76660855  0.22030577  1  0.054666  0  0.104906  0.103764  0  1.02672  0
H  H28  1  0.56104917  0.58939989  0.19385860  1  0.104953  0  0.122617  0.150425  0  0.970409  0
H  H29  1  0.29278136  0.31314301  0.47496003  1  0.582486  0  0.296255  0.387545  0  0.915822  0
H  H30  1  0.04484010  0.01441015  0.97699939  1  0.584716  0  0.296103  0.386843  0  0.916653  0
C  C31  1  0.28726293  0.61565153  0.56827762  1  1.694053  0  0.280897  0.708841  0  4.167062  0
C  C32  1  0.64865868  0.65556786  0.65228477  1  -0.461948  0  -0.00987  -0.008132  0  4.040026  0
C  C33  1  0.65675607  0.22906940  0.61238200  1  -0.105379  0  -0.015791  -0.155771  0  3.90548  0
C  C34  1  0.61266552  0.61805593  0.56411427  1  1.603186  0  0.286755  0.724703  0  4.146029  0
C  C35  1  0.69898207  0.24957924  0.73273628  1  0.52784  0  0.103865  0.129929  0  4.055089  0
C  C36  1  0.70057899  0.23253324  0.78041652  1  0.54593  0  0.103681  0.132994  0  4.058077  0
C  C37  1  0.65451723  0.06749053  0.76704781  1  0.007652  0  -0.080405  -0.120379  0  3.984268  0
C  C38  1  0.65255873  0.08478649  0.71952696  1  -0.013833  0  -0.077367  -0.114728  0  3.977269  0
C  C39  1  0.67432839  0.17694044  0.70124080  1  0.178797  0  0.000774  0.046084  0  4.143637  0
C  C40  1  0.67871740  0.14103272  0.79866933  1  0.144592  0  -0.000695  0.042631  0  4.144944  0
C  C41  1  0.68515284  0.12085583  0.84699144  1  -0.402879  0  -0.017334  -0.011986  0  4.087444  0
C  C42  1  0.63790151  0.64414834  0.61050504  1  0.235581  0  -0.04057  -0.208086  0  3.95261  0
C  C43  1  0.66739280  0.20154163  0.65327731  1  -0.156732  0  -0.017184  -0.016064  0  4.085795  0
C  C44  1  0.69459050  0.09783218  0.88832114  1  0.149662  0  -0.020483  -0.163917  0  3.910381  0
C  C45  1  0.23799716  0.64513179  0.61434680  1  0.100215  0  -0.027128  -0.175562  0  3.927774  0
C  C46  1  0.62501202  0.28301957  0.56686849  1  1.715633  0  0.283963  0.704026  0  4.170592  0
C  C47  1  0.09592557  0.64163316  0.72063804  1  -0.036953  0  -0.076413  -0.118451  0  3.955742  0
C  C48  1  0.07666960  0.64411220  0.76804855  1  -0.030266  0  -0.077196  -0.121367  0  3.96401  0
C  C49  1  0.24450231  0.68867321  0.78292345  1  0.032698  0  -0.077421  -0.118279  0  3.960572  0
C  C50  1  0.26375897  0.68617312  0.73551806  1  -0.088926  0  -0.078067  -0.122871  0  3.96321  0
C  C51  1  0.19003848  0.66241480  0.70362733  1  0.157193  0  0.007295  0.133545  0  4.103657  0
C  C52  1  0.15033454  0.66799777  0.79993611  1  0.052376  0  0.00409  0.126442  0  4.112289  0
C  C53  1  0.73100710  0.73471145  0.75903549  1  -0.00432  0  -0.066867  -0.076514  0  3.620285  0
C  C54  1  0.12690473  0.67448648  0.84805707  1  -0.49109  0  -0.01444  -0.021439  0  4.075888  0
C  C55  1  0.21356358  0.65555175  0.65550133  1  -0.377755  0  -0.015841  -0.026826  0  4.071831  0
C  C56  1  0.10253449  0.68356459  0.88922440  1  0.25063  0  -0.033913  -0.186884  0  3.937515  0
C  C57  1  0.62712986  0.63704824  0.38776018  1  0.170458  0  -0.018092  -0.170443  0  3.888482  0
C  C58  1  0.27464745  0.61611798  0.43642283  1  1.67803  0  0.281867  0.711331  0  4.16742  0
C  C59  1  0.71808962  0.71507198  0.28062079  1  -0.022999  0  -0.071162  -0.091339  0  3.94344  0
C  C60  1  0.72924048  0.72469841  0.23311187  1  0.022593  0  -0.084039  -0.142176  0  3.966598  0
C  C61  1  0.60584854  0.62471578  0.21759933  1  0.05774  0  -0.085594  -0.250864  0  3.93931  0
C  C62  1  0.59678357  0.61576742  0.26511511  1  0.458937  0  0.111751  0.255104  0  4.035945  0
C  C63  1  0.65109435  0.65991378  0.29814332  1  0.089424  0  -0.001076  0.018032  0  4.110571  0
C  C64  1  0.67290504  0.68468111  0.79643024  1  0.108686  0  0.008407  0.111612  0  3.784134  0
C  C65  1  0.67326861  0.67992249  0.20081562  1  0.113392  0  0.010354  0.155129  0  4.102464  0
C  C66  1  0.68543409  0.69020480  0.15232023  1  -0.275627  0  -0.001662  0.000718  0  4.021536  0
C  C67  1  0.63857117  0.64817737  0.34637829  1  -0.351785  0  -0.004661  0.011417  0  4.054924  0
C  C68  1  0.69769406  0.69987195  0.11086503  1  0.029021  0  -0.024834  -0.181692  0  3.897778  0
C  C69  1  0.65055137  0.23001532  0.38963830  1  -0.334517  0  -0.02752  -0.177595  0  3.922992  0
C  C70  1  0.60457002  0.61273515  0.43448012  1  1.655396  0  0.289723  0.722934  0  4.143107  0
C  C71  1  0.69412540  0.25222851  0.26969707  1  -0.041004  0  -0.076077  -0.115584  0  3.951686  0
C  C72  1  0.69724938  0.23286778  0.22209025  1  -0.035149  0  -0.076501  -0.117454  0  3.954558  0
C  C73  1  0.64644190  0.06958239  0.23384960  1  -0.021246  0  -0.080684  -0.129197  0  3.969208  0
C  C74  1  0.64381132  0.08864660  0.28152132  1  -0.048617  0  -0.075324  -0.117771  0  3.955703  0
C  C75  1  0.78050721  0.61239346  0.73154746  1  0.002409  0  -0.066751  -0.074141  0  3.617496  0
C  C76  1  0.66739784  0.18044139  0.30014198  1  0.102686  0  0.007415  0.129076  0  4.100671  0
C  C77  1  0.67360453  0.14112370  0.20342922  1  0.099314  0  0.001821  0.122514  0  4.118214  0
C  C78  1  0.68028102  0.11859116  0.15502870  1  -0.214881  0  -0.014259  -0.020866  0  4.074748  0
C  C79  1  0.66050039  0.20417087  0.34844282  1  0.038402  0  -0.011182  -0.017112  0  4.062509  0
C  C80  1  0.68960874  0.09627428  0.11350837  1  -0.046722  0  -0.031925  -0.185757  0  3.93791  0
C  C81  1  0.21884930  0.64416313  0.39109219  1  0.228883  0  -0.014727  -0.155322  0  3.889081  0
C  C82  1  0.62043422  0.28208423  0.43541864  1  1.703697  0  0.279897  0.714441  0  4.158144  0
C  C83  1  0.05349624  0.73756650  0.27983354  1  0.01032  0  -0.012943  -0.025253  0  3.991461  0
C  C84  1  0.04333282  0.73898995  0.23147108  1  -0.015924  0  -0.064201  -0.138083  0  3.913511  0
C  C85  1  0.25434660  0.58419054  0.22582527  1  -0.059099  0  -0.06568  -0.098492  0  3.929463  0
C  C86  1  0.65902592  0.66676529  0.70097595  1  0.126976  0  0.010678  0.11454  0  3.779548  0
C  C87  1  0.26613907  0.58379153  0.27388358  1  0.009565  0  -0.07021  -0.11343  0  3.939318  0
C  C88  1  0.16658173  0.65979191  0.30190707  1  0.082926  0  0.023194  0.119636  0  4.046799  0
C  C89  1  0.14239324  0.66203229  0.20372517  1  0.080235  0  0.006871  0.128578  0  4.115608  0
C  C90  1  0.12603757  0.66581621  0.15490463  1  -0.50308  0  -0.012546  -0.01855  0  4.06346  0
C  C91  1  0.18570213  0.65648938  0.35048496  1  -0.436758  0  -0.002616  -0.000576  0  4.05281  0
C  C92  1  0.10324417  0.67622362  0.11335607  1  0.237441  0  -0.027076  -0.178989  0  3.925998  0
C  C93  1  0.72342174  0.04808927  0.93453636  1  1.688573  0  0.280422  0.711431  0  4.16422  0
C  C94  1  0.60928380  0.78903984  0.73006330  1  -0.016575  0  -0.067763  -0.077849  0  3.626695  0
C  C95  1  0.71505112  0.72801181  0.93421531  1  1.632805  0  0.28499  0.72621  0  4.147564  0
C  C96  1  0.05250801  0.70985639  0.93513981  1  1.6633  0  0.278167  0.712957  0  4.163039  0
C  C97  1  0.72257278  0.56252341  0.76735246  1  -0.033932  0  -0.06897  -0.075241  0  3.618927  0
C  C98  1  0.71651240  0.04843633  0.06705039  1  1.679853  0  0.280852  0.706897  0  4.169617  0
C  C99  1  0.72317109  0.72186548  0.06425479  1  1.667205  0  0.289213  0.723615  0  4.146131  0
C  C100  1  0.05260763  0.70928940  0.06714577  1  1.676618  0  0.282558  0.709757  0  4.169273  0
C  C101  1  0.55133248  0.73913025  0.76587048  1  -0.039604  0  -0.068958  -0.078928  0  3.626582  0
C  C102  1  0.69184465  0.70492222  0.88716450  1  0.006911  0  -0.043104  -0.213486  0  3.958398  0
C  C103  1  0.94329326  0.81665585  0.30621862  1  0.92204  0  0.093878  0.262956  0  4.000755  0
C  C104  1  0.60105271  0.61680929  0.73843384  1  0.000477  0  -0.065313  -0.0693  0  3.611428  0
C  C105  1  0.68232070  0.69526329  0.84518394  1  -0.264624  0  -0.009934  -0.006106  0  4.042114  0
O  O106  1  0.52294947  0.30251490  0.55033593  1  -1.207193  0  -0.19387  -0.524409  0  2.286836  0
O  O107  1  0.81207846  0.64822867  0.95443539  1  -1.246894  0  -0.225996  -0.589142  0  2.245329  0
O  O108  1  0.02151378  0.63312223  0.95179838  1  -1.254118  0  -0.240448  -0.601335  0  2.2329  0
O  O109  1  0.31179321  0.51209222  0.55269747  1  -1.20772  0  -0.199703  -0.537578  0  2.284689  0
O  O110  1  0.02524075  0.81529697  0.05434230  1  -1.206708  0  -0.196599  -0.531928  0  2.292121  0
O  O111  1  0.81783819  0.02754872  0.05058443  1  -1.215387  0  -0.19813  -0.531847  0  2.27903  0
O  O112  1  0.63556015  0.02607721  0.04694090  1  -1.255824  0  -0.240935  -0.603831  0  2.23531  0
O  O113  1  0.64558155  0.81993404  0.04467421  1  -1.229779  0  -0.220338  -0.578193  0  2.246696  0
O  O114  1  0.82501861  0.64425695  0.04720034  1  -1.24023  0  -0.222145  -0.580087  0  2.239092  0
O  O115  1  0.03429875  0.63045920  0.04393218  1  -1.250511  0  -0.239582  -0.602924  0  2.234125  0
O  O116  1  0.83867970  0.83588593  0.00047166  1  -1.608561  0  -0.391319  -1.276532  0  2.293276  0
O  O117  1  0.50385119  0.68877837  0.45262790  1  -1.240502  0  -0.219998  -0.577273  0  2.242096  0
O  O118  1  0.30643000  0.69634673  0.54794238  1  -1.260243  0  -0.239875  -0.602689  0  2.237614  0
O  O119  1  0.51095565  0.69348254  0.54529626  1  -1.244231  0  -0.225944  -0.587309  0  2.244143  0
O  O120  1  0.69068323  0.51802644  0.54566191  1  -1.246768  0  -0.226019  -0.586975  0  2.241022  0
O  O121  1  0.70173125  0.31108251  0.54839972  1  -1.238913  0  -0.235571  -0.594875  0  2.239749  0
O  O122  1  0.51688228  0.30599883  0.45053653  1  -1.21614  0  -0.206487  -0.558152  0  2.290102  0
O  O123  1  0.30146265  0.51288560  0.45260620  1  -1.220188  0  -0.207541  -0.565594  0  2.301684  0
O  O124  1  0.29747319  0.69679442  0.45581642  1  -1.244602  0  -0.237335  -0.596224  0  2.231505  0
O  O125  1  0.93343085  0.81557168  0.34844837  1  -1.030999  0  -0.248569  -0.331861  0  2.108569  0
O  O126  1  0.68421864  0.51386787  0.45302110  1  -1.235408  0  -0.220313  -0.578165  0  2.242841  0
O  O127  1  0.70030663  0.30473271  0.45624730  1  -1.247024  0  -0.241044  -0.604729  0  2.230943  0
O  O128  1  0.49609531  0.49640670  0.50113220  1  -1.608383  0  -0.391244  -1.275435  0  2.292092  0
O  O129  1  0.03813973  0.80681221  0.95443554  1  -1.2177  0  -0.210735  -0.565373  0  2.285753  0
O  O130  1  0.82873869  0.02000199  0.95017875  1  -1.212133  0  -0.204673  -0.554645  0  2.293575  0
O  O131  1  0.64083482  0.03182651  0.95476920  1  -1.243071  0  -0.238761  -0.599979  0  2.236259  0
O  O132  1  0.63961108  0.83034645  0.95203658  1  -1.250088  0  -0.228369  -0.591814  0  2.242586  0
O  O133  1  0.33094546  0.31924456  0.50369748  1  -1.360164  0  -0.573862  -0.990511  0  1.791422  0
O  O134  1  0.01537244  0.00129057  0.00611084  1  -1.362871  0  -0.572767  -0.98888  0  1.791813  0
F  F135  1  0.53259816  0.56094618  0.28076162  1  -0.63801  0  -0.086132  -0.141287  0  1.380941  0
F  F136  1  0.72036785  0.33874422  0.71664318  1  -0.623737  0  -0.074757  -0.100315  0  1.399469  0
F  F137  1  0.72362850  0.30540337  0.80931747  1  -0.622445  0  -0.080419  -0.105055  0  1.37533  0
