# generated using pymatgen
data_LaH22C31N2O7F3
_symmetry_space_group_name_H-M   'P 1'
_cell_length_a   9.70225292
_cell_length_b   12.69111979
_cell_length_c   13.31500000
_cell_angle_alpha   113.30352763
_cell_angle_beta   104.83109008
_cell_angle_gamma   96.87290040
_symmetry_Int_Tables_number   1
_chemical_formula_structural   LaH22C31N2O7F3
_chemical_formula_sum   'La2 H44 C62 N4 O14 F6'
_cell_volume   1409.80807905
_cell_formula_units_Z   2
loop_
 _symmetry_equiv_pos_site_id
 _symmetry_equiv_pos_as_xyz
  1  'x, y, z'
loop_
 _atom_site_type_symbol
 _atom_site_label
 _atom_site_symmetry_multiplicity
 _atom_site_fract_x
 _atom_site_fract_y
 _atom_site_fract_z
 _atom_site_occupancy
 _atom_site_hle17_bader_spin_density
 _atom_site_hle17_ddec_charge
 _atom_site_hle17_ddec_spin_density
 _atom_site_hle17_ddec_sum_bond_order
 _atom_site_hle17_magmom
 _atom_site_hse06_10hf_bader_spin_density
 _atom_site_hse06_10hf_ddec_charge
 _atom_site_hse06_10hf_ddec_spin_density
 _atom_site_hse06_10hf_ddec_sum_bond_order
 _atom_site_hse06_10hf_magmom
 _atom_site_hse06_bader_spin_density
 _atom_site_hse06_ddec_charge
 _atom_site_hse06_ddec_spin_density
 _atom_site_hse06_ddec_sum_bond_order
 _atom_site_hse06_magmom
 _atom_site_pbe_bader_charge
 _atom_site_pbe_bader_spin_density
 _atom_site_pbe_cm5_charge
 _atom_site_pbe_ddec_charge
 _atom_site_pbe_ddec_spin_density
 _atom_site_pbe_ddec_sum_bond_order
 _atom_site_pbe_magmom
La  La0  1  0.26897482  0.46238627  0.47520599  1  0  2.123568  0  1.823379  0  0  1.984079  0  2.374816  0  0  2.088473  0  2.268184  0  2.269728  0  1.397016  1.904846  0  2.450978  0
La  La1  1  0.73102281  0.53761422  0.52479315  1  0  2.123609  0  1.823072  0  0  1.984173  0  2.37429  0  0  2.088568  0  2.267678  0  2.269836  0  1.397117  1.904927  0  2.450471  0
H  H2  1  0.61427531  0.14250757  0.69665597  1  0  0.11505  0  0.956807  0  0  0.123845  0  1.020799  0  0  0.126374  0  1.02142  0  0.103704  0  0.102489  0.122051  0  1.020478  0
H  H3  1  0.38572288  0.85749469  0.30334545  1  0  0.115081  0  0.956764  0  0  0.123891  0  1.02074  0  0  0.12642  0  1.021362  0  0.103939  0  0.102519  0.122096  0  1.020421  0
H  H4  1  0.34239297  0.11853235  0.61887845  1  0  0.094552  0  0.974807  0  0  0.099611  0  1.042008  0  0  0.102945  0  1.039122  0  0.092566  0  0.097753  0.097108  0  1.044207  0
H  H5  1  0.65760414  0.88146991  0.38112276  1  0  0.094558  0  0.974833  0  0  0.09962  0  1.042023  0  0  0.102953  0  1.039139  0  0.092635  0  0.097754  0.097118  0  1.04422  0
H  H6  1  0.17202369  0.91736808  0.51955594  1  0  0.092111  0  0.961671  0  0  0.099518  0  1.025831  0  0  0.102402  0  1.025081  0  0.029701  0  0.095786  0.09732  0  1.0267  0
H  H7  1  0.82797849  0.08263329  0.48044964  1  0  0.092096  0  0.961638  0  0  0.099518  0  1.02578  0  0  0.10243  0  1.025001  0  0.029691  0  0.095749  0.097317  0  1.026652  0
H  H8  1  0.27442302  0.74122291  0.49670783  1  0  0.096698  0  0.973804  0  0  0.103695  0  1.041159  0  0  0.105911  0  1.040308  0  0.085206  0  0.11023  0.10214  0  1.041732  0
H  H9  1  0.72557674  0.25877757  0.50329772  1  0  0.096683  0  0.973825  0  0  0.103695  0  1.041186  0  0  0.105924  0  1.040295  0  0.085501  0  0.110223  0.102139  0  1.041763  0
H  H10  1  0.81718255  0.53954971  0.09455013  1  0  0.118529  0  0.969639  0  0  0.126627  0  1.032346  0  0  0.128845  0  1.033434  0  0.127911  0  0.103057  0.125098  0  1.031525  0
H  H11  1  0.18281883  0.46045255  0.90544963  1  0  0.118535  0  0.969701  0  0  0.126638  0  1.032389  0  0  0.128895  0  1.033436  0  0.127946  0  0.103069  0.125109  0  1.031567  0
H  H12  1  0.63910124  0.36288280  0.06737606  1  0  0.094055  0  0.93886  0  0  0.10414  0  0.99781  0  0  0.107393  0  0.995805  0  0.079511  0  0.103225  0.101695  0  0.999491  0
H  H13  1  0.36089801  0.63711946  0.93262555  1  0  0.09405  0  0.938868  0  0  0.104122  0  0.997836  0  0  0.107376  0  0.995829  0  0.079122  0  0.103206  0.101678  0  0.999516  0
H  H14  1  0.42797807  0.25080178  0.88079778  1  0  0.085584  0  0.952077  0  0  0.095607  0  1.014359  0  0  0.098679  0  1.013578  0  0.062325  0  0.094586  0.093445  0  1.014935  0
H  H15  1  0.57202304  0.74919960  0.11920309  1  0  0.085585  0  0.952079  0  0  0.095607  0  1.014367  0  0  0.098679  0  1.013587  0  0.062319  0  0.094575  0.093444  0  1.014944  0
H  H16  1  0.39745132  0.31940745  0.72593117  1  0  0.108404  0  0.952982  0  0  0.11266  0  1.019144  0  0  0.116406  0  1.016363  0  0.112138  0  0.107011  0.110029  0  1.020979  0
H  H17  1  0.60254818  0.68059216  0.27406949  1  0  0.10839  0  0.95303  0  0  0.112639  0  1.019193  0  0  0.116384  0  1.016412  0  0.112111  0  0.107002  0.11001  0  1.021022  0
H  H18  1  0.88551618  0.90172563  0.28706070  1  0  0.111687  0  0.952776  0  0  0.122861  0  1.012892  0  0  0.126268  0  1.01154  0  0.088411  0  0.103698  0.120294  0  1.014219  0
H  H19  1  0.11448545  0.09827397  0.71294487  1  0  0.11165  0  0.952822  0  0  0.122849  0  1.012914  0  0  0.126255  0  1.011561  0  0.088376  0  0.103702  0.120285  0  1.014236  0
H  H20  1  0.02985137  0.84869420  0.14970016  1  0  0.085169  0  0.94849  0  0  0.091727  0  1.016877  0  0  0.095056  0  1.014046  0  0.060972  0  0.098313  0.089286  0  1.019037  0
H  H21  1  0.97015081  0.15130717  0.85030617  1  0  0.085149  0  0.948412  0  0  0.091687  0  1.016822  0  0  0.095014  0  1.013996  0  0.060924  0  0.098335  0.089246  0  1.018982  0
H  H22  1  0.15703104  0.68499018  0.13258725  1  0  0.086405  0  0.971987  0  0  0.094398  0  1.038935  0  0  0.096689  0  1.039502  0  0.059063  0  0.094908  0.092946  0  1.038282  0
H  H23  1  0.84297141  0.31501208  0.86741572  1  0  0.086437  0  0.971916  0  0  0.094434  0  1.038858  0  0  0.096725  0  1.039424  0  0.059041  0  0.094928  0.092981  0  1.038207  0
H  H24  1  0.13838215  0.57757736  0.25177878  1  0  0.109583  0  0.972615  0  0  0.113209  0  1.043388  0  0  0.11721  0  1.04023  0  0.122992  0  0.108841  0.110288  0  1.045639  0
H  H25  1  0.86161999  0.42242047  0.74822095  1  0  0.109589  0  0.97264  0  0  0.113198  0  1.04344  0  0  0.117205  0  1.04027  0  0.122136  0  0.108855  0.110278  0  1.045691  0
H  H26  1  0.04143199  0.37140514  0.17703829  1  0  0.086291  0  0.952867  0  0  0.090755  0  1.022274  0  0  0.093896  0  1.018507  0  0.1206  0  0.117317  0.088345  0  1.025194  0
H  H27  1  0.95856696  0.62859269  0.82296010  1  0  0.086241  0  0.952857  0  0  0.090772  0  1.022204  0  0  0.093923  0  1.018426  0  0.120552  0  0.117325  0.08836  0  1.025129  0
H  H28  1  0.84320479  0.21450056  0.00168820  1  0  0.102011  0  0.957461  0  0  0.115604  0  1.015645  0  0  0.118111  0  1.015726  0  0.074206  0  0.105472  0.113754  0  1.015919  0
H  H29  1  0.15679523  0.78549727  0.99830963  1  0  0.102031  0  0.957486  0  0  0.115605  0  1.015684  0  0  0.118113  0  1.015765  0  0.074221  0  0.105481  0.113756  0  1.015956  0
H  H30  1  0.86698015  0.99560689  0.18183421  1  0  0.090848  0  0.979945  0  0  0.103272  0  1.04199  0  0  0.105617  0  1.041884  0  0.065481  0  0.101768  0.101503  0  1.042366  0
H  H31  1  0.13302069  0.00439360  0.81816478  1  0  0.090836  0  0.979933  0  0  0.103262  0  1.041977  0  0  0.105606  0  1.041872  0  0.065399  0  0.101771  0.101498  0  1.042337  0
H  H32  1  0.06504622  0.16230091  0.34921554  1  0  0.103479  0  0.935469  0  0  0.106147  0  1.003357  0  0  0.110024  0  0.99879  0  0.148233  0  0.124492  0.103165  0  1.006973  0
H  H33  1  0.93495406  0.83769781  0.65078193  1  0  0.103458  0  0.93548  0  0  0.106121  0  1.003381  0  0  0.109998  0  0.998813  0  0.148189  0  0.124501  0.10314  0  1.006997  0
H  H34  1  0.38139811  0.95173026  0.78370307  1  0  0.063901  0  0.957695  0  0  0.073293  0  1.023934  0  0  0.074493  0  1.024438  0  0.107976  0  0.108045  0.072381  0  1.023625  0
H  H35  1  0.61860032  0.04826934  0.21629588  1  0  0.063903  0  0.95764  0  0  0.073277  0  1.023896  0  0  0.074475  0  1.024403  0  0.108013  0  0.108049  0.072364  0  1.023588  0
H  H36  1  0.59860939  0.11387744  0.93070046  1  0  0.100203  0  0.957658  0  0  0.111203  0  1.021737  0  0  0.113529  0  1.022037  0  0.070588  0  0.104762  0.109478  0  1.021759  0
H  H37  1  0.40139011  0.88612216  0.06929794  1  0  0.100162  0  0.957596  0  0  0.111179  0  1.021674  0  0  0.11351  0  1.021958  0  0.070634  0  0.104772  0.109453  0  1.021696  0
H  H38  1  0.78934385  0.84718213  0.99836856  1  0  0.105264  0  0.960008  0  0  0.113008  0  1.025924  0  0  0.116025  0  1.025321  0  0.111257  0  0.105063  0.11071  0  1.026674  0
H  H39  1  0.21065565  0.15281747  0.00163060  1  0  0.105223  0  0.96002  0  0  0.112953  0  1.025953  0  0  0.11597  0  1.025351  0  0.111243  0  0.10504  0.110653  0  1.026707  0
H  H40  1  0.56181858  0.69819489  0.85158322  1  0  0.077119  0  0.958063  0  0  0.085556  0  1.022853  0  0  0.087584  0  1.021034  0  0.090274  0  0.116797  0.08396  0  1.024393  0
H  H41  1  0.43817879  0.30180471  0.14841554  1  0  0.077139  0  0.95797  0  0  0.085566  0  1.022772  0  0  0.087594  0  1.020952  0  0.090275  0  0.116793  0.08397  0  1.024312  0
H  H42  1  0.30790140  0.70473037  0.70535729  1  0  0.396251  0  0.919716  0  0  0.35279  0  1.0038  0  0  0.365379  0  0.986005  0  0.635452  0  0.283831  0.343778  0  1.016503  0
H  H43  1  0.69209810  0.29526923  0.29463962  1  0  0.396251  0  0.919715  0  0  0.352775  0  1.003816  0  0  0.365364  0  0.986021  0  0.635457  0  0.283808  0.343763  0  1.016519  0
H  H44  1  0.13549121  0.63248758  0.65205174  1  0  0.426759  0  0.850057  0  0  0.398069  0  0.920642  0  0  0.40715  0  0.907724  0  0.616453  0  0.312507  0.391411  0  0.930146  0
H  H45  1  0.86450911  0.36751468  0.34795007  1  0  0.426829  0  0.850022  0  0  0.398131  0  0.920575  0  0  0.407211  0  0.90766  0  0.616443  0  0.312549  0.391472  0  0.93008  0
C  C46  1  0.55711982  0.73305135  0.56061831  1  0  0.695537  0  3.887786  0  0  0.649961  0  4.178131  0  0  0.686888  0  4.170391  0  1.574399  0  0.220095  0.624547  0  4.182457  0
C  C47  1  0.44290026  0.26695622  0.43938093  1  0  0.695803  0  3.887327  0  0  0.650031  0  4.177948  0  0  0.686956  0  4.17021  0  1.57546  0  0.220125  0.62462  0  4.182275  0
C  C48  1  0.49909292  0.84067323  0.57896084  1  0  -0.172975  0  3.736702  0  0  -0.158824  0  3.973469  0  0  -0.16877  0  3.991762  0  0.002894  0  -0.024424  -0.152581  0  3.961667  0
C  C49  1  0.50090368  0.15933080  0.42103945  1  0  -0.173035  0  3.736763  0  0  -0.158765  0  3.973521  0  0  -0.168706  0  3.99181  0  0.002521  0  -0.024366  -0.152524  0  3.961719  0
C  C50  1  0.59112986  0.95557378  0.63605706  1  0  0.307743  0  3.757062  0  0  0.288576  0  4.032042  0  0  0.301798  0  4.04133  0  0.403746  0  0.105366  0.279529  0  4.025974  0
C  C51  1  0.40887180  0.04442937  0.36394459  1  0  0.307652  0  3.757134  0  0  0.288441  0  4.03214  0  0  0.301664  0  4.041427  0  0.403057  0  0.10534  0.279394  0  4.026075  0
C  C52  1  0.53730048  0.05555686  0.65223511  1  0  -0.200021  0  3.78511  0  0  -0.222149  0  4.04081  0  0  -0.229385  0  4.062612  0  0.041701  0  -0.104529  -0.217381  0  4.026171  0
C  C53  1  0.46269585  0.94444628  0.34776705  1  0  -0.199953  0  3.785086  0  0  -0.222095  0  4.040828  0  0  -0.229333  0  4.062632  0  0.041482  0  -0.104515  -0.217327  0  4.026192  0
C  C54  1  0.38590675  0.04136448  0.60950064  1  0  -0.039605  0  3.778586  0  0  -0.056796  0  4.038758  0  0  -0.055177  0  4.058074  0  -0.023363  0  -0.089212  -0.057518  0  4.025379  0
C  C55  1  0.61408796  0.95863689  0.39050129  1  0  -0.039599  0  3.778646  0  0  -0.056792  0  4.038834  0  0  -0.055174  0  4.058162  0  -0.023371  0  -0.089208  -0.057515  0  4.025454  0
C  C56  1  0.29032038  0.92832727  0.55322253  1  0  -0.096435  0  3.772454  0  0  -0.115926  0  4.036469  0  0  -0.120352  0  4.057624  0  -0.017266  0  -0.102086  -0.112947  0  4.022002  0
C  C57  1  0.70967540  0.07167410  0.44678035  1  0  -0.096548  0  3.77256  0  0  -0.116043  0  4.036561  0  0  -0.120493  0  4.057715  0  -0.017218  0  -0.10208  -0.113062  0  4.022093  0
C  C58  1  0.34706658  0.82966887  0.53893871  1  0  -0.038196  0  3.727682  0  0  -0.061468  0  3.978025  0  0  -0.059123  0  3.997735  0  -0.037156  0  -0.076242  -0.06271  0  3.964606  0
C  C59  1  0.65293133  0.17033251  0.46106232  1  0  -0.038115  0  3.727626  0  0  -0.061415  0  3.977939  0  0  -0.05907  0  3.997665  0  -0.037439  0  -0.076223  -0.062654  0  3.964516  0
C  C60  1  0.56766542  0.49579621  0.72063174  1  0  0.695785  0  3.903298  0  0  0.64857  0  4.205068  0  0  0.685652  0  4.194642  0  1.62295  0  0.22346  0.622965  0  4.211543  0
C  C61  1  0.43235360  0.50421137  0.27937481  1  0  0.695614  0  3.903983  0  0  0.648337  0  4.205867  0  0  0.685417  0  4.195434  0  1.622999  0  0.223278  0.62273  0  4.212337  0
C  C62  1  0.59126889  0.46139062  0.81913051  1  0  -0.169564  0  3.733632  0  0  -0.156753  0  3.974053  0  0  -0.165735  0  3.993086  0  -0.029612  0  -0.024603  -0.151054  0  3.961673  0
C  C63  1  0.40872500  0.53860810  0.18086501  1  0  -0.169692  0  3.733723  0  0  -0.156944  0  3.97426  0  0  -0.16589  0  3.993239  0  -0.029432  0  -0.024722  -0.151247  0  3.96188  0
C  C64  1  0.70737812  0.52106382  0.92439249  1  0  0.293268  0  3.760139  0  0  0.275489  0  4.034784  0  0  0.287091  0  4.045256  0  0.380661  0  0.10028  0.267464  0  4.027795  0
C  C65  1  0.29261872  0.47893755  0.07560534  1  0  0.293325  0  3.760191  0  0  0.275553  0  4.034868  0  0  0.287144  0  4.045332  0  0.380609  0  0.100336  0.267528  0  4.027881  0
C  C66  1  0.72628323  0.48760428  0.01361461  1  0  -0.192707  0  3.769887  0  0  -0.213819  0  4.022234  0  0  -0.219267  0  4.042096  0  0.010367  0  -0.10325  -0.210006  0  4.008336  0
C  C67  1  0.27371599  0.51239444  0.98638341  1  0  -0.192652  0  3.769893  0  0  -0.213758  0  4.022225  0  0  -0.219235  0  4.042061  0  0.010269  0  -0.103243  -0.209945  0  4.008328  0
C  C68  1  0.62588333  0.38896093  0.99731689  1  0  -0.040911  0  3.774813  0  0  -0.05722  0  4.034113  0  0  -0.056119  0  4.053174  0  -0.111285  0  -0.088172  -0.057661  0  4.021035  0
C  C69  1  0.37411565  0.61104045  0.00268283  1  0  -0.040933  0  3.774769  0  0  -0.057227  0  4.034057  0  0  -0.05613  0  4.053129  0  -0.110926  0  -0.088155  -0.057668  0  4.02098  0
C  C70  1  0.50807746  0.32682164  0.89331027  1  0  -0.098253  0  3.799235  0  0  -0.118823  0  4.06509  0  0  -0.122681  0  4.087011  0  -0.038463  0  -0.103103  -0.116314  0  4.049952  0
C  C71  1  0.49192069  0.67317707  0.10668755  1  0  -0.098258  0  3.799293  0  0  -0.118841  0  4.065147  0  0  -0.1227  0  4.087071  0  -0.038345  0  -0.10309  -0.116331  0  4.050008  0
C  C72  1  0.49065151  0.36393337  0.80632846  1  0  -0.048208  0  3.72671  0  0  -0.06884  0  3.976602  0  0  -0.067918  0  3.99648  0  0.004437  0  -0.080904  -0.069163  0  3.962721  0
C  C73  1  0.50934774  0.63606889  0.19367465  1  0  -0.048199  0  3.726724  0  0  -0.068781  0  3.976601  0  0  -0.067866  0  3.996464  0  0.004288  0  -0.080893  -0.069101  0  3.962717  0
C  C74  1  0.99016259  0.60478488  0.40013976  1  0  0.712681  0  3.883454  0  0  0.665929  0  4.175012  0  0  0.703456  0  4.16521  0  1.593842  0  0.232265  0.639921  0  4.181382  0
C  C75  1  0.00982173  0.39521737  0.59986583  1  0  0.712517  0  3.883419  0  0  0.665786  0  4.17495  0  0  0.703303  0  4.165146  0  1.593186  0  0.232141  0.639799  0  4.181316  0
C  C76  1  0.99912831  0.67454919  0.33214856  1  0  -0.186075  0  3.72932  0  0  -0.170206  0  3.965161  0  0  -0.181481  0  3.98546  0  -0.017146  0  -0.02368  -0.162871  0  3.951805  0
C  C77  1  0.00087752  0.32544333  0.66784760  1  0  -0.186004  0  3.729448  0  0  -0.170154  0  3.965278  0  0  -0.181419  0  3.985574  0  -0.017009  0  -0.023634  -0.162878  0  3.951992  0
C  C78  1  0.93118039  0.76759779  0.34011964  1  0  0.308175  0  3.75664  0  0  0.286551  0  4.035785  0  0  0.299249  0  4.046844  0  0.436603  0  0.108752  0.277801  0  4.028123  0
C  C79  1  0.06882069  0.23240004  0.65988215  1  0  0.308228  0  3.756618  0  0  0.286619  0  4.035743  0  0  0.299313  0  4.046798  0  0.436551  0  0.10874  0.277885  0  4.028098  0
C  C80  1  0.94006229  0.82957851  0.27514785  1  0  -0.204057  0  3.770073  0  0  -0.230694  0  4.034424  0  0  -0.237668  0  4.05321  0  -0.021022  0  -0.104829  -0.226098  0  4.021806  0
C  C81  1  0.05994202  0.17042286  0.72485437  1  0  -0.204058  0  3.770144  0  0  -0.230739  0  4.034518  0  0  -0.237713  0  4.053302  0  -0.020723  0  -0.104848  -0.226145  0  4.021898  0
C  C82  1  0.02093938  0.79960373  0.19981221  1  0  -0.00941  0  3.769534  0  0  -0.033862  0  4.040117  0  0  -0.029264  0  4.055184  0  -0.028581  0  -0.083272  -0.036787  0  4.030109  0
C  C83  1  0.97906386  0.20039765  0.80019132  1  0  -0.009332  0  3.769453  0  0  -0.033755  0  4.040033  0  0  -0.029157  0  4.0551  0  -0.02887  0  -0.083287  -0.036681  0  4.030027  0
C  C84  1  0.09277917  0.70881748  0.19088160  1  0  -0.094591  0  3.770059  0  0  -0.112706  0  4.031294  0  0  -0.116973  0  4.051146  0  -0.034644  0  -0.0996  -0.110043  0  4.017709  0
C  C85  1  0.90722112  0.29118124  0.80911737  1  0  -0.094668  0  3.770098  0  0  -0.112793  0  4.031334  0  0  -0.117061  0  4.051187  0  -0.034557  0  -0.099622  -0.110129  0  4.017745  0
C  C86  1  0.08165616  0.64770927  0.25636821  1  0  -0.050735  0  3.727334  0  0  -0.072167  0  3.975477  0  0  -0.070125  0  3.994355  0  -0.02282  0  -0.079028  -0.073319  0  3.962701  0
C  C87  1  0.91834732  0.35228945  0.74363211  1  0  -0.050748  0  3.72728  0  0  -0.072164  0  3.975422  0  0  -0.070125  0  3.994301  0  -0.021968  0  -0.07904  -0.073294  0  3.962655  0
C  C88  1  0.99906028  0.28649621  0.17419283  1  0  0.137833  0  3.714395  0  0  0.111001  0  3.968952  0  0  0.118978  0  3.986393  0  0.551132  0  0.052942  0.105845  0  3.957433  0
C  C89  1  0.00094001  0.71350250  0.82580614  1  0  0.137966  0  3.714191  0  0  0.111075  0  3.968768  0  0  0.11905  0  3.986202  0  0.551142  0  0.052993  0.105919  0  3.957245  0
C  C90  1  0.88864602  0.19821502  0.07646996  1  0  -0.172809  0  3.707172  0  0  -0.18934  0  3.949991  0  0  -0.197855  0  3.971599  0  -0.054978  0  -0.08794  -0.184068  0  3.93565  0
C  C91  1  0.11135801  0.80178547  0.92352887  1  0  -0.172856  0  3.706931  0  0  -0.189375  0  3.949783  0  0  -0.19789  0  3.971391  0  -0.054917  0  -0.087955  -0.184104  0  3.935444  0
C  C92  1  0.83737935  0.08996688  0.07634496  1  0  0.092625  0  3.779489  0  0  0.10359  0  4.010803  0  0  0.107992  0  4.032785  0  -0.070837  0  0.006995  0.101184  0  3.994709  0
C  C93  1  0.16262468  0.91003361  0.92365538  1  0  0.092641  0  3.779369  0  0  0.103591  0  4.010686  0  0  0.107995  0  4.032665  0  -0.071075  0  0.007  0.101183  0  3.994596  0
C  C94  1  0.90380456  0.07683569  0.17602873  1  0  -0.169992  0  3.719716  0  0  -0.18712  0  3.964303  0  0  -0.195577  0  3.98599  0  -0.019186  0  -0.087805  -0.181375  0  3.948875  0
C  C95  1  0.09619414  0.92316480  0.82397136  1  0  -0.169941  0  3.719612  0  0  -0.187072  0  3.964205  0  0  -0.195529  0  3.98589  0  -0.018796  0  -0.087789  -0.181326  0  3.948781  0
C  C96  1  0.01274636  0.16976471  0.27031631  1  0  0.143352  0  3.697683  0  0  0.114665  0  3.955158  0  0  0.123075  0  3.971635  0  0.480755  0  0.056488  0.109197  0  3.943633  0
C  C97  1  0.98725500  0.83023401  0.72968210  1  0  0.143388  0  3.697592  0  0  0.114697  0  3.955087  0  0  0.123108  0  3.971561  0  0.480734  0  0.056488  0.109229  0  3.94356  0
C  C98  1  0.47364836  0.93237718  0.83435179  1  0  0.122672  0  3.754881  0  0  0.093908  0  4.010782  0  0  0.099458  0  4.030832  0  0.463638  0  0.045298  0.090162  0  3.997225  0
C  C99  1  0.52635006  0.06762242  0.16564641  1  0  0.122703  0  3.75474  0  0  0.093966  0  4.010657  0  0  0.099514  0  4.030709  0  0.463929  0  0.045295  0.09022  0  3.9971  0
C  C100  1  0.59651154  0.02270764  0.91549580  1  0  -0.159205  0  3.713658  0  0  -0.178791  0  3.962766  0  0  -0.185894  0  3.984737  0  -0.001736  0  -0.084098  -0.174254  0  3.948232  0
C  C101  1  0.40348823  0.97729285  0.08450374  1  0  -0.159104  0  3.713461  0  0  -0.178738  0  3.962595  0  0  -0.185838  0  3.984567  0  -0.001787  0  -0.084085  -0.174201  0  3.948061  0
C  C102  1  0.71287971  0.99562726  0.98032580  1  0  0.091792  0  3.768432  0  0  0.102761  0  4.000336  0  0  0.106362  0  4.021461  0  -0.004918  0  0.009211  0.100471  0  3.985165  0
C  C103  1  0.28712085  0.00437234  0.01967280  1  0  0.091762  0  3.76841  0  0  0.10277  0  4.000288  0  0  0.106369  0  4.021415  0  -0.004937  0  0.009235  0.10048  0  3.985117  0
C  C104  1  0.70081411  0.87577329  0.95507251  1  0  -0.162997  0  3.701977  0  0  -0.181269  0  3.949041  0  0  -0.188507  0  3.970152  0  -0.092974  0  -0.083715  -0.176244  0  3.934296  0
C  C105  1  0.29918298  0.12422542  0.04492586  1  0  -0.162894  0  3.701892  0  0  -0.18116  0  3.948937  0  0  -0.188397  0  3.970047  0  -0.093009  0  -0.083696  -0.176137  0  3.934193  0
C  C106  1  0.57360265  0.79153581  0.87233095  1  0  0.135917  0  3.70834  0  0  0.107688  0  3.96139  0  0  0.114196  0  3.978521  0  0.543322  0  0.051358  0.103439  0  3.949867  0
C  C107  1  0.42639551  0.20846291  0.12766687  1  0  0.135865  0  3.70822  0  0  0.107651  0  3.961261  0  0  0.11416  0  3.978392  0  0.543385  0  0.05133  0.103402  0  3.94974  0
N  N108  1  0.05982739  0.27392485  0.27039556  1  0  -0.350494  0  3.156595  0  0  -0.296135  0  3.418164  0  0  -0.316064  0  3.437638  0  -1.237488  0  -0.337271  -0.281933  0  3.404511  0
N  N109  1  0.94017716  0.72607386  0.72960346  1  0  -0.350604  0  3.156515  0  0  -0.296275  0  3.418147  0  0  -0.316203  0  3.437623  0  -1.237548  0  -0.337297  -0.282066  0  3.404489  0
N  N110  1  0.45979701  0.81848822  0.81370783  1  0  -0.303424  0  3.139383  0  0  -0.241805  0  3.386124  0  0  -0.255623  0  3.402043  0  -1.241118  0  -0.298083  -0.232252  0  3.375292  0
N  N111  1  0.54020087  0.18150961  0.18629035  1  0  -0.303464  0  3.139365  0  0  -0.241833  0  3.386076  0  0  -0.255655  0  3.401998  0  -1.24141  0  -0.298045  -0.232279  0  3.375244  0
O  O112  1  0.47132393  0.63714249  0.54145824  1  0  -0.746827  0  2.071067  0  0  -0.691833  0  2.335098  0  0  -0.730403  0  2.327896  0  -1.215825  0  -0.3956  -0.66324  0  2.33843  0
O  O113  1  0.52867368  0.36285445  0.45854032  1  0  -0.746701  0  2.071547  0  0  -0.69164  0  2.33565  0  0  -0.7302  0  2.328435  0  -1.216178  0  -0.395501  -0.663054  0  2.338982  0
O  O114  1  0.68913715  0.73938930  0.56324573  1  0  -0.644753  0  2.02923  0  0  -0.611047  0  2.284825  0  0  -0.641247  0  2.27584  0  -1.165754  0  -0.361515  -0.589289  0  2.290275  0
O  O115  1  0.31085625  0.26061473  0.43675096  1  0  -0.645029  0  2.028258  0  0  -0.611292  0  2.284017  0  0  -0.641492  0  2.275017  0  -1.165512  0  -0.361645  -0.589515  0  2.289429  0
O  O116  1  0.43461674  0.48101034  0.66364418  1  0  -0.679479  0  2.010302  0  0  -0.634276  0  2.264698  0  0  -0.666743  0  2.255035  0  -1.192473  0  -0.368369  -0.610734  0  2.270684  0
O  O117  1  0.56536895  0.51899635  0.33635432  1  0  -0.679086  0  2.01158  0  0  -0.633867  0  2.265987  0  0  -0.666337  0  2.256339  0  -1.19302  0  -0.368099  -0.610328  0  2.271971  0
O  O118  1  0.68067484  0.53458211  0.70170477  1  0  -0.692587  0  2.006183  0  0  -0.65574  0  2.274233  0  0  -0.687782  0  2.263816  0  -1.189914  0  -0.368414  -0.632456  0  2.280765  0
O  O119  1  0.31931189  0.46542104  0.29830010  1  0  -0.692717  0  2.005515  0  0  -0.655803  0  2.273596  0  0  -0.68786  0  2.263183  0  -1.189428  0  -0.368414  -0.63251  0  2.280122  0
O  O120  1  0.05936614  0.52350599  0.38370008  1  0  -0.716366  0  2.064744  0  0  -0.666627  0  2.332335  0  0  -0.700079  0  2.321575  0  -1.196444  0  -0.384525  -0.642217  0  2.338982  0
O  O121  1  0.94063799  0.47647412  0.61629033  1  0  -0.716046  0  2.065611  0  0  -0.666267  0  2.333076  0  0  -0.699777  0  2.322482  0  -1.196948  0  -0.384313  -0.641864  0  2.339717  0
O  O122  1  0.91583281  0.62911177  0.46792415  1  0  -0.673177  0  2.042156  0  0  -0.632792  0  2.308316  0  0  -0.664546  0  2.29632  0  -1.175641  0  -0.378502  -0.609891  0  2.316169  0
O  O123  1  0.08418555  0.37087986  0.53206425  1  0  -0.673306  0  2.040802  0  0  -0.633014  0  2.307107  0  0  -0.664777  0  2.295117  0  -1.174596  0  -0.378651  -0.610107  0  2.314953  0
O  O124  1  0.22874165  0.63741355  0.63713758  1  0  -0.875819  0  1.909017  0  0  -0.821302  0  2.120898  0  0  -0.846153  0  2.087471  0  -1.268011  0  -0.624726  -0.803082  0  2.1446  0
O  O125  1  0.77126080  0.36258871  0.36286238  1  0  -0.875886  0  1.90895  0  0  -0.82138  0  2.120841  0  0  -0.846215  0  2.087387  0  -1.267992  0  -0.624745  -0.803155  0  2.144546  0
F  F126  1  0.73926434  0.97362119  0.68199696  1  0  -0.206725  0  1.237203  0  0  -0.146472  0  1.39757  0  0  -0.156798  0  1.389231  0  -0.647466  0  -0.093167  -0.138912  0  1.403104  0
F  F127  1  0.26073439  0.02638284  0.31800147  1  0  -0.206712  0  1.237159  0  0  -0.146464  0  1.397559  0  0  -0.156794  0  1.389219  0  -0.647468  0  -0.093225  -0.138906  0  1.403093  0
F  F128  1  0.80514419  0.62027852  0.94435580  1  0  -0.218734  0  1.228043  0  0  -0.155705  0  1.386051  0  0  -0.166067  0  1.378083  0  -0.646528  0  -0.094231  -0.148178  0  1.391438  0
F  F129  1  0.19485662  0.37971843  0.05564184  1  0  -0.218758  0  1.228057  0  0  -0.155719  0  1.386055  0  0  -0.16608  0  1.378087  0  -0.646533  0  -0.094253  -0.148193  0  1.391444  0
F  F130  1  0.85463927  0.80349861  0.41509192  1  0  -0.195884  0  1.246465  0  0  -0.129949  0  1.40224  0  0  -0.139363  0  1.391499  0  -0.642607  0  -0.074692  -0.123079  0  1.409563  0
F  F131  1  0.14535964  0.19649567  0.58490588  1  0  -0.195934  0  1.246389  0  0  -0.129969  0  1.40213  0  0  -0.139383  0  1.391387  0  -0.642542  0  -0.074675  -0.123099  0  1.409453  0
