# generated using pymatgen
data_Zn2H26C26N12ClO6
_symmetry_space_group_name_H-M   'P 1'
_cell_length_a   10.25516133
_cell_length_b   10.19829548
_cell_length_c   17.38000000
_cell_angle_alpha   98.75870712
_cell_angle_beta   93.33571967
_cell_angle_gamma   111.12663323
_symmetry_Int_Tables_number   1
_chemical_formula_structural   Zn2H26C26N12ClO6
_chemical_formula_sum   'Zn4 H52 C52 N24 Cl2 O12'
_cell_volume   1663.09213163
_cell_formula_units_Z   2
loop_
 _symmetry_equiv_pos_site_id
 _symmetry_equiv_pos_as_xyz
  1  'x, y, z'
loop_
 _atom_site_type_symbol
 _atom_site_label
 _atom_site_symmetry_multiplicity
 _atom_site_fract_x
 _atom_site_fract_y
 _atom_site_fract_z
 _atom_site_occupancy
 _atom_site_hle17_bader_spin_density
 _atom_site_hle17_ddec_charge
 _atom_site_hle17_ddec_spin_density
 _atom_site_hle17_ddec_sum_bond_order
 _atom_site_hle17_magmom
 _atom_site_hse06_10hf_bader_spin_density
 _atom_site_hse06_10hf_ddec_charge
 _atom_site_hse06_10hf_ddec_spin_density
 _atom_site_hse06_10hf_ddec_sum_bond_order
 _atom_site_hse06_10hf_magmom
 _atom_site_hse06_bader_spin_density
 _atom_site_hse06_ddec_charge
 _atom_site_hse06_ddec_spin_density
 _atom_site_hse06_ddec_sum_bond_order
 _atom_site_hse06_magmom
 _atom_site_pbe_bader_charge
 _atom_site_pbe_bader_spin_density
 _atom_site_pbe_cm5_charge
 _atom_site_pbe_ddec_charge
 _atom_site_pbe_ddec_spin_density
 _atom_site_pbe_ddec_sum_bond_order
 _atom_site_pbe_magmom
Zn  Zn0  1  0.89021436  0.47777373  0.80024110  1  0  1.020968  0  1.885718  0  0  0.832405  0  2.371283  0  0  0.878742  0  2.315375  0  1.269877  0  0.697717  0.79973  0  2.410164  0
Zn  Zn1  1  0.10978410  0.52222449  0.19975535  1  0  1.020913  0  1.885815  0  0  0.832381  0  2.371332  0  0  0.87872  0  2.315418  0  1.269738  0  0.697668  0.799708  0  2.410213  0
Zn  Zn2  1  0.55433174  0.11374867  0.37455349  1  0  0.926121  0  2.050688  0  0  0.747684  0  2.54265  0  0  0.790691  0  2.491038  0  1.20279  0  0.61972  0.717783  0  2.578209  0
Zn  Zn3  1  0.44566594  0.88625275  0.62544667  1  0  0.926093  0  2.050743  0  0  0.747681  0  2.542711  0  0  0.790692  0  2.491102  0  1.202834  0  0.619708  0.717779  0  2.578264  0
H  H4  1  0.21254899  0.05306552  0.79087327  1  0  0.102265  0  0.950195  0  0  0.113108  0  1.020131  0  0  0.114755  0  1.018683  0  0.136281  0  0.118646  0.111808  0  1.021378  0
H  H5  1  0.78744888  0.94693376  0.20912728  1  0  0.102279  0  0.95015  0  0  0.11313  0  1.02009  0  0  0.114776  0  1.018643  0  0.136299  0  0.118652  0.111824  0  1.021345  0
H  H6  1  0.37312128  0.05521921  0.83566440  1  0  0.091446  0  0.902013  0  0  0.10849  0  0.960377  0  0  0.108907  0  0.960033  0  0.082463  0  0.11637  0.108272  0  0.960637  0
H  H7  1  0.62687756  0.94478007  0.16433389  1  0  0.09143  0  0.902061  0  0  0.108484  0  0.960424  0  0  0.108901  0  0.960081  0  0.082446  0  0.116375  0.108266  0  0.960683  0
H  H8  1  0.32457496  0.25697604  0.90789088  1  0  0.087189  0  0.948761  0  0  0.105397  0  1.009054  0  0  0.104706  0  1.012603  0  0.086461  0  0.099684  0.105839  0  1.006558  0
H  H9  1  0.67542486  0.74302324  0.09210916  1  0  0.087164  0  0.948786  0  0  0.105362  0  1.009072  0  0  0.104671  0  1.01262  0  0.086435  0  0.099668  0.105806  0  1.006578  0
H  H10  1  0.31704388  0.13105737  0.96848887  1  0  0.09351  0  0.918306  0  0  0.111422  0  0.973768  0  0  0.112412  0  0.973778  0  0.056613  0  0.104082  0.110569  0  0.973929  0
H  H11  1  0.68295555  0.86894085  0.03151164  1  0  0.093517  0  0.918342  0  0  0.111437  0  0.973784  0  0  0.112416  0  0.973806  0  0.056607  0  0.104076  0.110586  0  0.973945  0
H  H12  1  0.04817919  0.02720412  0.93653540  1  0  0.080188  0  0.918031  0  0  0.094305  0  0.982488  0  0  0.095342  0  0.981043  0  0.075593  0  0.116084  0.093686  0  0.982846  0
H  H13  1  0.95181907  0.97279623  0.06346469  1  0  0.080145  0  0.918026  0  0  0.094258  0  0.982497  0  0  0.095294  0  0.981054  0  0.075627  0  0.116059  0.09364  0  0.982856  0
H  H14  1  0.12356422  0.20355960  0.99287204  1  0  0.087703  0  0.909404  0  0  0.107405  0  0.965241  0  0  0.107395  0  0.965372  0  0.056997  0  0.121826  0.107442  0  0.964616  0
H  H15  1  0.87643599  0.79644075  0.00712868  1  0  0.087666  0  0.909441  0  0  0.10739  0  0.965254  0  0  0.107381  0  0.965384  0  0.057008  0  0.12183  0.107428  0  0.964629  0
H  H16  1  0.03653014  0.79985050  0.75186942  1  0  0.138237  0  0.925477  0  0  0.14409  0  0.990673  0  0  0.147364  0  0.98643  0  0.240801  0  0.15057  0.141584  0  0.993906  0
H  H17  1  0.96346870  0.20014879  0.24812944  1  0  0.138235  0  0.92545  0  0  0.144079  0  0.990675  0  0  0.147351  0  0.986435  0  0.240825  0  0.150582  0.141571  0  0.993911  0
H  H18  1  0.12808237  0.64595952  0.95289924  1  0  0.108632  0  0.953828  0  0  0.115895  0  1.018103  0  0  0.118442  0  1.015268  0  0.165835  0  0.134563  0.11401  0  1.020045  0
H  H19  1  0.87191627  0.35403655  0.04709876  1  0  0.108631  0  0.953826  0  0  0.115921  0  1.018062  0  0  0.118468  0  1.015228  0  0.165739  0  0.13458  0.114032  0  1.020012  0
H  H20  1  0.88392140  0.16779956  0.71421213  1  0  0.106611  0  0.935518  0  0  0.116731  0  0.994056  0  0  0.118263  0  0.992339  0  0.176568  0  0.133088  0.115344  0  0.995741  0
H  H21  1  0.11608333  0.83220507  0.28578741  1  0  0.106607  0  0.935571  0  0  0.116717  0  0.994122  0  0  0.118249  0  0.992405  0  0.177142  0  0.13308  0.115331  0  0.995806  0
H  H22  1  0.05834646  0.39264357  0.94408080  1  0  0.124142  0  0.98796  0  0  0.128775  0  1.059044  0  0  0.132589  0  1.053941  0  0.248973  0  0.139854  0.125853  0  1.062385  0
H  H23  1  0.94165650  0.60735892  0.05591964  1  0  0.124148  0  0.987905  0  0  0.128756  0  1.059028  0  0  0.132579  0  1.053917  0  0.248977  0  0.139855  0.125835  0  1.06237  0
H  H24  1  0.67072311  0.41266765  0.06128206  1  0  0.0918  0  0.97659  0  0  0.095451  0  1.051734  0  0  0.098832  0  1.049576  0  0.095231  0  0.098108  0.093014  0  1.053301  0
H  H25  1  0.32927748  0.58732842  0.93871772  1  0  0.091809  0  0.976684  0  0  0.09549  0  1.051795  0  0  0.098871  0  1.049639  0  0.095259  0  0.098116  0.093052  0  1.05336  0
H  H26  1  0.52818836  0.56903222  0.86909284  1  0  0.100303  0  0.96802  0  0  0.105214  0  1.036158  0  0  0.109167  0  1.033377  0  0.114798  0  0.100915  0.102378  0  1.038221  0
H  H27  1  0.47181303  0.43096600  0.13090659  1  0  0.100328  0  0.968012  0  0  0.105237  0  1.036145  0  0  0.10919  0  1.033365  0  0.114779  0  0.10092  0.102401  0  1.038207  0
H  H28  1  0.95982774  0.31297093  0.58190518  1  0  0.094132  0  0.967114  0  0  0.102893  0  1.032918  0  0  0.106122  0  1.031317  0  0.075594  0  0.097146  0.100176  0  1.035164  0
H  H29  1  0.04017832  0.68702407  0.41809355  1  0  0.09415  0  0.967004  0  0  0.102889  0  1.032837  0  0  0.10612  0  1.031233  0  0.075358  0  0.097147  0.100165  0  1.035092  0
H  H30  1  0.92557261  0.70409953  0.54106544  1  0  0.096067  0  0.973355  0  0  0.102952  0  1.040635  0  0  0.105787  0  1.040029  0  0.089906  0  0.098843  0.100389  0  1.042358  0
H  H31  1  0.07443110  0.29589440  0.45893138  1  0  0.095965  0  0.973411  0  0  0.102905  0  1.040645  0  0  0.105738  0  1.04004  0  0.089903  0  0.09882  0.100339  0  1.042368  0
H  H32  1  0.54982031  0.49026363  0.67802183  1  0  0.088711  0  0.913163  0  0  0.103317  0  0.974658  0  0  0.104021  0  0.974402  0  0.051104  0  0.115259  0.102743  0  0.974932  0
H  H33  1  0.45018342  0.50973565  0.32197835  1  0  0.0887  0  0.91316  0  0  0.103339  0  0.974622  0  0  0.104045  0  0.974368  0  0.05132  0  0.115261  0.102762  0  0.974897  0
H  H34  1  0.59701667  0.34329485  0.68875602  1  0  0.102788  0  0.936611  0  0  0.116354  0  1.002831  0  0  0.117099  0  1.002841  0  0.12804  0  0.115694  0.115622  0  1.003147  0
H  H35  1  0.40298608  0.65670443  0.31124240  1  0  0.10275  0  0.936579  0  0  0.116316  0  1.00282  0  0  0.117064  0  1.002834  0  0.127902  0  0.115675  0.115581  0  1.003135  0
H  H36  1  0.35117637  0.19269806  0.70262875  1  0  0.098605  0  0.952105  0  0  0.115278  0  1.013212  0  0  0.11568  0  1.014741  0  0.073846  0  0.100404  0.114943  0  1.01215  0
H  H37  1  0.64882638  0.80730122  0.29737082  1  0  0.098596  0  0.952053  0  0  0.115282  0  1.013168  0  0  0.115687  0  1.014697  0  0.073855  0  0.100415  0.114945  0  1.012109  0
H  H38  1  0.42521417  0.34958046  0.77534029  1  0  0.094387  0  0.930082  0  0  0.112272  0  0.989774  0  0  0.113076  0  0.990289  0  0.062754  0  0.101788  0.111629  0  0.989531  0
H  H39  1  0.57478898  0.65041989  0.22465939  1  0  0.094387  0  0.930065  0  0  0.112287  0  0.989766  0  0  0.113094  0  0.990281  0  0.062784  0  0.101801  0.111646  0  0.989524  0
H  H40  1  0.20932110  0.30160013  0.63238196  1  0  0.086684  0  0.937776  0  0  0.098948  0  1.006702  0  0  0.098939  0  1.007954  0  0.115659  0  0.117043  0.098722  0  1.006251  0
H  H41  1  0.79068205  0.69840022  0.36761830  1  0  0.086679  0  0.937782  0  0  0.098935  0  1.006701  0  0  0.098926  0  1.007953  0  0.115639  0  0.117033  0.098707  0  1.006252  0
H  H42  1  0.17627491  0.30426416  0.73161832  1  0  0.080959  0  0.94565  0  0  0.096342  0  1.009635  0  0  0.096474  0  1.010497  0  0.089223  0  0.112362  0.096246  0  1.00904  0
H  H43  1  0.82372648  0.69573406  0.26838111  1  0  0.080944  0  0.945677  0  0  0.096326  0  1.009651  0  0  0.096459  0  1.01051  0  0.089198  0  0.112361  0.096228  0  1.009057  0
H  H44  1  0.32874542  0.29174750  0.41433485  1  0  0.112553  0  0.918306  0  0  0.122618  0  0.976501  0  0  0.125225  0  0.973551  0  0.175342  0  0.140425  0.120596  0  0.978757  0
H  H45  1  0.67125245  0.70825178  0.58566512  1  0  0.112579  0  0.918314  0  0  0.122653  0  0.976508  0  0  0.125264  0  0.973553  0  0.1753  0  0.140435  0.120631  0  0.978764  0
H  H46  1  0.61360492  0.19971655  0.56234930  1  0  0.123709  0  0.926266  0  0  0.130386  0  0.993791  0  0  0.133494  0  0.98969  0  0.204611  0  0.145438  0.128085  0  0.996734  0
H  H47  1  0.38639882  0.80028808  0.43764791  1  0  0.123742  0  0.926274  0  0  0.130393  0  0.993814  0  0  0.133501  0  0.989716  0  0.204583  0  0.145453  0.128094  0  0.996755  0
H  H48  1  0.41384698  0.81283362  0.80538156  1  0  0.098985  0  0.920458  0  0  0.108431  0  0.979327  0  0  0.110552  0  0.977423  0  0.157821  0  0.14047  0.106854  0  0.980783  0
H  H49  1  0.58615361  0.18716245  0.19461707  1  0  0.099053  0  0.920336  0  0  0.108489  0  0.979229  0  0  0.110609  0  0.977326  0  0.157758  0  0.140481  0.10691  0  0.980688  0
H  H50  1  0.29210329  0.53656103  0.58525337  1  0  0.111938  0  0.955804  0  0  0.114128  0  1.030968  0  0  0.116785  0  1.028282  0  0.200166  0  0.142549  0.112243  0  1.032675  0
H  H51  1  0.70789751  0.46343826  0.41474499  1  0  0.11195  0  0.955785  0  0  0.114141  0  1.03094  0  0  0.116799  0  1.02825  0  0.200204  0  0.142549  0.112255  0  1.032649  0
H  H52  1  0.01472192  0.01365395  0.35884053  1  0  0.104053  0  0.951127  0  0  0.112426  0  1.01396  0  0  0.116509  0  1.011119  0  0.097668  0  0.10401  0.109495  0  1.016072  0
H  H53  1  0.98526933  0.98635389  0.64116574  1  0  0.104164  0  0.951167  0  0  0.112434  0  1.014099  0  0  0.116591  0  1.011172  0  0.097432  0  0.104032  0.109513  0  1.016205  0
H  H54  1  0.79849540  0.03332389  0.56193042  1  0  0.097483  0  0.960139  0  0  0.103866  0  1.028913  0  0  0.107518  0  1.026651  0  0.088491  0  0.099141  0.101388  0  1.030548  0
H  H55  1  0.20149783  0.96668930  0.43807870  1  0  0.097543  0  0.960127  0  0  0.103972  0  1.028845  0  0  0.107617  0  1.026584  0  0.089078  0  0.099179  0.101495  0  1.030477  0
C  C56  1  0.26420318  0.04167118  0.84500491  1  0  -0.015939  0  3.603325  0  0  -0.094506  0  3.864552  0  0  -0.090267  0  3.874421  0  0.275494  0  -0.047884  -0.097048  0  3.857688  0
C  C57  1  0.73579430  0.95832703  0.15499438  1  0  -0.015943  0  3.603397  0  0  -0.094577  0  3.864643  0  0  -0.090337  0  3.874508  0  0.275469  0  -0.047944  -0.097113  0  3.857784  0
C  C58  1  0.26323726  0.14824195  0.91663844  1  0  -0.146328  0  3.667238  0  0  -0.192169  0  3.936849  0  0  -0.193825  0  3.948787  0  -0.029589  0  -0.156812  -0.190388  0  3.927137  0
C  C59  1  0.73676080  0.85175519  0.08336135  1  0  -0.146344  0  3.667299  0  0  -0.192143  0  3.936851  0  0  -0.193794  0  3.948789  0  -0.029563  0  -0.156772  -0.190369  0  3.92715  0
C  C60  1  0.11645576  0.13814325  0.93530998  1  0  -0.004285  0  3.626452  0  0  -0.083133  0  3.893976  0  0  -0.070589  0  3.908097  0  0.323831  0  -0.04239  -0.085916  0  3.886777  0
C  C61  1  0.88354446  0.86185710  0.06469018  1  0  -0.004137  0  3.626368  0  0  -0.082984  0  3.893886  0  0  -0.070436  0  3.907997  0  0.323809  0  -0.042345  -0.085769  0  3.886695  0
C  C62  1  0.08197175  0.79001927  0.80776748  1  0  0.188962  0  3.586467  0  0  0.108494  0  3.849689  0  0  0.123735  0  3.859998  0  0.986828  0  0.174285  0.098892  0  3.842481  0
C  C63  1  0.91802670  0.20997894  0.19223127  1  0  0.189081  0  3.586424  0  0  0.108588  0  3.849637  0  0  0.123823  0  3.859951  0  0.986471  0  0.17433  0.098986  0  3.842431  0
C  C64  1  0.13119605  0.71493111  0.91041455  1  0  0.188678  0  3.713262  0  0  0.135075  0  4.008128  0  0  0.14612  0  4.021152  0  0.96889  0  0.140607  0.127887  0  3.998814  0
C  C65  1  0.86880162  0.28506496  0.08958341  1  0  0.188684  0  3.713273  0  0  0.135073  0  4.008142  0  0  0.146115  0  4.021168  0  0.969556  0  0.140569  0.127883  0  3.998831  0
C  C66  1  0.93816083  0.19599333  0.77327934  1  0  0.208111  0  3.707561  0  0  0.155134  0  3.995237  0  0  0.168027  0  4.00438  0  0.955518  0  0.147787  0.147093  0  3.987408  0
C  C67  1  0.06184487  0.80401130  0.22672023  1  0  0.208059  0  3.707766  0  0  0.155078  0  3.995453  0  0  0.167973  0  4.004597  0  0.954985  0  0.147786  0.147037  0  3.987622  0
C  C68  1  0.02330794  0.31333683  0.88977610  1  0  0.173983  0  3.609928  0  0  0.094966  0  3.869808  0  0  0.118191  0  3.885185  0  0.955526  0  0.165538  0.085801  0  3.862063  0
C  C69  1  0.97669541  0.68666673  0.11022445  1  0  0.174022  0  3.609873  0  0  0.095049  0  3.86977  0  0  0.118263  0  3.885143  0  0.955451  0  0.165547  0.08588  0  3.862026  0
C  C70  1  0.61180589  0.48911457  0.96042650  1  0  -0.059887  0  3.76506  0  0  -0.036122  0  3.993486  0  0  -0.042624  0  4.015515  0  0.002699  0  -0.019165  -0.031656  0  3.978419  0
C  C71  1  0.38819646  0.51088364  0.03957354  1  0  -0.0598  0  3.765083  0  0  -0.03604  0  3.9935  0  0  -0.042542  0  4.01553  0  0.002783  0  -0.019178  -0.031576  0  3.978432  0
C  C72  1  0.59588030  0.45065948  0.03437350  1  0  -0.082619  0  3.751048  0  0  -0.10487  0  4.002571  0  0  -0.105546  0  4.021948  0  -0.097841  0  -0.08767  -0.104361  0  3.989447  0
C  C73  1  0.40412227  0.54934194  0.96562626  1  0  -0.082726  0  3.751201  0  0  -0.105  0  4.002717  0  0  -0.105677  0  4.022093  0  -0.097785  0  -0.087701  -0.104487  0  3.989592  0
C  C74  1  0.51543716  0.53882064  0.92642338  1  0  -0.082296  0  3.749788  0  0  -0.105277  0  4.002124  0  0  -0.10536  0  4.020127  0  -0.053878  0  -0.088125  -0.10526  0  3.989932  0
C  C75  1  0.48456383  0.46117651  0.07357594  1  0  -0.08249  0  3.749913  0  0  -0.105459  0  4.002242  0  0  -0.105542  0  4.020246  0  -0.053872  0  -0.088205  -0.105442  0  3.990052  0
C  C76  1  0.73187885  0.47945559  0.91816983  1  0  0.628535  0  3.933631  0  0  0.581133  0  4.220193  0  0  0.61544  0  4.212754  0  1.527251  0  0.198377  0.557967  0  4.224231  0
C  C77  1  0.26812235  0.52054476  0.08182863  1  0  0.628386  0  3.933753  0  0  0.580987  0  4.220321  0  0  0.615293  0  4.212886  0  1.527232  0  0.198328  0.55782  0  4.224357  0
C  C78  1  0.93567077  0.50943501  0.56841441  1  0  -0.065337  0  3.764707  0  0  -0.041515  0  3.992017  0  0  -0.048181  0  4.014738  0  -0.085219  0  -0.023795  -0.037014  0  3.975762  0
C  C79  1  0.06433138  0.49055999  0.43158245  1  0  -0.06531  0  3.764754  0  0  -0.041519  0  3.992098  0  0  -0.048189  0  4.014826  0  -0.08571  0  -0.023795  -0.037018  0  3.975841  0
C  C80  1  0.97807052  0.39443243  0.54562726  1  0  -0.081114  0  3.752231  0  0  -0.105063  0  4.00276  0  0  -0.105821  0  4.022949  0  -0.000258  0  -0.092993  -0.103923  0  3.988673  0
C  C81  1  0.02193142  0.60555937  0.45436989  1  0  -0.080942  0  3.752181  0  0  -0.10485  0  4.002653  0  0  -0.105605  0  4.022843  0  0.000182  0  -0.092894  -0.103702  0  3.988569  0
C  C82  1  0.95779770  0.61481285  0.52222499  1  0  -0.083055  0  3.753534  0  0  -0.103247  0  3.999205  0  0  -0.104562  0  4.020108  0  -0.041464  0  -0.091183  -0.101553  0  3.98472  0
C  C83  1  0.04220229  0.38517894  0.47777209  1  0  -0.082799  0  3.753402  0  0  -0.10302  0  3.999045  0  0  -0.104334  0  4.019952  0  -0.04131  0  -0.091101  -0.101322  0  3.98456  0
C  C84  1  0.87569106  0.52570805  0.64446161  1  0  0.63166  0  3.943109  0  0  0.585054  0  4.235759  0  0  0.618421  0  4.228306  0  1.556893  0  0.195498  0.562446  0  4.239695  0
C  C85  1  0.12430914  0.47428695  0.35553519  1  0  0.631606  0  3.943186  0  0  0.585017  0  4.235825  0  0  0.618386  0  4.22837  0  1.557176  0  0.195532  0.562408  0  4.239761  0
C  C86  1  0.51020089  0.37281314  0.66817638  1  0  -0.017646  0  3.615359  0  0  -0.095121  0  3.876825  0  0  -0.091568  0  3.888463  0  0.318639  0  -0.04948  -0.097089  0  3.868918  0
C  C87  1  0.48980284  0.62718614  0.33182264  1  0  -0.01755  0  3.615226  0  0  -0.095082  0  3.876751  0  0  -0.091529  0  3.888395  0  0.31856  0  -0.049442  -0.097046  0  3.868847  0
C  C88  1  0.38525748  0.30984899  0.71274980  1  0  -0.149233  0  3.643069  0  0  -0.19288  0  3.907471  0  0  -0.195032  0  3.920333  0  -0.01661  0  -0.158988  -0.19121  0  3.898514  0
C  C89  1  0.61474430  0.69015030  0.28724916  1  0  -0.149167  0  3.642969  0  0  -0.192894  0  3.907438  0  0  -0.195057  0  3.920316  0  -0.01665  0  -0.159006  -0.191222  0  3.89847  0
C  C90  1  0.25650387  0.34656658  0.69339313  1  0  -0.009326  0  3.613695  0  0  -0.087961  0  3.877208  0  0  -0.08365  0  3.887472  0  0.261548  0  -0.048886  -0.090534  0  3.869967  0
C  C91  1  0.74349790  0.65343271  0.30660698  1  0  -0.009372  0  3.613766  0  0  -0.087942  0  3.877228  0  0  -0.083625  0  3.88749  0  0.261394  0  -0.048872  -0.090515  0  3.869988  0
C  C92  1  0.39220997  0.28768299  0.46573578  1  0  0.20179  0  3.696133  0  0  0.146148  0  3.990368  0  0  0.157483  0  4.003462  0  0.949828  0  0.15041  0.139017  0  3.980729  0
C  C93  1  0.60778731  0.71231737  0.53426370  1  0  0.201762  0  3.696192  0  0  0.14609  0  3.99044  0  0  0.157425  0  4.003531  0  0.949933  0  0.150375  0.138959  0  3.980801  0
C  C94  1  0.53715007  0.23954966  0.53963852  1  0  0.194372  0  3.596717  0  0  0.115117  0  3.85641  0  0  0.129883  0  3.867729  0  0.988298  0  0.172397  0.105737  0  3.84845  0
C  C95  1  0.46285152  0.76045176  0.46035948  1  0  0.194304  0  3.59673  0  0  0.115041  0  3.856394  0  0  0.129803  0  3.867717  0  0.987787  0  0.172362  0.105661  0  3.848433  0
C  C96  1  0.37413943  0.71695427  0.76034198  1  0  0.204022  0  3.700224  0  0  0.14982  0  3.98773  0  0  0.16095  0  4.001427  0  0.988079  0  0.150293  0.142636  0  3.978343  0
C  C97  1  0.62586039  0.28304501  0.23965634  1  0  0.20394  0  3.700286  0  0  0.149733  0  3.987787  0  0  0.160863  0  4.00148  0  0.988159  0  0.150273  0.142549  0  3.978401  0
C  C98  1  0.31266505  0.58075073  0.64749692  1  0  0.179187  0  3.627466  0  0  0.100716  0  3.890237  0  0  0.114971  0  3.90195  0  0.989991  0  0.169225  0.091612  0  3.882  0
C  C99  1  0.68733673  0.41924855  0.35250204  1  0  0.17918  0  3.62737  0  0  0.100711  0  3.890146  0  0  0.114974  0  3.901852  0  0.989835  0  0.169254  0.091607  0  3.88191  0
C  C100  1  0.89586728  0.02476798  0.45566668  1  0  -0.053721  0  3.750277  0  0  -0.030223  0  3.977359  0  0  -0.036343  0  3.999606  0  -0.054442  0  -0.016855  -0.026214  0  3.963015  0
C  C101  1  0.10412495  0.97523987  0.54433963  1  0  -0.054013  0  3.750297  0  0  -0.030285  0  3.977132  0  0  -0.036404  0  3.999393  0  -0.054867  0  -0.016903  -0.026275  0  3.962787  0
C  C102  1  0.00912137  0.00599139  0.42056370  1  0  -0.086054  0  3.741464  0  0  -0.105709  0  3.986348  0  0  -0.106907  0  4.006031  0  -0.022058  0  -0.087068  -0.104488  0  3.973813  0
C  C103  1  0.99086735  0.99401752  0.57944776  1  0  -0.086107  0  3.741661  0  0  -0.105722  0  3.986463  0  0  -0.106985  0  4.006114  0  -0.021745  0  -0.087116  -0.104508  0  3.973934  0
C  C104  1  0.88721325  0.01861610  0.53540503  1  0  -0.080137  0  3.744917  0  0  -0.102402  0  3.994306  0  0  -0.103477  0  4.014851  0  -0.063992  0  -0.088322  -0.102353  0  3.981649  0
C  C105  1  0.11278016  0.98139495  0.46460390  1  0  -0.080168  0  3.744765  0  0  -0.102523  0  3.994125  0  0  -0.103589  0  4.014637  0  -0.06433  0  -0.088338  -0.102468  0  3.981458  0
C  C106  1  0.78740265  0.05480945  0.40767072  1  0  0.629209  0  3.930804  0  0  0.581856  0  4.221937  0  0  0.615382  0  4.214876  0  1.564283  0  0.195516  0.559111  0  4.226086  0
C  C107  1  0.21259212  0.94519733  0.59234248  1  0  0.629208  0  3.931092  0  0  0.581777  0  4.222276  0  0  0.615303  0  4.21521  0  1.566315  0  0.195566  0.559028  0  4.226419  0
N  N108  1  0.18889664  0.89467173  0.85507653  1  0  0.037111  0  3.563852  0  0  0.161024  0  3.750461  0  0  0.149347  0  3.776576  0  -0.832888  0  -0.133468  0.167033  0  3.735847  0
N  N109  1  0.81110181  0.10532649  0.14492279  1  0  0.037076  0  3.563868  0  0  0.161058  0  3.750413  0  0  0.149398  0  3.776496  0  -0.832541  0  -0.133449  0.167066  0  3.735799  0
N  N110  1  0.22182981  0.84905050  0.92083919  1  0  -0.284537  0  2.837037  0  0  -0.287701  0  3.097607  0  0  -0.294868  0  3.110129  0  -0.711647  0  -0.23529  -0.282559  0  3.089374  0
N  N111  1  0.77816923  0.15094664  0.07916006  1  0  -0.284548  0  2.837112  0  0  -0.287736  0  3.097677  0  0  -0.294908  0  3.110199  0  -0.711717  0  -0.235297  -0.282593  0  3.089445  0
N  N112  1  0.04301269  0.67377240  0.84142740  1  0  -0.421167  0  3.259666  0  0  -0.342945  0  3.573528  0  0  -0.365447  0  3.583227  0  -1.233622  0  -0.349327  -0.327548  0  3.566545  0
N  N113  1  0.95698732  0.32622474  0.15857073  1  0  -0.421217  0  3.259654  0  0  -0.34301  0  3.573561  0  0  -0.365511  0  3.583256  0  -1.234135  0  -0.349326  -0.327612  0  3.56658  0
N  N114  1  0.04447340  0.18975586  0.87931505  1  0  0.03717  0  3.56113  0  0  0.159255  0  3.749537  0  0  0.120758  0  3.81134  0  -0.835849  0  -0.135984  0.166464  0  3.732693  0
N  N115  1  0.95552898  0.81024770  0.12068547  1  0  0.037163  0  3.561214  0  0  0.159159  0  3.749735  0  0  0.120663  0  3.811525  0  -0.835777  0  -0.135969  0.166369  0  3.732892  0
N  N116  1  0.99063832  0.11279005  0.80536306  1  0  -0.277066  0  2.826344  0  0  -0.277767  0  3.088226  0  0  -0.27757  0  3.106907  0  -0.669117  0  -0.225132  -0.272514  0  3.080223  0
N  N117  1  0.00936464  0.88721245  0.19463738  1  0  -0.277018  0  2.826411  0  0  -0.277687  0  3.088297  0  0  -0.277491  0  3.106976  0  -0.669207  0  -0.225106  -0.272434  0  3.080291  0
N  N118  1  0.95595455  0.32039490  0.82316742  1  0  -0.404393  0  3.24871  0  0  -0.32596  0  3.557624  0  0  -0.347146  0  3.562579  0  -1.241604  0  -0.34852  -0.311299  0  3.551813  0
N  N119  1  0.04405212  0.67960973  0.17683219  1  0  -0.404434  0  3.248827  0  0  -0.326001  0  3.557735  0  0  -0.347183  0  3.56269  0  -1.241532  0  -0.348571  -0.311337  0  3.551922  0
N  N120  1  0.48066584  0.32008891  0.58348243  1  0  0.049532  0  3.534038  0  0  0.172098  0  3.718795  0  0  0.16145  0  3.743299  0  -0.822436  0  -0.127745  0.177938  0  3.704108  0
N  N121  1  0.51933575  0.67991251  0.41651672  1  0  0.049501  0  3.534106  0  0  0.172127  0  3.718804  0  0  0.161484  0  3.743301  0  -0.821924  0  -0.127756  0.177962  0  3.704115  0
N  N122  1  0.38790078  0.35210754  0.53727004  1  0  -0.283631  0  2.872482  0  0  -0.280566  0  3.144988  0  0  -0.290038  0  3.160626  0  -0.694801  0  -0.219954  -0.273925  0  3.134228  0
N  N123  1  0.61209944  0.64789281  0.46273011  1  0  -0.283638  0  2.872531  0  0  -0.280597  0  3.145043  0  0  -0.290069  0  3.160678  0  -0.694795  0  -0.219956  -0.273955  0  3.134283  0
N  N124  1  0.48336814  0.21714614  0.46441968  1  0  -0.407104  0  3.245748  0  0  -0.327177  0  3.549099  0  0  -0.349158  0  3.559755  0  -1.224827  0  -0.347581  -0.312343  0  3.541085  0
N  N125  1  0.51663131  0.78285742  0.53557958  1  0  -0.407067  0  3.245695  0  0  -0.327087  0  3.548988  0  0  -0.349068  0  3.559645  0  -1.224848  0  -0.347538  -0.31225  0  3.54097  0
N  N126  1  0.29251830  0.50075712  0.70348102  1  0  0.048526  0  3.544324  0  0  0.170539  0  3.729912  0  0  0.160447  0  3.752595  0  -0.807751  0  -0.129166  0.17625  0  3.716311  0
N  N127  1  0.70748445  0.49924216  0.29651740  1  0  0.04849  0  3.544338  0  0  0.170493  0  3.729902  0  0  0.160372  0  3.752637  0  -0.807571  0  -0.129229  0.176204  0  3.716301  0
N  N128  1  0.33128456  0.58579313  0.77608098  1  0  -0.26349  0  2.840615  0  0  -0.260504  0  3.106069  0  0  -0.269269  0  3.12104  0  -0.698202  0  -0.215221  -0.254446  0  3.096072  0
N  N129  1  0.66871682  0.41420508  0.22391730  1  0  -0.263455  0  2.840507  0  0  -0.260467  0  3.105956  0  0  -0.269224  0  3.120925  0  -0.698351  0  -0.215203  -0.254407  0  3.095957  0
N  N130  1  0.36468331  0.71891324  0.68177579  1  0  -0.396203  0  3.27326  0  0  -0.316066  0  3.576289  0  0  -0.337588  0  3.586212  0  -1.255345  0  -0.348253  -0.301715  0  3.569332  0
N  N131  1  0.63531651  0.28108604  0.31822253  1  0  -0.396198  0  3.273302  0  0  -0.316044  0  3.576309  0  0  -0.337563  0  3.586227  0  -1.25512  0  -0.348247  -0.301697  0  3.569358  0
Cl  Cl132  1  0.39891016  0.92758692  0.29291787  1  0  -0.586881  0  0.882601  0  0  -0.528198  0  1.14323  0  0  -0.542924  0  1.117654  0  -0.668614  0  -0.330836  -0.517529  0  1.161417  0
Cl  Cl133  1  0.60109044  0.07240915  0.70708249  1  0  -0.586898  0  0.882627  0  0  -0.528211  0  1.143246  0  0  -0.542938  0  1.117669  0  -0.668621  0  -0.330839  -0.517539  0  1.16143  0
O  O134  1  0.71587183  0.47423988  0.84327678  1  0  -0.624846  0  2.033585  0  0  -0.55237  0  2.298967  0  0  -0.580201  0  2.282872  0  -1.144201  0  -0.326309  -0.532915  0  2.309352  0
O  O135  1  0.28412995  0.52575941  0.15672276  1  0  -0.624793  0  2.03362  0  0  -0.552306  0  2.298984  0  0  -0.580139  0  2.282896  0  -1.14419  0  -0.326288  -0.532849  0  2.309367  0
O  O136  1  0.84097271  0.47932828  0.95553288  1  0  -0.630287  0  1.963665  0  0  -0.579223  0  2.195007  0  0  -0.60356  0  2.186144  0  -1.193675  0  -0.320904  -0.562148  0  2.200197  0
O  O137  1  0.15903122  0.52067421  0.04446702  1  0  -0.630178  0  1.963732  0  0  -0.579142  0  2.195098  0  0  -0.603476  0  2.186236  0  -1.193673  0  -0.320875  -0.562068  0  2.200288  0
O  O138  1  0.87733276  0.43080016  0.68665000  1  0  -0.670523  0  2.067398  0  0  -0.597639  0  2.350812  0  0  -0.62607  0  2.334471  0  -1.185136  0  -0.349151  -0.577472  0  2.361484  0
O  O139  1  0.12266158  0.56919484  0.31334717  1  0  -0.670489  0  2.067638  0  0  -0.597615  0  2.351046  0  0  -0.626058  0  2.334723  0  -1.185112  0  -0.349117  -0.577448  0  2.361715  0
O  O140  1  0.83365474  0.62536305  0.66418162  1  0  -0.616227  0  1.86974  0  0  -0.574838  0  2.081591  0  0  -0.59496  0  2.071088  0  -1.183067  0  -0.334335  -0.560585  0  2.088345  0
O  O141  1  0.16635055  0.37463517  0.33581334  1  0  -0.616259  0  1.869575  0  0  -0.574882  0  2.081441  0  0  -0.59499  0  2.070908  0  -1.18304  0  -0.33441  -0.560631  0  2.088197  0
O  O142  1  0.68850512  0.07568623  0.44520967  1  0  -0.644648  0  2.059047  0  0  -0.569914  0  2.330283  0  0  -0.599106  0  2.317532  0  -1.169875  0  -0.339293  -0.549706  0  2.338395  0
O  O143  1  0.31148672  0.92432054  0.55479422  1  0  -0.64456  0  2.059109  0  0  -0.569912  0  2.330475  0  0  -0.599104  0  2.317718  0  -1.170282  0  -0.339251  -0.54973  0  2.338664  0
O  O144  1  0.79466331  0.05826947  0.33623837  1  0  -0.623095  0  1.931168  0  0  -0.582008  0  2.167608  0  0  -0.603914  0  2.158508  0  -1.195271  0  -0.325671  -0.566655  0  2.173105  0
O  O145  1  0.20532733  0.94172874  0.66376587  1  0  -0.622956  0  1.931479  0  0  -0.581862  0  2.16797  0  0  -0.603769  0  2.158877  0  -1.196677  0  -0.325671  -0.566524  0  2.173508  0
