# generated using pymatgen
data_ZnH8C14S2N3O10
_symmetry_space_group_name_H-M   'P 1'
_cell_length_a   9.69465782
_cell_length_b   11.01242032
_cell_length_c   19.23291230
_cell_angle_alpha   90.18053950
_cell_angle_beta   89.95655494
_cell_angle_gamma   89.92318378
_symmetry_Int_Tables_number   1
_chemical_formula_structural   ZnH8C14S2N3O10
_chemical_formula_sum   'Zn2 H16 C28 S4 N6 O20'
_cell_volume   2053.32475336
_cell_formula_units_Z   2
loop_
 _symmetry_equiv_pos_site_id
 _symmetry_equiv_pos_as_xyz
  1  'x, y, z'
loop_
 _atom_site_type_symbol
 _atom_site_label
 _atom_site_symmetry_multiplicity
 _atom_site_fract_x
 _atom_site_fract_y
 _atom_site_fract_z
 _atom_site_occupancy
 _atom_site_pbe_bader_charge
 _atom_site_pbe_bader_spin_density
 _atom_site_pbe_cm5_charge
 _atom_site_pbe_ddec_charge
 _atom_site_pbe_ddec_spin_density
 _atom_site_pbe_ddec_sum_bond_order
 _atom_site_pbe_magmom
Zn  Zn0  1  0.34749267  0.50242622  0.50057395  1  1.283324  0  0.684962  0.831075  0  2.332263  0
Zn  Zn1  1  0.64214217  0.50294088  0.50063986  1  1.314798  0  0.691629  0.82636  0  2.393224  0
H  H2  1  0.71551540  0.11374041  0.49655558  1  0.099634  0  0.108781  0.10859  0  0.992615  0
H  H3  1  0.27277736  0.88648187  0.50727603  1  0.118891  0  0.109736  0.111712  0  0.991875  0
H  H4  1  0.71510898  0.88577571  0.49342010  1  0.11195  0  0.111316  0.114386  0  0.988976  0
H  H5  1  0.27191283  0.11389021  0.50427624  1  0.113077  0  0.110516  0.111627  0  0.987582  0
H  H6  1  0.33831569  0.36800395  0.15186119  1  0.153524  0  0.125779  0.138263  0  0.987736  0
H  H7  1  0.67778630  0.37378949  0.84665969  1  0.169647  0  0.124925  0.136993  0  0.989993  0
H  H8  1  0.33184632  0.62100149  0.85061971  1  0.173724  0  0.125046  0.137121  0  0.988219  0
H  H9  1  0.67583564  0.62245871  0.15230600  1  0.156242  0  0.124225  0.139709  0  0.989388  0
H  H10  1  0.86214155  0.65626085  0.56170210  1  0.163536  0  0.147932  0.128303  0  0.940235  0
H  H11  1  0.12431474  0.34073260  0.44232613  1  0.141754  0  0.13402  0.115097  0  0.997853  0
H  H12  1  0.86300978  0.34225943  0.44113994  1  0.157485  0  0.143293  0.122436  0  0.949134  0
H  H13  1  0.12331663  0.65947680  0.55912381  1  0.160597  0  0.135884  0.11569  0  0.994874  0
H  H14  1  0.37282126  0.27842350  0.39365696  1  0.658715  0  0.306327  0.367975  0  0.975141  0
H  H15  1  0.63459897  0.27822133  0.60661586  1  0.660632  0  0.307395  0.371471  0  0.965195  0
H  H16  1  0.36649631  0.71555552  0.60858725  1  0.640608  0  0.306524  0.367826  0  0.97133  0
H  H17  1  0.57706885  0.82777590  0.30367302  1  0.624124  0  0.360069  0.408788  0  0.82549  0
C  C18  1  0.49417215  0.26138274  0.50018260  1  1.554025  0  0.235757  0.611479  0  4.088437  0
C  C19  1  0.49563691  0.73833530  0.50259974  1  1.571915  0  0.229366  0.601948  0  4.115452  0
C  C20  1  0.50530035  0.49477975  0.93358461  1  0.962306  0  0.25473  0.260063  0  3.962216  0
C  C21  1  0.50680551  0.49460943  0.06692562  1  0.97583  0  0.2501  0.248433  0  3.980832  0
C  C22  1  0.50068600  0.49882740  0.36921749  1  1.546004  0  0.213226  0.578156  0  4.208475  0
C  C23  1  0.49732724  0.49851041  0.63237723  1  1.591594  0  0.211379  0.569178  0  4.226707  0
C  C24  1  0.61915298  0.06307087  0.49802123  1  -0.092998  0  -0.073955  -0.079606  0  3.954942  0
C  C25  1  0.36890867  0.93717114  0.50405097  1  -0.089392  0  -0.07329  -0.079893  0  3.947945  0
C  C26  1  0.61923324  0.93705005  0.49693572  1  0.081706  0  -0.070763  -0.075785  0  3.943998  0
C  C27  1  0.36844415  0.06326862  0.50236955  1  0.060459  0  -0.072484  -0.075756  0  3.948216  0
C  C28  1  0.49415226  0.87362446  0.50098281  1  -0.084746  0  -0.006342  -0.016233  0  3.937631  0
C  C29  1  0.49368398  0.12665740  0.50018844  1  -0.099027  0  -0.011477  -0.032894  0  3.964898  0
C  C30  1  0.92159541  0.58726596  0.53416776  1  0.448844  0  0.092356  0.089327  0  3.81893  0
C  C31  1  0.06554837  0.41096636  0.46888871  1  0.60945  0  0.083039  0.084508  0  3.839884  0
C  C32  1  0.92216343  0.41155355  0.46843179  1  0.442659  0  0.086508  0.078244  0  3.840621  0
C  C33  1  0.06502595  0.58872526  0.53294083  1  0.623662  0  0.087522  0.091594  0  3.827189  0
C  C34  1  0.41178363  0.42468961  0.25229050  1  -0.192467  0  -0.003083  -0.090441  0  3.873418  0
C  C35  1  0.59782714  0.42784727  0.74719411  1  -0.197091  0  -0.000669  -0.085253  0  3.863418  0
C  C36  1  0.40561143  0.56786727  0.74953230  1  -0.067927  0  -0.001619  -0.087642  0  3.877169  0
C  C37  1  0.59738188  0.57008309  0.25258003  1  -0.221927  0  -0.006593  -0.104656  0  3.902141  0
C  C38  1  0.41121177  0.42522371  0.17982391  1  0.080957  0  -0.055288  -0.09031  0  3.905599  0
C  C39  1  0.60126034  0.42853940  0.81963728  1  0.088741  0  -0.056121  -0.091793  0  3.905915  0
C  C40  1  0.40581959  0.56570784  0.82194627  1  0.005523  0  -0.055747  -0.091996  0  3.909455  0
C  C41  1  0.60111656  0.56703627  0.18008611  1  0.065933  0  -0.060427  -0.101545  0  3.921973  0
C  C42  1  0.50665267  0.49562539  0.14347088  1  0.030216  0  0.00906  0.045303  0  3.98355  0
C  C43  1  0.50403896  0.49612741  0.85712461  1  0.00127  0  0.008155  0.03769  0  3.983792  0
C  C44  1  0.50342761  0.49827980  0.29063408  1  0.117394  0  0.014668  0.001683  0  3.859788  0
C  C45  1  0.49961475  0.49741511  0.71064986  1  -0.012146  0  0.01284  -0.001944  0  3.871787  0
S  S46  1  0.29053900  0.31968139  0.29051314  1  3.125813  0  0.537385  1.164888  0  6.014316  0
S  S47  1  0.72413705  0.32879688  0.70651703  1  3.116219  0  0.537094  1.161559  0  6.006612  0
S  S48  1  0.28323652  0.67234911  0.71164549  1  3.109191  0  0.539594  1.163609  0  6.008152  0
S  S49  1  0.71489677  0.67769530  0.29150210  1  3.066056  0  0.543835  1.15057  0  5.972732  0
N  N50  1  0.13599759  0.50025411  0.50060296  1  -1.236226  0  -0.2914  -0.152706  0  3.478603  0
N  N51  1  0.85162736  0.49932324  0.50133792  1  -1.236106  0  -0.293488  -0.149149  0  3.526469  0
N  N52  1  0.63025244  0.49520828  0.03427180  1  -0.627614  0  -0.148934  -0.138724  0  3.175011  0
N  N53  1  0.38174745  0.49374892  0.96640891  1  -0.594298  0  -0.145387  -0.135258  0  3.166007  0
N  N54  1  0.62948507  0.49416641  0.96561441  1  -0.441047  0  -0.144576  -0.134092  0  3.16611  0
N  N55  1  0.38264781  0.49255406  0.03498619  1  -0.481037  0  -0.147746  -0.138042  0  3.178641  0
O  O56  1  0.38813014  0.31671626  0.47551765  1  -1.176753  0  -0.303206  -0.560579  0  2.368751  0
O  O57  1  0.60481316  0.68433818  0.48445793  1  -1.149422  0  -0.293896  -0.512046  0  2.358564  0
O  O58  1  0.38421214  0.68482278  0.52365798  1  -1.19083  0  -0.31682  -0.580694  0  2.373424  0
O  O59  1  0.60028490  0.31608335  0.52400557  1  -1.176582  0  -0.296466  -0.550147  0  2.372813  0
O  O60  1  0.39191934  0.53861452  0.39804859  1  -1.139142  0  -0.30413  -0.520516  0  2.323378  0
O  O61  1  0.60602889  0.53618981  0.60286405  1  -1.148633  0  -0.305319  -0.524982  0  2.380864  0
O  O62  1  0.38821696  0.46209573  0.60233549  1  -1.146154  0  -0.308032  -0.523919  0  2.332866  0
O  O63  1  0.60673001  0.45754164  0.39967966  1  -1.141452  0  -0.305419  -0.52309  0  2.356951  0
O  O64  1  0.18428908  0.38499602  0.32759024  1  -1.299148  0  -0.317506  -0.547829  0  2.170608  0
O  O65  1  0.25418091  0.23516805  0.23670720  1  -1.283725  0  -0.310555  -0.512992  0  2.101593  0
O  O66  1  0.38359958  0.24780731  0.34416877  1  -1.267451  0  -0.368784  -0.543978  0  2.228972  0
O  O67  1  0.82096295  0.39768682  0.66576389  1  -1.299651  0  -0.325198  -0.54386  0  2.145822  0
O  O68  1  0.77173494  0.24916743  0.76026361  1  -1.286204  0  -0.308319  -0.509918  0  2.104187  0
O  O69  1  0.63052979  0.24923222  0.65617673  1  -1.242813  0  -0.367068  -0.536789  0  2.207109  0
O  O70  1  0.17745297  0.60743835  0.67420805  1  -1.297355  0  -0.31731  -0.546589  0  2.17288  0
O  O71  1  0.24628755  0.75635767  0.76562308  1  -1.282459  0  -0.307196  -0.508165  0  2.102602  0
O  O72  1  0.37653980  0.74495980  0.65808648  1  -1.231272  0  -0.366794  -0.538369  0  2.218242  0
O  O73  1  0.80067325  0.62133065  0.34260481  1  -1.280668  0  -0.299987  -0.497359  0  2.157675  0
O  O74  1  0.77258801  0.74878064  0.23600692  1  -1.287531  0  -0.310463  -0.528257  0  2.110653  0
O  O75  1  0.60964237  0.76364581  0.33484398  1  -1.176735  0  -0.353117  -0.527862  0  2.175724  0
