# generated using pymatgen
data_ZnH38C38N3O5
_symmetry_space_group_name_H-M   'P 1'
_cell_length_a   14.95827576
_cell_length_b   14.96760501
_cell_length_c   18.23769382
_cell_angle_alpha   107.80070286
_cell_angle_beta   113.25015543
_cell_angle_gamma   98.38976938
_symmetry_Int_Tables_number   1
_chemical_formula_structural   ZnH38C38N3O5
_chemical_formula_sum   'Zn4 H152 C152 N12 O20'
_cell_volume   3402.12862163
_cell_formula_units_Z   4
loop_
 _symmetry_equiv_pos_site_id
 _symmetry_equiv_pos_as_xyz
  1  'x, y, z'
loop_
 _atom_site_type_symbol
 _atom_site_label
 _atom_site_symmetry_multiplicity
 _atom_site_fract_x
 _atom_site_fract_y
 _atom_site_fract_z
 _atom_site_occupancy
 _atom_site_pbe_bader_charge
 _atom_site_pbe_bader_spin_density
 _atom_site_pbe_cm5_charge
 _atom_site_pbe_ddec_charge
 _atom_site_pbe_ddec_spin_density
 _atom_site_pbe_ddec_sum_bond_order
 _atom_site_pbe_magmom
Zn  Zn0  1  0.61435204  0.93125636  0.66247211  1  1.326356  0  0.69197  0.882851  0  2.34163  0
Zn  Zn1  1  0.76902877  0.95198643  0.83804899  1  1.326923  0  0.692117  0.882946  0  2.340412  0
Zn  Zn2  1  0.38564981  0.06874399  0.33752668  1  1.326341  0  0.691939  0.882807  0  2.341676  0
Zn  Zn3  1  0.23096949  0.04801241  0.16194914  1  1.326877  0  0.692092  0.882904  0  2.340483  0
H  H4  1  0.51783959  0.13330969  0.76770276  1  0.100517  0  0.101381  0.104012  0  1.029887  0
H  H5  1  0.86566425  0.75048587  0.73233864  1  0.096134  0  0.101038  0.104035  0  1.029359  0
H  H6  1  0.48216660  0.86668903  0.23229598  1  0.100516  0  0.101384  0.104001  0  1.029948  0
H  H7  1  0.13432939  0.24950914  0.26766226  1  0.096144  0  0.101061  0.104043  0  1.029367  0
H  H8  1  0.45581023  0.27629649  0.81386143  1  0.036205  0  0.09791  0.098345  0  1.034076  0
H  H9  1  0.96240225  0.64212126  0.68617529  1  0.059125  0  0.097856  0.098033  0  1.033419  0
H  H10  1  0.54418917  0.72369764  0.18613564  1  0.036057  0  0.097947  0.098398  0  1.034042  0
H  H11  1  0.03759359  0.35787771  0.31382410  1  0.058984  0  0.09783  0.098006  0  1.033413  0
H  H12  1  0.68158963  0.36269963  0.07896172  1  0.084281  0  0.098714  0.103629  0  1.045436  0
H  H13  1  0.78359243  0.60263108  0.42101188  1  0.080358  0  0.098511  0.103588  0  1.045526  0
H  H14  1  0.31841047  0.63730432  0.92103676  1  0.084303  0  0.098699  0.103609  0  1.045494  0
H  H15  1  0.21641379  0.39738075  0.57899130  1  0.080409  0  0.098586  0.103622  0  1.045326  0
H  H16  1  0.74018088  0.21695082  0.03270986  1  0.062445  0  0.098363  0.092629  0  1.036666  0
H  H17  1  0.68437029  0.70782852  0.46733187  1  0.062147  0  0.098716  0.093145  0  1.036603  0
H  H18  1  0.25982489  0.78305525  0.96729140  1  0.062476  0  0.098379  0.092656  0  1.036598  0
H  H19  1  0.31562860  0.29217460  0.53266911  1  0.06209  0  0.098713  0.093171  0  1.036586  0
H  H20  1  0.75979975  0.54455869  0.06523093  1  0.078212  0  0.091048  0.129458  0  1.016881  0
H  H21  1  0.97949183  0.69424667  0.43446670  1  0.052002  0  0.091313  0.12965  0  1.016975  0
H  H22  1  0.24020071  0.45543871  0.93476944  1  0.078237  0  0.091041  0.129442  0  1.016889  0
H  H23  1  0.02051299  0.30576263  0.56553655  1  0.05194  0  0.091336  0.129683  0  1.017036  0
H  H24  1  0.71388968  0.57856646  0.97578871  1  0.01049  0  0.087344  0.12119  0  1.017713  0
H  H25  1  0.10281606  0.73788139  0.52406187  1  0.034287  0  0.087631  0.121403  0  1.01856  0
H  H26  1  0.28611186  0.42143244  0.02421126  1  0.010152  0  0.087345  0.121197  0  1.017699  0
H  H27  1  0.89718854  0.26212482  0.47594118  1  0.03399  0  0.087582  0.121396  0  1.018542  0
H  H28  1  0.69983223  0.45263555  0.95828354  1  0.031602  0  0.08392  0.113916  0  1.041734  0
H  H29  1  0.99415800  0.74135130  0.54130535  1  0.023931  0  0.084309  0.114498  0  1.04207  0
H  H30  1  0.30016773  0.54736230  0.04171557  1  0.031645  0  0.083915  0.113916  0  1.041694  0
H  H31  1  0.00584796  0.25865647  0.45869833  1  0.024014  0  0.084292  0.114506  0  1.042058  0
H  H32  1  0.40863556  0.24922347  0.94694274  1  0.048607  0  0.087275  0.123211  0  1.027513  0
H  H33  1  0.80229388  0.46185371  0.55332075  1  0.052975  0  0.087343  0.123096  0  1.028461  0
H  H34  1  0.59136616  0.75077711  0.05305965  1  0.048479  0  0.087282  0.123261  0  1.027461  0
H  H35  1  0.19770427  0.53814717  0.44667725  1  0.053032  0  0.087368  0.123124  0  1.028407  0
H  H36  1  0.29905206  0.28055005  0.89182819  1  0.049709  0  0.090938  0.128169  0  1.02463  0
H  H37  1  0.88872253  0.40720148  0.60821151  1  0.056782  0  0.090464  0.127649  0  1.025493  0
H  H38  1  0.70094981  0.71944629  0.10817213  1  0.049729  0  0.090934  0.128166  0  1.024678  0
H  H39  1  0.11127814  0.59280260  0.39178904  1  0.056637  0  0.090475  0.127648  0  1.025497  0
H  H40  1  0.34461427  0.30507052  0.00259393  1  0.041571  0  0.089463  0.125458  0  1.027803  0
H  H41  1  0.80237165  0.34225086  0.49745553  1  0.059112  0  0.089236  0.124964  0  1.028222  0
H  H42  1  0.65538655  0.69492932  0.99740455  1  0.041523  0  0.089457  0.125438  0  1.027837  0
H  H43  1  0.19763259  0.65775155  0.50254419  1  0.058948  0  0.089208  0.124921  0  1.028216  0
H  H44  1  0.79336015  0.15229930  0.63036664  1  0.103786  0  0.10203  0.10712  0  1.021111  0
H  H45  1  0.02264418  0.16343088  0.87070007  1  0.093412  0  0.10191  0.106174  0  1.020161  0
H  H46  1  0.20664166  0.84770324  0.36963434  1  0.103803  0  0.102039  0.107121  0  1.021057  0
H  H47  1  0.97735642  0.83656587  0.12929821  1  0.093404  0  0.101905  0.106159  0  1.020192  0
H  H48  1  0.91972472  0.27856087  0.63006446  1  0.07092  0  0.09963  0.100527  0  1.038728  0
H  H49  1  0.14911115  0.29026176  0.87109984  1  0.061949  0  0.099526  0.10105  0  1.037984  0
H  H50  1  0.08027890  0.72144222  0.36993760  1  0.070707  0  0.099615  0.100501  0  1.03877  0
H  H51  1  0.85089060  0.70973663  0.12890036  1  0.061985  0  0.099498  0.101061  0  1.03799  0
H  H52  1  0.20078812  0.21087909  0.64632843  1  0.040692  0  0.085869  0.120495  0  1.02418  0
H  H53  1  0.06460587  0.55493257  0.85395565  1  0.028226  0  0.086054  0.121067  0  1.025473  0
H  H54  1  0.79921422  0.78911901  0.35367535  1  0.041025  0  0.08584  0.120449  0  1.024151  0
H  H55  1  0.93539532  0.44506570  0.14604248  1  0.028263  0  0.086088  0.121095  0  1.025353  0
H  H56  1  0.14359833  0.19176224  0.71084433  1  0.030617  0  0.08782  0.124783  0  1.03199  0
H  H57  1  0.98106215  0.43324244  0.78959469  1  0.062282  0  0.087731  0.125323  0  1.031898  0
H  H58  1  0.85640561  0.80824009  0.28916179  1  0.030568  0  0.087832  0.124764  0  1.031994  0
H  H59  1  0.01893745  0.56675656  0.21040628  1  0.062314  0  0.08775  0.125342  0  1.031871  0
H  H60  1  0.27831114  0.23702709  0.75713771  1  0.021281  0  0.086716  0.118808  0  1.025849  0
H  H61  1  0.98022683  0.52133866  0.74302576  1  0.032779  0  0.086789  0.119116  0  1.024979  0
H  H62  1  0.72169180  0.76297571  0.24286741  1  0.02128  0  0.086738  0.118807  0  1.025872  0
H  H63  1  0.01977168  0.47865926  0.25697411  1  0.032755  0  0.086783  0.119114  0  1.024974  0
H  H64  1  0.42676824  0.40655591  0.78720939  1  0.055446  0  0.090667  0.126109  0  1.015547  0
H  H65  1  0.11965410  0.63954371  0.71302467  1  0.060983  0  0.090553  0.125612  0  1.017017  0
H  H66  1  0.57323162  0.59344357  0.21279111  1  0.055454  0  0.090662  0.126098  0  1.01557  0
H  H67  1  0.88034160  0.36045591  0.28697681  1  0.061412  0  0.090558  0.125621  0  1.017004  0
H  H68  1  0.39155310  0.44146028  0.69802398  1  0.048753  0  0.087793  0.11878  0  1.036004  0
H  H69  1  0.24381897  0.69343675  0.80216667  1  0.039018  0  0.08744  0.118235  0  1.035922  0
H  H70  1  0.60845124  0.55854187  0.30197957  1  0.048836  0  0.087786  0.118785  0  1.036014  0
H  H71  1  0.75617751  0.30656113  0.19783188  1  0.038978  0  0.087455  0.118235  0  1.035853  0
H  H72  1  0.34214231  0.31716735  0.68076756  1  0.003953  0  0.088291  0.122458  0  1.020636  0
H  H73  1  0.13674882  0.66143826  0.81951005  1  0.015249  0  0.08818  0.122393  0  1.020776  0
H  H74  1  0.65786021  0.68283466  0.31923340  1  0.003876  0  0.08828  0.122444  0  1.020628  0
H  H75  1  0.86325198  0.33855977  0.18049216  1  0.015082  0  0.088123  0.122272  0  1.020873  0
H  H76  1  0.46120891  0.60598688  0.87194750  1  0.087849  0  0.098313  0.103611  0  1.032656  0
H  H77  1  0.23425683  0.58907657  0.62800312  1  0.065639  0  0.098387  0.103453  0  1.033714  0
H  H78  1  0.53878564  0.39401427  0.12805355  1  0.087875  0  0.098315  0.103624  0  1.032773  0
H  H79  1  0.76573881  0.41092607  0.37199753  1  0.065771  0  0.098391  0.103332  0  1.033795  0
H  H80  1  0.58824030  0.73539963  0.87254389  1  0.118127  0  0.100938  0.102415  0  1.034925  0
H  H81  1  0.36314093  0.71559294  0.62754888  1  0.096372  0  0.101231  0.103494  0  1.033689  0
H  H82  1  0.41175421  0.26460731  0.12745934  1  0.118041  0  0.100913  0.1024  0  1.034943  0
H  H83  1  0.63685294  0.28441191  0.37245369  1  0.096369  0  0.101232  0.103485  0  1.033694  0
H  H84  1  0.37539948  0.89437578  0.59324463  1  0.17527  0  0.140022  0.11226  0  1.014836  0
H  H85  1  0.80131713  0.78208553  0.90711108  1  0.17916  0  0.139799  0.112746  0  1.014891  0
H  H86  1  0.62460630  0.10562448  0.40676190  1  0.174951  0  0.140024  0.112282  0  1.014803  0
H  H87  1  0.19868046  0.21790983  0.09288861  1  0.179266  0  0.139779  0.112736  0  1.014895  0
H  H88  1  0.40981171  0.15474580  0.54522086  1  0.168275  0  0.124286  0.135794  0  1.037983  0
H  H89  1  0.10965479  0.86421231  0.95456855  1  0.154507  0  0.124373  0.136278  0  1.036892  0
H  H90  1  0.59018292  0.84525055  0.45477732  1  0.168108  0  0.124293  0.135843  0  1.037959  0
H  H91  1  0.89034401  0.13578885  0.04543384  1  0.154859  0  0.124354  0.136234  0  1.036946  0
H  H92  1  0.59314340  0.11022065  0.59623532  1  0.116035  0  0.125687  0.125266  0  0.996282  0
H  H93  1  0.01414660  0.99667930  0.90393370  1  0.145312  0  0.125655  0.125335  0  0.996173  0
H  H94  1  0.40685317  0.88977918  0.40376182  1  0.115992  0  0.125657  0.125245  0  0.996302  0
H  H95  1  0.98584794  0.00331868  0.09606586  1  0.145214  0  0.125672  0.125364  0  0.996151  0
H  H96  1  0.25865756  0.94692732  0.63449896  1  0.081004  0  0.107825  0.108922  0  1.010792  0
H  H97  1  0.81244935  0.62405630  0.86543496  1  0.08031  0  0.107679  0.108151  0  1.011433  0
H  H98  1  0.74135508  0.05307947  0.36551528  1  0.081318  0  0.107749  0.10887  0  1.01078  0
H  H99  1  0.18754934  0.37593835  0.13456213  1  0.080316  0  0.107701  0.108184  0  1.011421  0
H  H100  1  0.08051300  0.93109291  0.59924309  1  0.059565  0  0.10107  0.093492  0  1.048917  0
H  H101  1  0.83181774  0.48126701  0.90076036  1  0.05882  0  0.101102  0.093482  0  1.048962  0
H  H102  1  0.91949839  0.06890489  0.40077439  1  0.06015  0  0.101185  0.093774  0  1.048663  0
H  H103  1  0.16818180  0.51872646  0.09923461  1  0.058876  0  0.101113  0.093528  0  1.04893  0
H  H104  1  0.06035764  0.07889589  0.42614290  1  0.056626  0  0.100078  0.093144  0  1.038969  0
H  H105  1  0.15285671  0.63402610  0.07374422  1  0.064089  0  0.100338  0.093874  0  1.039628  0
H  H106  1  0.93963193  0.92108189  0.57385991  1  0.056082  0  0.100045  0.093098  0  1.038987  0
H  H107  1  0.84714224  0.36596903  0.92625239  1  0.064121  0  0.100303  0.093784  0  1.039681  0
H  H108  1  0.23655966  0.08771061  0.45691322  1  0.118617  0  0.109599  0.124984  0  1.026252  0
H  H109  1  0.13092450  0.77934323  0.04289388  1  0.117122  0  0.110327  0.125133  0  1.026531  0
H  H110  1  0.76342592  0.91227345  0.54308250  1  0.118115  0  0.109551  0.124884  0  1.026247  0
H  H111  1  0.86907190  0.22065268  0.95710609  1  0.117048  0  0.110295  0.125095  0  1.026491  0
H  H112  1  0.31977713  0.07299111  0.02307281  1  0.094649  0  0.113194  0.042438  0  1.01895  0
H  H113  1  0.54985017  0.29668668  0.47690705  1  0.090037  0  0.113461  0.042567  0  1.018827  0
H  H114  1  0.68022588  0.92700592  0.97692269  1  0.094607  0  0.113177  0.04242  0  1.018923  0
H  H115  1  0.45014597  0.70332092  0.52309110  1  0.09008  0  0.113477  0.042668  0  1.018829  0
H  H116  1  0.22489568  0.01938997  0.76789250  1  0.041482  0  0.098727  0.066351  0  0.995905  0
H  H117  1  0.75153390  0.45703664  0.73211565  1  0.050939  0  0.09866  0.06638  0  0.996545  0
H  H118  1  0.77510800  0.98060873  0.23210518  1  0.041594  0  0.098722  0.066377  0  0.995867  0
H  H119  1  0.24846008  0.54296797  0.26788331  1  0.050989  0  0.098694  0.066471  0  0.996495  0
H  H120  1  0.15827752  0.07607951  0.82069265  1  0.097037  0  0.110491  0.090007  0  1.001276  0
H  H121  1  0.75559785  0.33777686  0.67925861  1  0.119734  0  0.110577  0.089477  0  1.001673  0
H  H122  1  0.84172759  0.92391772  0.17930648  1  0.096937  0  0.110495  0.089956  0  1.001306  0
H  H123  1  0.24440029  0.66223120  0.32073934  1  0.119786  0  0.110605  0.089502  0  1.001617  0
H  H124  1  0.03505921  0.92335106  0.69700087  1  0.019266  0  0.088053  0.117618  0  1.028925  0
H  H125  1  0.72638128  0.33805120  0.80290024  1  0.011003  0  0.087543  0.116864  0  1.030155  0
H  H126  1  0.96494259  0.07664831  0.30299862  1  0.019236  0  0.08806  0.117618  0  1.028933  0
H  H127  1  0.27361572  0.66194804  0.19709584  1  0.010667  0  0.087579  0.116901  0  1.030119  0
H  H128  1  0.05679771  0.90591421  0.79319619  1  0.055411  0  0.088581  0.120182  0  1.040914  0
H  H129  1  0.61288556  0.26352742  0.70661772  1  0.047268  0  0.088423  0.120125  0  1.040486  0
H  H130  1  0.94320864  0.09407985  0.20680199  1  0.055658  0  0.088521  0.120117  0  1.040928  0
H  H131  1  0.38711347  0.73647009  0.29337596  1  0.046892  0  0.088459  0.120175  0  1.040452  0
H  H132  1  0.11449776  0.85108555  0.72995815  1  0.044098  0  0.085694  0.11502  0  1.012139  0
H  H133  1  0.62094187  0.38426866  0.76981585  1  0.009016  0  0.085529  0.114507  0  1.012695  0
H  H134  1  0.88550550  0.14891237  0.27003535  1  0.044245  0  0.085706  0.11503  0  1.012054  0
H  H135  1  0.37905291  0.61572703  0.23018023  1  0.009223  0  0.085551  0.114513  0  1.012648  0
H  H136  1  0.35071353  0.94728825  0.95628128  1  0.065326  0  0.107585  0.079144  0  1.000257  0
H  H137  1  0.49116141  0.39470442  0.54375917  1  0.052493  0  0.107471  0.078403  0  1.000622  0
H  H138  1  0.64928552  0.05270207  0.04371246  1  0.064914  0  0.107579  0.079146  0  1.000181  0
H  H139  1  0.50883241  0.60529451  0.45623890  1  0.052574  0  0.107488  0.078457  0  1.000604  0
H  H140  1  0.27148608  0.87371362  0.84452820  1  0.052751  0  0.102719  0.077127  0  0.98237  0
H  H141  1  0.52930662  0.42712442  0.65550944  1  0.05985  0  0.10257  0.076648  0  0.98285  0
H  H142  1  0.72852333  0.12628503  0.15546261  1  0.052867  0  0.102728  0.077144  0  0.982487  0
H  H143  1  0.47068702  0.57287598  0.34448770  1  0.060027  0  0.102551  0.076631  0  0.982824  0
H  H144  1  0.45206383  0.92799694  0.87317799  1  0.037201  0  0.091836  0.131263  0  0.997543  0
H  H145  1  0.55502042  0.57899033  0.62699718  1  0.03828  0  0.09183  0.131109  0  0.997437  0
H  H146  1  0.54795126  0.07201650  0.12682901  1  0.035831  0  0.091827  0.131202  0  0.997582  0
H  H147  1  0.44496588  0.42100853  0.37299770  1  0.038712  0  0.091815  0.131041  0  0.997524  0
H  H148  1  0.45950476  0.05412142  0.92021247  1  0.031837  0  0.087688  0.120989  0  1.01224  0
H  H149  1  0.63416453  0.53951284  0.57990533  1  0.025955  0  0.087745  0.121028  0  1.011971  0
H  H150  1  0.54050343  0.94588545  0.07980171  1  0.0321  0  0.087691  0.121002  0  1.012143  0
H  H151  1  0.36582132  0.46048744  0.42008759  1  0.026048  0  0.087709  0.12093  0  1.012006  0
H  H152  1  0.37971944  0.98301754  0.80734189  1  -0.010129  0  0.085546  0.113276  0  1.017663  0
H  H153  1  0.67589259  0.57242727  0.69276224  1  0.053742  0  0.0857  0.113702  0  1.017506  0
H  H154  1  0.62029979  0.01700290  0.19267152  1  -0.010331  0  0.085531  0.11323  0  1.017757  0
H  H155  1  0.32409781  0.42757446  0.30723083  1  0.053645  0  0.085626  0.113562  0  1.017645  0
C  C156  1  0.66967650  0.08256602  0.86649840  1  1.535177  0  0.202256  0.578822  0  4.199396  0
C  C157  1  0.71626953  0.80362657  0.63361508  1  1.528774  0  0.201909  0.577018  0  4.200998  0
C  C158  1  0.33033763  0.91744251  0.13350390  1  1.535147  0  0.202156  0.57872  0  4.199585  0
C  C159  1  0.28372142  0.19636673  0.36638233  1  1.528776  0  0.201901  0.57709  0  4.201141  0
C  C160  1  0.63232849  0.16651947  0.89742416  1  -0.033251  0  -0.024796  -0.047689  0  3.996467  0
C  C161  1  0.76924136  0.73530334  0.60263816  1  -0.095273  0  -0.024834  -0.046456  0  3.996482  0
C  C162  1  0.36767885  0.83348448  0.10257647  1  -0.033043  0  -0.024751  -0.047545  0  3.996381  0
C  C163  1  0.23075439  0.26469367  0.39736264  1  -0.095206  0  -0.024788  -0.046414  0  3.996232  0
C  C164  1  0.55183569  0.18335966  0.83592526  1  -0.001009  0  -0.086316  -0.082508  0  3.980079  0
C  C165  1  0.84751360  0.71621591  0.66411021  1  -0.029353  0  -0.08591  -0.083072  0  3.9788  0
C  C166  1  0.44817038  0.81664111  0.16407335  1  -0.001245  0  -0.086273  -0.082467  0  3.980127  0
C  C167  1  0.15248349  0.28378306  0.33588971  1  -0.029474  0  -0.085941  -0.083089  0  3.978833  0
C  C168  1  0.51806892  0.26322327  0.86195272  1  -0.092905  0  -0.091966  -0.143791  0  3.984138  0
C  C169  1  0.90125751  0.65628907  0.63805503  1  -0.029264  0  -0.091857  -0.142228  0  3.981865  0
C  C170  1  0.48193069  0.73677394  0.13804455  1  -0.092511  0  -0.092009  -0.143857  0  3.98417  0
C  C171  1  0.09873984  0.34371038  0.36194441  1  -0.029035  0  -0.091867  -0.142253  0  3.981751  0
C  C172  1  0.56471615  0.32904899  0.94963472  1  -0.004761  0  -0.000595  0.097239  0  4.003652  0
C  C173  1  0.87935514  0.61515589  0.55035499  1  -0.039965  0  -0.000801  0.095845  0  4.00271  0
C  C174  1  0.43528493  0.67095132  0.05036328  1  -0.004908  0  -0.000714  0.097165  0  4.0036  0
C  C175  1  0.12064564  0.38484972  0.44964566  1  -0.040205  0  -0.000788  0.09586  0  4.002641  0
C  C176  1  0.64470996  0.31144514  0.01094261  1  -0.059358  0  -0.092027  -0.134812  0  3.957024  0
C  C177  1  0.80046023  0.63389252  0.48905795  1  -0.056542  0  -0.091215  -0.13332  0  3.9555  0
C  C178  1  0.35529046  0.68855667  0.98905471  1  -0.059698  0  -0.092002  -0.13487  0  3.956997  0
C  C179  1  0.19954101  0.36611349  0.51094093  1  -0.056314  0  -0.091335  -0.133409  0  3.955476  0
C  C180  1  0.67785123  0.23062168  0.98523681  1  -0.049029  0  -0.08829  -0.099273  0  4.010618  0
C  C181  1  0.74546041  0.69290829  0.51480290  1  -0.004279  0  -0.089117  -0.101597  0  4.012282  0
C  C182  1  0.32215284  0.76938221  0.01476197  1  -0.049122  0  -0.088274  -0.09927  0  4.010474  0
C  C183  1  0.25453963  0.30709647  0.48520000  1  -0.004453  0  -0.089075  -0.101539  0  4.012231  0
C  C184  1  0.53126906  0.41710600  0.97610136  1  -0.027721  0  -0.019257  -0.06966  0  3.984831  0
C  C185  1  0.94093590  0.55517757  0.52387256  1  -0.03413  0  -0.019107  -0.06936  0  3.984393  0
C  C186  1  0.46872805  0.58289119  0.02389484  1  -0.027865  0  -0.019201  -0.069594  0  3.984838  0
C  C187  1  0.05906619  0.44482862  0.47612943  1  -0.033653  0  -0.019154  -0.069432  0  3.984383  0
C  C188  1  0.59549365  0.51084825  0.99969799  1  -0.038772  0  -0.015606  0.062217  0  3.941946  0
C  C189  1  0.01111468  0.59568815  0.50020946  1  -0.035742  0  -0.015249  0.062452  0  3.942173  0
C  C190  1  0.40450471  0.48914895  0.00029874  1  -0.038543  0  -0.015617  0.062178  0  3.942075  0
C  C191  1  0.98888729  0.40431691  0.49979091  1  -0.036517  0  -0.015236  0.062502  0  3.94223  0
C  C192  1  0.43610818  0.40543456  0.97630261  1  -0.011077  0  -0.016633  0.056711  0  3.957726  0
C  C193  1  0.92912362  0.45992047  0.52377211  1  -0.007318  0  -0.017098  0.055898  0  3.958404  0
C  C194  1  0.56389130  0.59456331  0.02369676  1  -0.011034  0  -0.016596  0.056722  0  3.95765  0
C  C195  1  0.07087738  0.54008464  0.47622876  1  -0.008305  0  -0.017098  0.055874  0  3.958381  0
C  C196  1  0.69698591  0.52200238  0.99916788  1  -0.069557  0  -0.243426  -0.398611  0  3.968149  0
C  C197  1  0.02282623  0.69758937  0.50059449  1  -0.059168  0  -0.244399  -0.399296  0  3.971388  0
C  C198  1  0.30301460  0.47799600  0.00083178  1  -0.06927  0  -0.243409  -0.398588  0  3.968135  0
C  C199  1  0.97717898  0.30241795  0.49940992  1  -0.059257  0  -0.244352  -0.39934  0  3.971444  0
C  C200  1  0.36950304  0.30530754  0.95347691  1  -0.090279  0  -0.24657  -0.410341  0  3.976809  0
C  C201  1  0.85180167  0.41616304  0.54664048  1  -0.120212  0  -0.24582  -0.409186  0  3.979268  0
C  C202  1  0.63049828  0.69469185  0.04652283  1  -0.090108  0  -0.246566  -0.410381  0  3.976839  0
C  C203  1  0.14819894  0.58384047  0.45335927  1  -0.120033  0  -0.245793  -0.409117  0  3.979143  0
C  C204  1  0.82337570  0.07323660  0.75043906  1  1.551784  0  0.216838  0.597714  0  4.162605  0
C  C205  1  0.17662714  0.92675832  0.24955553  1  1.551869  0  0.216825  0.597725  0  4.162397  0
C  C206  1  0.89979371  0.14969418  0.75053163  1  0.05745  0  -0.025985  -0.055899  0  3.995747  0
C  C207  1  0.10020858  0.85030517  0.24946761  1  0.057137  0  -0.025969  -0.055959  0  3.995688  0
C  C208  1  0.87153654  0.18258932  0.68290197  1  -0.086975  0  -0.085604  -0.084211  0  3.988282  0
C  C209  1  0.00030910  0.18914758  0.81821483  1  -0.072795  0  -0.0858  -0.082638  0  3.982336  0
C  C210  1  0.12846363  0.81741161  0.31709734  1  -0.086996  0  -0.085605  -0.08416  0  3.988243  0
C  C211  1  0.99969161  0.81085072  0.18178355  1  -0.072634  0  -0.085807  -0.082638  0  3.982285  0
C  C212  1  0.94280071  0.25381322  0.68313137  1  -0.087805  0  -0.092915  -0.1406  0  3.975354  0
C  C213  1  0.07128099  0.26026960  0.81803912  1  -0.043482  0  -0.093051  -0.141807  0  3.97272  0
C  C214  1  0.05720100  0.74618778  0.31686951  1  -0.0876  0  -0.092861  -0.140536  0  3.975205  0
C  C215  1  0.92871990  0.73972721  0.18196019  1  -0.043449  0  -0.093001  -0.141774  0  3.972667  0
C  C216  1  0.04376471  0.29377408  0.75058295  1  -0.011065  0  -0.002895  0.089861  0  4.004451  0
C  C217  1  0.95623657  0.70622434  0.24941749  1  -0.011063  0  -0.00296  0.089794  0  4.004377  0
C  C218  1  0.11996100  0.36991383  0.75043839  1  -0.05178  0  -0.013132  -0.060649  0  3.966601  0
C  C219  1  0.88003787  0.63008611  0.24956110  1  -0.051768  0  -0.013127  -0.06068  0  3.96657  0
C  C220  1  0.20014545  0.34517314  0.73460594  1  -0.042845  0  -0.015032  0.06148  0  3.934402  0
C  C221  1  0.11096350  0.46581197  0.76599011  1  0.041672  0  -0.014286  0.062435  0  3.935678  0
C  C222  1  0.79985573  0.65482691  0.26539589  1  -0.042853  0  -0.015062  0.0615  0  3.934428  0
C  C223  1  0.88903628  0.53418735  0.23400807  1  0.041688  0  -0.014256  0.062464  0  3.935574  0
C  C224  1  0.27377537  0.41810802  0.73707692  1  -0.027492  0  -0.01612  0.05865  0  3.947172  0
C  C225  1  0.18134373  0.53676835  0.76324742  1  -0.044373  0  -0.016665  0.057845  0  3.949115  0
C  C226  1  0.72622559  0.58189253  0.26292469  1  -0.027607  0  -0.016158  0.058624  0  3.94718  0
C  C227  1  0.81865318  0.46322893  0.23675007  1  -0.044448  0  -0.01675  0.057726  0  3.949217  0
C  C228  1  0.26309015  0.51293325  0.75006756  1  -0.001573  0  -0.015942  -0.065071  0  3.977569  0
C  C229  1  0.73690882  0.48706506  0.24993054  1  -0.001359  0  -0.015992  -0.06513  0  3.977625  0
C  C230  1  0.20583905  0.24106088  0.71148511  1  -0.052885  0  -0.244252  -0.403397  0  3.976213  0
C  C231  1  0.02981573  0.49471103  0.78890570  1  -0.082902  0  -0.2448  -0.405367  0  3.977022  0
C  C232  1  0.79416443  0.75893928  0.28851907  1  -0.053203  0  -0.24423  -0.403313  0  3.976184  0
C  C233  1  0.97018359  0.50528791  0.21109424  1  -0.082935  0  -0.244809  -0.405368  0  3.976913  0
C  C234  1  0.36271053  0.39431772  0.72455387  1  -0.074124  0  -0.242794  -0.409537  0  3.979984  0
C  C235  1  0.17009521  0.63816010  0.77568754  1  -0.080948  0  -0.242204  -0.40815  0  3.980752  0
C  C236  1  0.63729069  0.60568330  0.27544726  1  -0.074137  0  -0.242773  -0.409536  0  3.980009  0
C  C237  1  0.82990243  0.36183941  0.22431293  1  -0.081197  0  -0.24213  -0.407984  0  3.980757  0
C  C238  1  0.33923131  0.58901164  0.74998660  1  -0.032075  0  -0.00442  0.089055  0  3.995426  0
C  C239  1  0.66076594  0.41098986  0.25001271  1  -0.032125  0  -0.004344  0.089143  0  3.995493  0
C  C240  1  0.43951954  0.63038885  0.81856224  1  -0.087009  0  -0.09278  -0.134286  0  3.961866  0
C  C241  1  0.31203689  0.62072981  0.68141768  1  -0.079115  0  -0.092368  -0.13242  0  3.959484  0
C  C242  1  0.56047531  0.36961417  0.18143611  1  -0.086842  0  -0.09278  -0.134318  0  3.961784  0
C  C243  1  0.68795637  0.37927216  0.31857981  1  -0.078923  0  -0.092368  -0.13227  0  3.959445  0
C  C244  1  0.51059648  0.70214354  0.81898477  1  -0.040553  0  -0.090457  -0.099055  0  3.987619  0
C  C245  1  0.38339613  0.69141260  0.68104406  1  0.005537  0  -0.090649  -0.10093  0  3.987827  0
C  C246  1  0.48939558  0.29786077  0.18101671  1  -0.04075  0  -0.090515  -0.099118  0  3.987435  0
C  C247  1  0.61659721  0.30859311  0.31895573  1  0.00547  0  -0.09061  -0.100913  0  3.987795  0
C  C248  1  0.48318464  0.73297826  0.75003151  1  -0.094378  0  -0.026976  -0.050939  0  4.001523  0
C  C249  1  0.51681068  0.26702652  0.24997030  1  -0.094481  0  -0.026911  -0.050877  0  4.001579  0
C  C250  1  0.55982666  0.80967776  0.75007413  1  1.571573  0  0.214796  0.587614  0  4.176093  0
C  C251  1  0.44016902  0.19033082  0.24993101  1  1.571532  0  0.214818  0.58784  0  4.176113  0
C  C252  1  0.41140486  0.96122270  0.59133710  1  1.000888  0  0.154842  0.11719  0  3.87941  0
C  C253  1  0.87001880  0.81992183  0.90885941  1  0.974221  0  0.154206  0.113942  0  3.880481  0
C  C254  1  0.58859862  0.03877746  0.40866708  1  1.000968  0  0.154847  0.117151  0  3.879235  0
C  C255  1  0.12997855  0.18007445  0.09113854  1  0.974009  0  0.154226  0.114001  0  3.880476  0
C  C256  1  0.43158160  0.09748825  0.56641441  1  0.296604  0  0.001709  -0.105372  0  3.882718  0
C  C257  1  0.03120955  0.86488864  0.93354247  1  0.286611  0  0.00111  -0.106853  0  3.882131  0
C  C258  1  0.56841543  0.90251016  0.43358470  1  0.297199  0  0.001744  -0.105376  0  3.882945  0
C  C259  1  0.96879017  0.13511148  0.06646012  1  0.287105  0  0.001217  -0.106616  0  3.882273  0
C  C260  1  0.52085969  0.07359634  0.59000563  1  0.390677  0  0.006661  -0.014499  0  3.983385  0
C  C261  1  0.98374964  0.93063770  0.91014569  1  0.398488  0  0.007865  -0.013778  0  3.984194  0
C  C262  1  0.47914011  0.92640257  0.40999406  1  0.390529  0  0.006649  -0.014514  0  3.983463  0
C  C263  1  0.01624692  0.06936033  0.08985518  1  0.397705  0  0.007845  -0.013899  0  3.984138  0
C  C264  1  0.25948616  0.01886192  0.54828580  1  0.26567  0  0.099595  0.173709  0  4.017854  0
C  C265  1  0.97066306  0.71097870  0.95160880  1  0.251174  0  0.099487  0.17433  0  4.017247  0
C  C266  1  0.74051217  0.98113208  0.45171689  1  0.265578  0  0.099584  0.173796  0  4.017882  0
C  C267  1  0.02933485  0.28901770  0.04839122  1  0.251243  0  0.099478  0.174362  0  4.01715  0
C  C268  1  0.21429218  0.97446532  0.58761520  1  -0.011559  0  -0.090833  -0.16947  0  4.002071  0
C  C269  1  0.88688509  0.62654774  0.91230402  1  -0.056822  0  -0.09065  -0.169072  0  4.003388  0
C  C270  1  0.78571131  0.02553262  0.41239424  1  -0.011341  0  -0.090828  -0.169569  0  4.002143  0
C  C271  1  0.11311623  0.37344807  0.08769575  1  -0.056944  0  -0.090714  -0.169184  0  4.003207  0
C  C272  1  0.11297529  0.96644622  0.56763528  1  -0.032367  0  -0.08437  -0.104644  0  3.974023  0
C  C273  1  0.89881859  0.54528411  0.93232384  1  0.045292  0  -0.084573  -0.104726  0  3.974311  0
C  C274  1  0.88703051  0.03354824  0.43237653  1  -0.032714  0  -0.084396  -0.104811  0  3.973878  0
C  C275  1  0.10118090  0.45471198  0.06767181  1  0.045317  0  -0.084551  -0.104716  0  3.974226  0
C  C276  1  0.05373388  0.00378988  0.50970409  1  0.014161  0  -0.0055  0.059201  0  3.984725  0
C  C277  1  0.99410773  0.54397914  0.99026833  1  -0.049238  0  -0.005141  0.059531  0  3.984373  0
C  C278  1  0.94626647  0.99619837  0.49030519  1  -0.013759  0  -0.00548  0.059033  0  3.98487  0
C  C279  1  0.00589260  0.45601713  0.00973043  1  -0.009017  0  -0.0052  0.059511  0  3.984453  0
C  C280  1  0.10179670  0.04871913  0.47173907  1  -0.012408  0  -0.081766  -0.102028  0  3.961755  0
C  C281  1  0.07706847  0.62988914  0.02815766  1  -0.002788  0  -0.082134  -0.103513  0  3.96318  0
C  C282  1  0.89819567  0.95126372  0.52826359  1  -0.012042  0  -0.081831  -0.102126  0  3.962064  0
C  C283  1  0.92293257  0.37010660  0.97184107  1  -0.002762  0  -0.082089  -0.103435  0  3.963324  0
C  C284  1  0.20259300  0.05578214  0.48969031  1  -0.025288  0  -0.085559  -0.158884  0  3.970514  0
C  C285  1  0.06620590  0.71266083  0.01015866  1  -0.029949  0  -0.085774  -0.15815  0  3.97157  0
C  C286  1  0.79739901  0.94420408  0.51030897  1  -0.024745  0  -0.085446  -0.158611  0  3.970413  0
C  C287  1  0.93379434  0.28733708  0.98984149  1  -0.029886  0  -0.085763  -0.158114  0  3.971577  0
C  C288  1  0.26443257  0.07870664  0.96393371  1  1.363371  0  0.163755  0.304038  0  4.136305  0
C  C289  1  0.61469658  0.30044683  0.53603886  1  1.367371  0  0.163555  0.303208  0  4.135152  0
C  C290  1  0.73558147  0.92128959  0.03606856  1  1.363626  0  0.163675  0.303997  0  4.137229  0
C  C291  1  0.38530171  0.69955698  0.46395702  1  1.367289  0  0.163437  0.3029  0  4.135242  0
C  C292  1  0.18430449  0.01110975  0.80547747  1  0.276644  0  -0.062415  -0.006508  0  3.90917  0
C  C293  1  0.70573749  0.37890129  0.69446753  1  0.244908  0  -0.062627  -0.006723  0  3.910085  0
C  C294  1  0.81570028  0.98888685  0.19451982  1  0.276864  0  -0.062467  -0.006507  0  3.909214  0
C  C295  1  0.29425866  0.62110272  0.30553065  1  0.244705  0  -0.06266  -0.006926  0  3.909997  0
C  C296  1  0.09324962  0.91725927  0.75370073  1  -0.091609  0  -0.246514  -0.383491  0  3.947177  0
C  C297  1  0.66358993  0.33946900  0.74615940  1  -0.043834  0  -0.245442  -0.382132  0  3.947265  0
C  C298  1  0.90675341  0.08273735  0.24629628  1  -0.092015  0  -0.246493  -0.383456  0  3.947109  0
C  C299  1  0.33640713  0.66053081  0.25383749  1  -0.043328  0  -0.245549  -0.382205  0  3.947215  0
C  C300  1  0.32050204  0.94906988  0.89130378  1  0.30229  0  -0.059726  -0.016525  0  3.942355  0
C  C301  1  0.55792543  0.42938931  0.60873163  1  0.326512  0  -0.059217  -0.014597  0  3.941149  0
C  C302  1  0.67950963  0.05092927  0.10869531  1  0.302839  0  -0.059736  -0.0165  0  3.942471  0
C  C303  1  0.44206702  0.57061165  0.39126578  1  0.326221  0  -0.059231  -0.014779  0  3.941197  0
C  C304  1  0.40777853  0.98053472  0.87197213  1  -0.022021  0  -0.243791  -0.379279  0  3.946248  0
C  C305  1  0.60878505  0.53593829  0.62813325  1  -0.098471  0  -0.244103  -0.380278  0  3.945661  0
C  C306  1  0.59223489  0.01947572  0.12803542  1  -0.021008  0  -0.243847  -0.379269  0  3.94625  0
C  C307  1  0.39120440  0.46406309  0.37186184  1  -0.098765  0  -0.243973  -0.379916  0  3.945798  0
N  N308  1  0.50666107  0.98839192  0.60453847  1  -1.229797  0  -0.353436  -0.283641  0  3.6005  0
N  N309  1  0.88400183  0.90200458  0.89575036  1  -1.228302  0  -0.353498  -0.281762  0  3.598792  0
N  N310  1  0.49334086  0.01160858  0.39546264  1  -1.229671  0  -0.353478  -0.283671  0  3.600274  0
N  N311  1  0.11599525  0.09799122  0.10424806  1  -1.228099  0  -0.353523  -0.281757  0  3.598739  0
N  N312  1  0.36243426  0.02563700  0.56774226  1  -1.270569  0  -0.224584  0.007523  0  3.789379  0
N  N313  1  0.95798992  0.79445419  0.93222407  1  -1.261483  0  -0.22422  0.008695  0  3.786774  0
N  N314  1  0.63756468  0.97435991  0.43225807  1  -1.270741  0  -0.224508  0.007586  0  3.789366  0
N  N315  1  0.04200893  0.20554436  0.06777764  1  -1.261651  0  -0.224256  0.008576  0  3.787035  0
N  N316  1  0.25679218  0.01452915  0.88913192  1  -1.197419  0  -0.286375  -0.0876  0  3.640411  0
N  N317  1  0.62551774  0.36781153  0.61083419  1  -1.195676  0  -0.286915  -0.086965  0  3.63919  0
N  N318  1  0.74321103  0.98546421  0.11086232  1  -1.197621  0  -0.286259  -0.087625  0  3.640583  0
N  N319  1  0.37447846  0.63219304  0.38916479  1  -1.195487  0  -0.286875  -0.086656  0  3.63911  0
O  O320  1  0.62866608  0.03400278  0.78514619  1  -1.185545  0  -0.31644  -0.575717  0  2.387027  0
O  O321  1  0.74907633  0.84395865  0.71497952  1  -1.178213  0  -0.316235  -0.574827  0  2.386993  0
O  O322  1  0.37136398  0.96601423  0.21485739  1  -1.185471  0  -0.316394  -0.575749  0  2.386998  0
O  O323  1  0.25090554  0.15603312  0.28501536  1  -1.178298  0  -0.316258  -0.574883  0  2.387016  0
O  O324  1  0.74176031  0.06470980  0.92218722  1  -1.171113  0  -0.323798  -0.570095  0  2.278495  0
O  O325  1  0.64274358  0.82006909  0.57795387  1  -1.174204  0  -0.323764  -0.569535  0  2.278224  0
O  O326  1  0.25824769  0.93529402  0.07781931  1  -1.170938  0  -0.323737  -0.569998  0  2.278729  0
O  O327  1  0.35724333  0.17992053  0.42204094  1  -1.173969  0  -0.323747  -0.569565  0  2.278413  0
O  O328  1  0.73684400  0.03285982  0.68238430  1  -1.173967  0  -0.317094  -0.549736  0  2.352382  0
O  O329  1  0.85093239  0.05460176  0.81841434  1  -1.178339  0  -0.316434  -0.549576  0  2.352059  0
O  O330  1  0.26315895  0.96713306  0.31761042  1  -1.174149  0  -0.317093  -0.549722  0  2.352331  0
O  O331  1  0.14906920  0.94538956  0.18157975  1  -1.178128  0  -0.31643  -0.549568  0  2.351997  0
O  O332  1  0.64650160  0.84937677  0.81798729  1  -1.172869  0  -0.314326  -0.546888  0  2.362511  0
O  O333  1  0.53162743  0.82850278  0.68220590  1  -1.172371  0  -0.31443  -0.546407  0  2.363461  0
O  O334  1  0.35349261  0.15062872  0.18201711  1  -1.172603  0  -0.314349  -0.547004  0  2.362484  0
O  O335  1  0.46836656  0.17150997  0.31779975  1  -1.172611  0  -0.314441  -0.546499  0  2.363486  0
O  O336  1  0.21500440  0.13826221  0.96797707  1  -1.163954  0  -0.313563  -0.466572  0  2.198198  0
O  O337  1  0.67005977  0.24680319  0.53200865  1  -1.162171  0  -0.313525  -0.466184  0  2.196213  0
O  O338  1  0.78500355  0.86175182  0.03202114  1  -1.164081  0  -0.31346  -0.466416  0  2.198997  0
O  O339  1  0.32993971  0.75320683  0.46798842  1  -1.162266  0  -0.313454  -0.466118  0  2.196078  0
