# generated using pymatgen
data_AgH4C5SN2(OF)3
_symmetry_space_group_name_H-M   'P 1'
_cell_length_a   8.86041869
_cell_length_b   8.86043074
_cell_length_c   12.18625258
_cell_angle_alpha   88.17011989
_cell_angle_beta   88.17021084
_cell_angle_gamma   77.80622542
_symmetry_Int_Tables_number   1
_chemical_formula_structural   AgH4C5SN2(OF)3
_chemical_formula_sum   'Ag4 H16 C20 S4 N8 O12 F12'
_cell_volume   934.33572545
_cell_formula_units_Z   4
loop_
 _symmetry_equiv_pos_site_id
 _symmetry_equiv_pos_as_xyz
  1  'x, y, z'
loop_
 _atom_site_type_symbol
 _atom_site_label
 _atom_site_symmetry_multiplicity
 _atom_site_fract_x
 _atom_site_fract_y
 _atom_site_fract_z
 _atom_site_occupancy
 _atom_site_hle17_bader_spin_density
 _atom_site_hle17_ddec_charge
 _atom_site_hle17_ddec_spin_density
 _atom_site_hle17_ddec_sum_bond_order
 _atom_site_hle17_magmom
 _atom_site_hse06_10hf_bader_spin_density
 _atom_site_hse06_10hf_ddec_charge
 _atom_site_hse06_10hf_ddec_spin_density
 _atom_site_hse06_10hf_ddec_sum_bond_order
 _atom_site_hse06_10hf_magmom
 _atom_site_hse06_bader_spin_density
 _atom_site_hse06_ddec_charge
 _atom_site_hse06_ddec_spin_density
 _atom_site_hse06_ddec_sum_bond_order
 _atom_site_hse06_magmom
 _atom_site_pbe_bader_spin_density
 _atom_site_pbe_cm5_charge
 _atom_site_pbe_ddec_charge
 _atom_site_pbe_ddec_spin_density
 _atom_site_pbe_ddec_sum_bond_order
 _atom_site_pbe_magmom
Ag  Ag0  1  0.68317622  0.81405426  0.54159441  1  0  0.587752  0  1.346089  0  0  0.453554  0  1.772696  0  0  0.477313  0  1.72822  0  0  0.489485  0.438259  0  1.803102  0
Ag  Ag1  1  0.18594469  0.31682007  0.95841052  1  0  0.587789  0  1.346004  0  0  0.453584  0  1.772684  0  0  0.477334  0  1.728205  0  0  0.489495  0.438291  0  1.80309  0
Ag  Ag2  1  0.31682037  0.18594173  0.45840850  1  0  0.587752  0  1.346024  0  0  0.453569  0  1.772634  0  0  0.477327  0  1.728157  0  0  0.489478  0.43826  0  1.803037  0
Ag  Ag3  1  0.81405615  0.68318281  0.04159049  1  0  0.587747  0  1.346012  0  0  0.453566  0  1.772649  0  0  0.47732  0  1.728169  0  0  0.489486  0.438266  0  1.803052  0
H  H4  1  0.70318486  0.47891006  0.63328606  1  0  0.102733  0  0.957013  0  0  0.110722  0  1.020767  0  0  0.113256  0  1.01911  0  0  0.120143  0.108805  0  1.022151  0
H  H5  1  0.52109044  0.29681542  0.86671731  1  0  0.102782  0  0.956977  0  0  0.110746  0  1.02075  0  0  0.113278  0  1.019096  0  0  0.120154  0.10883  0  1.022129  0
H  H6  1  0.29681239  0.52108823  0.36671350  1  0  0.102728  0  0.956991  0  0  0.110728  0  1.020728  0  0  0.113262  0  1.019071  0  0  0.120137  0.108809  0  1.022113  0
H  H7  1  0.47890992  0.70318977  0.13328449  1  0  0.102698  0  0.95705  0  0  0.110694  0  1.020783  0  0  0.113227  0  1.019127  0  0  0.120123  0.108776  0  1.022166  0
H  H8  1  0.41419416  0.74797231  0.40585748  1  0  0.092067  0  0.947369  0  0  0.101456  0  1.010542  0  0  0.103473  0  1.0096  0  0  0.121444  0.099867  0  1.0115  0
H  H9  1  0.25202549  0.58580738  0.09414293  1  0  0.092066  0  0.947391  0  0  0.101484  0  1.010533  0  0  0.103501  0  1.009588  0  0  0.121459  0.099895  0  1.011493  0
H  H10  1  0.58580309  0.25202598  0.59414208  1  0  0.092049  0  0.947375  0  0  0.101448  0  1.01054  0  0  0.103465  0  1.009597  0  0  0.121424  0.099859  0  1.011499  0
H  H11  1  0.74797577  0.41419895  0.90586046  1  0  0.092032  0  0.947373  0  0  0.101399  0  1.010577  0  0  0.103417  0  1.00963  0  0  0.121383  0.099812  0  1.011533  0
H  H12  1  0.93449444  0.82695477  0.36622666  1  0  0.108474  0  0.941888  0  0  0.116739  0  1.006257  0  0  0.11938  0  1.004074  0  0  0.123871  0.11476  0  1.007985  0
H  H13  1  0.17304703  0.06549662  0.13377414  1  0  0.108517  0  0.941821  0  0  0.116736  0  1.006245  0  0  0.119384  0  1.004048  0  0  0.123849  0.114757  0  1.007975  0
H  H14  1  0.06550328  0.17304121  0.63377540  1  0  0.108468  0  0.941885  0  0  0.116724  0  1.006277  0  0  0.119367  0  1.004092  0  0  0.123852  0.114742  0  1.008014  0
H  H15  1  0.82695611  0.93450048  0.86622121  1  0  0.108539  0  0.94184  0  0  0.116769  0  1.006272  0  0  0.119415  0  1.00408  0  0  0.123894  0.114788  0  1.008003  0
H  H16  1  0.83522166  0.04754456  0.66436919  1  0  0.10189  0  0.946207  0  0  0.113706  0  1.005029  0  0  0.115587  0  1.004337  0  0  0.12415  0.112238  0  1.005801  0
H  H17  1  0.95245709  0.16477895  0.83563282  1  0  0.101922  0  0.946333  0  0  0.113754  0  1.00512  0  0  0.115634  0  1.004433  0  0  0.124182  0.112277  0  1.005902  0
H  H18  1  0.16477333  0.95245375  0.33563370  1  0  0.101904  0  0.946213  0  0  0.11373  0  1.005024  0  0  0.115611  0  1.004332  0  0  0.124172  0.112279  0  1.005778  0
H  H19  1  0.04754332  0.83522048  0.16436500  1  0  0.101881  0  0.946209  0  0  0.113736  0  1.004979  0  0  0.115621  0  1.004284  0  0  0.124173  0.112247  0  1.005776  0
C  C20  1  0.61178442  0.48862373  0.57399700  1  0  0.083637  0  3.648571  0  0  0.053035  0  3.895675  0  0  0.055666  0  3.913249  0  0  0.055305  0.050965  0  3.884444  0
C  C21  1  0.51138048  0.38822091  0.92600611  1  0  0.083468  0  3.648755  0  0  0.052902  0  3.895866  0  0  0.055533  0  3.913443  0  0  0.055172  0.050833  0  3.884635  0
C  C22  1  0.38821755  0.51137914  0.42600317  1  0  0.083595  0  3.648653  0  0  0.053015  0  3.895756  0  0  0.055645  0  3.913332  0  0  0.055256  0.050945  0  3.884522  0
C  C23  1  0.48862054  0.61178658  0.07399726  1  0  0.083652  0  3.648579  0  0  0.0531  0  3.895655  0  0  0.055731  0  3.913233  0  0  0.05531  0.051026  0  3.884419  0
C  C24  1  0.45248724  0.63706139  0.44840477  1  0  0.087855  0  3.648345  0  0  0.058646  0  3.893637  0  0  0.060951  0  3.912248  0  0  0.056004  0.05679  0  3.881731  0
C  C25  1  0.36293141  0.54751761  0.05159576  1  0  0.087849  0  3.64808  0  0  0.058631  0  3.893364  0  0  0.060939  0  3.911969  0  0  0.055968  0.056775  0  3.881459  0
C  C26  1  0.54751275  0.36293458  0.55159478  1  0  0.087809  0  3.648207  0  0  0.058628  0  3.893476  0  0  0.060934  0  3.912087  0  0  0.055959  0.056772  0  3.88157  0
C  C27  1  0.63706373  0.45249107  0.94840690  1  0  0.087943  0  3.648347  0  0  0.0588  0  3.893596  0  0  0.061109  0  3.912202  0  0  0.056156  0.05694  0  3.881684  0
C  C28  1  0.96364044  0.90460079  0.42592085  1  0  0.087068  0  3.637763  0  0  0.0564  0  3.885041  0  0  0.058776  0  3.903187  0  0  0.059416  0.054596  0  3.873249  0
C  C29  1  0.09540081  0.03635149  0.07407991  1  0  0.086944  0  3.637779  0  0  0.056359  0  3.885001  0  0  0.058739  0  3.903129  0  0  0.059418  0.054554  0  3.873203  0
C  C30  1  0.03635502  0.09539520  0.57408209  1  0  0.087057  0  3.637707  0  0  0.05641  0  3.884952  0  0  0.058793  0  3.90308  0  0  0.059392  0.054602  0  3.873126  0
C  C31  1  0.90460370  0.96364445  0.92591626  1  0  0.086955  0  3.637674  0  0  0.056288  0  3.884965  0  0  0.058672  0  3.90309  0  0  0.059327  0.054478  0  3.873176  0
C  C32  1  0.90970289  0.02666934  0.59102474  1  0  0.077663  0  3.650677  0  0  0.047782  0  3.895687  0  0  0.049681  0  3.915545  0  0  0.055726  0.046147  0  3.883011  0
C  C33  1  0.97333044  0.09029868  0.90897324  1  0  0.077646  0  3.650557  0  0  0.0478  0  3.895566  0  0  0.049693  0  3.915422  0  0  0.05566  0.04616  0  3.882907  0
C  C34  1  0.09029620  0.97332548  0.40897568  1  0  0.077607  0  3.650542  0  0  0.047722  0  3.895575  0  0  0.04962  0  3.915429  0  0  0.055631  0.046049  0  3.882906  0
C  C35  1  0.02667201  0.90970189  0.09102040  1  0  0.077735  0  3.650607  0  0  0.047827  0  3.895593  0  0  0.049721  0  3.915451  0  0  0.055679  0.046199  0  3.882929  0
C  C36  1  0.41549894  0.88207141  0.82968981  1  0  0.59891  0  3.673592  0  0  0.531634  0  4.03641  0  0  0.559517  0  4.010241  0  0  0.285154  0.511754  0  4.055267  0
C  C37  1  0.11792836  0.58449956  0.67031240  1  0  0.598814  0  3.673725  0  0  0.531598  0  4.036441  0  0  0.559468  0  4.010288  0  0  0.285167  0.511716  0  4.055303  0
C  C38  1  0.58450350  0.11792916  0.17031040  1  0  0.59898  0  3.673531  0  0  0.531698  0  4.036354  0  0  0.559587  0  4.010174  0  0  0.285161  0.511812  0  4.055218  0
C  C39  1  0.88207069  0.41550103  0.32968788  1  0  0.598785  0  3.673803  0  0  0.531581  0  4.036497  0  0  0.559456  0  4.010339  0  0  0.285149  0.511699  0  4.055357  0
S  S40  1  0.44931830  0.04557987  0.73769346  1  0  1.119732  0  5.824588  0  0  1.022803  0  6.356807  0  0  1.066145  0  6.337053  0  0  0.479075  0.993045  0  6.369591  0
S  S41  1  0.95442308  0.55067401  0.76230850  1  0  1.119934  0  5.824617  0  0  1.023041  0  6.35677  0  0  1.066382  0  6.33701  0  0  0.479138  0.993282  0  6.369552  0
S  S42  1  0.55068164  0.95442186  0.26230761  1  0  1.11973  0  5.824514  0  0  1.022798  0  6.356744  0  0  1.066142  0  6.336985  0  0  0.479074  0.993039  0  6.36953  0
S  S43  1  0.04557733  0.44932542  0.23769096  1  0  1.119917  0  5.824539  0  0  1.023017  0  6.356705  0  0  1.066357  0  6.336949  0  0  0.479159  0.993257  0  6.369485  0
N  N44  1  0.56442332  0.62597869  0.52203129  1  0  -0.242108  0  3.31229  0  0  -0.165812  0  3.596805  0  0  -0.178136  0  3.61022  0  0  -0.324481  -0.157672  0  3.588069  0
N  N45  1  0.37402257  0.43557742  0.97796779  1  0  -0.242107  0  3.312104  0  0  -0.165861  0  3.596678  0  0  -0.178187  0  3.610089  0  0  -0.324505  -0.157725  0  3.587945  0
N  N46  1  0.43557573  0.37402190  0.47796654  1  0  -0.242124  0  3.312215  0  0  -0.165874  0  3.596759  0  0  -0.178199  0  3.610173  0  0  -0.324486  -0.157732  0  3.58802  0
N  N47  1  0.62597756  0.56442892  0.02203317  1  0  -0.24214  0  3.312255  0  0  -0.165922  0  3.596797  0  0  -0.178251  0  3.61021  0  0  -0.324524  -0.15777  0  3.588044  0
N  N48  1  0.87345721  0.93133716  0.51716755  1  0  -0.23806  0  3.31922  0  0  -0.159342  0  3.600071  0  0  -0.17263  0  3.615267  0  0  -0.323105  -0.15044  0  3.589976  0
N  N49  1  0.06866402  0.12653953  0.98283491  1  0  -0.238071  0  3.319051  0  0  -0.159422  0  3.599937  0  0  -0.172701  0  3.615126  0  0  -0.32308  -0.150518  0  3.589837  0
N  N50  1  0.12654051  0.06865882  0.48283616  1  0  -0.238058  0  3.319032  0  0  -0.159359  0  3.599899  0  0  -0.172647  0  3.615097  0  0  -0.323061  -0.150418  0  3.589774  0
N  N51  1  0.93134003  0.87345872  0.01716204  1  0  -0.238047  0  3.319098  0  0  -0.159343  0  3.599984  0  0  -0.172631  0  3.615183  0  0  -0.323069  -0.150432  0  3.589869  0
O  O52  1  0.44171125  0.98557902  0.62747315  1  0  -0.637357  0  2.093895  0  0  -0.592254  0  2.387531  0  0  -0.611936  0  2.368987  0  0  -0.347261  -0.578373  0  2.399629  0
O  O53  1  0.01442277  0.55829056  0.87252727  1  0  -0.6374  0  2.093894  0  0  -0.592298  0  2.387516  0  0  -0.611978  0  2.368969  0  0  -0.34726  -0.578421  0  2.399625  0
O  O54  1  0.55828893  0.01442156  0.37252794  1  0  -0.637352  0  2.093941  0  0  -0.592254  0  2.387585  0  0  -0.611935  0  2.369037  0  0  -0.347254  -0.57838  0  2.399701  0
O  O55  1  0.98557990  0.44170885  0.12747215  1  0  -0.6374  0  2.09387  0  0  -0.592303  0  2.387494  0  0  -0.611982  0  2.368949  0  0  -0.347287  -0.57843  0  2.399615  0
O  O56  1  0.60250334  0.06747724  0.76582304  1  0  -0.613574  0  1.962956  0  0  -0.57904  0  2.209163  0  0  -0.597647  0  2.196505  0  0  -0.340368  -0.565767  0  2.217297  0
O  O57  1  0.93253200  0.39748635  0.73418219  1  0  -0.613553  0  1.96288  0  0  -0.579078  0  2.209124  0  0  -0.597684  0  2.196467  0  0  -0.340392  -0.565804  0  2.217257  0
O  O58  1  0.39749660  0.93252450  0.23417720  1  0  -0.613582  0  1.962922  0  0  -0.579052  0  2.209127  0  0  -0.597664  0  2.196476  0  0  -0.340377  -0.565776  0  2.217254  0
O  O59  1  0.06746841  0.60251307  0.26581728  1  0  -0.613547  0  1.962863  0  0  -0.579083  0  2.209111  0  0  -0.597687  0  2.196454  0  0  -0.340388  -0.565803  0  2.217241  0
O  O60  1  0.32146149  0.17196365  0.76629590  1  0  -0.618449  0  2.030725  0  0  -0.59075  0  2.31486  0  0  -0.609216  0  2.298769  0  0  -0.341782  -0.577675  0  2.325322  0
O  O61  1  0.82803194  0.67852324  0.73370625  1  0  -0.618572  0  2.030808  0  0  -0.590878  0  2.31492  0  0  -0.609378  0  2.298903  0  0  -0.341819  -0.577803  0  2.325384  0
O  O62  1  0.67853892  0.82803577  0.23370602  1  0  -0.618438  0  2.030654  0  0  -0.590751  0  2.314812  0  0  -0.60922  0  2.298726  0  0  -0.34178  -0.577676  0  2.325274  0
O  O63  1  0.17196847  0.32147618  0.26629403  1  0  -0.618548  0  2.030753  0  0  -0.590843  0  2.314851  0  0  -0.609335  0  2.298817  0  0  -0.341815  -0.577769  0  2.325318  0
F  F64  1  0.50377257  0.74528855  0.79846242  1  0  -0.226757  0  1.22911  0  0  -0.183433  0  1.399654  0  0  -0.194248  0  1.386037  0  0  -0.094501  -0.175892  0  1.409361  0
F  F65  1  0.25471436  0.49622485  0.70153578  1  0  -0.22673  0  1.229091  0  0  -0.183439  0  1.39963  0  0  -0.194253  0  1.386012  0  0  -0.094527  -0.175896  0  1.409335  0
F  F66  1  0.49623303  0.25471314  0.20153852  1  0  -0.226774  0  1.229136  0  0  -0.183478  0  1.399698  0  0  -0.194297  0  1.386078  0  0  -0.094492  -0.175919  0  1.40939  0
F  F67  1  0.74528581  0.50377573  0.29846285  1  0  -0.226742  0  1.229159  0  0  -0.183437  0  1.399688  0  0  -0.194252  0  1.386068  0  0  -0.094512  -0.175891  0  1.409389  0
F  F68  1  0.44822068  0.90555785  0.93509359  1  0  -0.239755  0  1.243469  0  0  -0.203081  0  1.427366  0  0  -0.213225  0  1.411945  0  0  -0.097042  -0.195872  0  1.438176  0
F  F69  1  0.09443915  0.55178599  0.56490769  1  0  -0.239731  0  1.243559  0  0  -0.203067  0  1.427432  0  0  -0.2132  0  1.41201  0  0  -0.09703  -0.195857  0  1.438242  0
F  F70  1  0.55177949  0.09444273  0.06490749  1  0  -0.23976  0  1.243496  0  0  -0.203081  0  1.427384  0  0  -0.213224  0  1.411959  0  0  -0.097027  -0.195873  0  1.438196  0
F  F71  1  0.90556013  0.44821344  0.43509180  1  0  -0.239707  0  1.243564  0  0  -0.203054  0  1.42744  0  0  -0.21319  0  1.412015  0  0  -0.097026  -0.195846  0  1.438251  0
F  F72  1  0.26527225  0.87016044  0.82803764  1  0  -0.231655  0  1.2255  0  0  -0.19269  0  1.395103  0  0  -0.202622  0  1.381329  0  0  -0.101133  -0.185451  0  1.404697  0
F  F73  1  0.12984046  0.73472508  0.67196614  1  0  -0.231645  0  1.225517  0  0  -0.192693  0  1.395104  0  0  -0.20262  0  1.381332  0  0  -0.101133  -0.185455  0  1.404698  0
F  F74  1  0.73473269  0.12983895  0.17196172  1  0  -0.231708  0  1.225425  0  0  -0.192696  0  1.394991  0  0  -0.202629  0  1.381213  0  0  -0.101164  -0.185459  0  1.404587  0
F  F75  1  0.87015859  0.26527551  0.32803168  1  0  -0.231624  0  1.225515  0  0  -0.192694  0  1.395115  0  0  -0.202624  0  1.381342  0  0  -0.10113  -0.185456  0  1.404709  0
