# generated using pymatgen
data_AlH12(C5O3)6
_symmetry_space_group_name_H-M   'P 1'
_cell_length_a   4.02465498
_cell_length_b   29.13683569
_cell_length_c   29.13693049
_cell_angle_alpha   119.99599458
_cell_angle_beta   90.00004311
_cell_angle_gamma   89.99987602
_symmetry_Int_Tables_number   1
_chemical_formula_structural   AlH12(C5O3)6
_chemical_formula_sum   'Al2 H24 C60 O36'
_cell_volume   2959.12286007
_cell_formula_units_Z   2
loop_
 _symmetry_equiv_pos_site_id
 _symmetry_equiv_pos_as_xyz
  1  'x, y, z'
loop_
 _atom_site_type_symbol
 _atom_site_label
 _atom_site_symmetry_multiplicity
 _atom_site_fract_x
 _atom_site_fract_y
 _atom_site_fract_z
 _atom_site_occupancy
 _atom_site_pbe_bader_charge
 _atom_site_pbe_bader_spin_density
 _atom_site_pbe_cm5_charge
 _atom_site_pbe_ddec_charge
 _atom_site_pbe_ddec_spin_density
 _atom_site_pbe_ddec_sum_bond_order
 _atom_site_pbe_magmom
Al  Al0  1  0.00011757  0.50000823  0.49999565  1  2.508092  0  0.437738  1.599638  0  2.572056  0
Al  Al1  1  0.99947462  0.16665851  0.83334499  1  2.507433  0  0.437299  1.597767  0  2.574963  0
H  H2  1  0.43491179  0.16656240  0.68627498  1  0.176199  0  0.130548  0.144394  0  0.957451  0
H  H3  1  0.56439071  0.31375177  0.83344860  1  0.176179  0  0.13053  0.144436  0  0.957613  0
H  H4  1  0.56448212  0.35292165  0.49987298  1  0.129901  0  0.130667  0.144662  0  0.957174  0
H  H5  1  0.43552398  0.50012411  0.64708025  1  0.12987  0  0.130702  0.144747  0  0.957146  0
H  H6  1  0.43488029  0.01967531  0.83342812  1  0.112816  0  0.130418  0.144106  0  0.957397  0
H  H7  1  0.56436701  0.01969325  0.68624799  1  0.120881  0  0.130504  0.144457  0  0.957742  0
H  H8  1  0.56446855  0.64695046  0.64707996  1  0.132117  0  0.13072  0.144737  0  0.957208  0
H  H9  1  0.43551573  0.64696176  0.49987291  1  0.191995  0  0.130653  0.144706  0  0.957042  0
H  H10  1  0.43491889  0.31372604  0.98029676  1  0.120884  0  0.130554  0.144394  0  0.957523  0
H  H11  1  0.56444369  0.16655818  0.98033923  1  0.112588  0  0.130557  0.144459  0  0.957594  0
H  H12  1  0.56448132  0.50013366  0.35304080  1  0.191824  0  0.130664  0.14474  0  0.957232  0
H  H13  1  0.43552185  0.35292700  0.35305076  1  0.132675  0  0.13076  0.144762  0  0.957101  0
H  H14  1  0.82894964  0.38124067  0.74672107  1  0.563481  0  0.306509  0.320987  0  0.962952  0
H  H15  1  0.17099057  0.25326194  0.61872583  1  0.563155  0  0.306561  0.320873  0  0.962593  0
H  H16  1  0.17099493  0.41352235  0.71466010  1  0.576166  0  0.306601  0.320136  0  0.96243  0
H  H17  1  0.82859956  0.28531683  0.58649184  1  0.581196  0  0.306732  0.32038  0  0.962455  0
H  H18  1  0.82875605  0.86546378  0.61874985  1  0.56389  0  0.306485  0.320852  0  0.962881  0
H  H19  1  0.17093333  0.86544488  0.74673326  1  0.566093  0  0.306515  0.320774  0  0.962885  0
H  H20  1  0.17102041  0.80114005  0.58645626  1  0.580024  0  0.306587  0.32026  0  0.96217  0
H  H21  1  0.82855517  0.80116873  0.71467179  1  0.575311  0  0.306553  0.32015  0  0.962458  0
H  H22  1  0.82897939  0.25329007  0.13454622  1  0.565609  0  0.306567  0.320928  0  0.9629  0
H  H23  1  0.17111871  0.38128844  0.13455164  1  0.564706  0  0.306657  0.320958  0  0.962656  0
H  H24  1  0.17104714  0.28535163  0.19886876  1  0.574547  0  0.306645  0.320197  0  0.962331  0
H  H25  1  0.82858617  0.41352562  0.19882656  1  0.58251  0  0.306729  0.320378  0  0.961947  0
C  C26  1  0.50007108  0.45950256  0.41899327  1  1.629629  0  0.285242  0.66837  0  4.047418  0
C  C27  1  0.50007369  0.45950285  0.54050406  1  1.622218  0  0.285266  0.66839  0  4.046851  0
C  C28  1  0.50005824  0.58101344  0.54050191  1  1.63058  0  0.285143  0.668178  0  4.04695  0
C  C29  1  0.49950856  0.20718574  0.79284218  1  1.568604  0  0.286227  0.666901  0  4.049638  0
C  C30  1  0.49951655  0.08563340  0.79281882  1  1.569209  0  0.286328  0.666996  0  4.049517  0
C  C31  1  0.49950620  0.20715972  0.91437104  1  1.569189  0  0.286554  0.666971  0  4.049039  0
C  C32  1  0.49961275  0.23670670  0.76330700  1  -0.119824  0  0.004084  -0.008479  0  3.950181  0
C  C33  1  0.46190772  0.20952717  0.70837713  1  0.064878  0  -0.056902  -0.086358  0  3.909679  0
C  C34  1  0.46585574  0.23644010  0.68003534  1  -0.054297  0  -0.008098  -0.09088  0  3.950238  0
C  C35  1  0.49980874  0.29277572  0.70722187  1  0.134239  0  -0.011315  0.054542  0  4.091918  0
C  C36  1  0.53368735  0.31997092  0.76355687  1  -0.054296  0  -0.007709  -0.090026  0  3.949014  0
C  C37  1  0.53744932  0.29164162  0.79048785  1  0.064522  0  -0.057153  -0.086707  0  3.908577  0
C  C38  1  0.49989306  0.32111856  0.67887098  1  -0.251537  0  -0.05212  -0.149971  0  4.183089  0
C  C39  1  0.49994511  0.34554870  0.65443688  1  -0.289399  0  -0.0507  -0.146101  0  4.18004  0
C  C40  1  0.49998471  0.37389808  0.62609729  1  0.190122  0  -0.010337  0.052998  0  4.093033  0
C  C41  1  0.53364728  0.34671434  0.56976386  1  -0.047478  0  -0.008029  -0.08946  0  3.950283  0
C  C42  1  0.53757045  0.37503842  0.54284153  1  -0.029865  0  -0.057921  -0.086706  0  3.91074  0
C  C43  1  0.50002167  0.42997221  0.57002559  1  0.010117  0  0.005495  -0.010142  0  3.952894  0
C  C44  1  0.46243578  0.45715573  0.62495905  1  -0.029999  0  -0.057921  -0.086719  0  3.91064  0
C  C45  1  0.46631700  0.43023117  0.65328089  1  -0.047296  0  -0.008076  -0.089576  0  3.950618  0
C  C46  1  0.49959381  0.02658019  0.76328923  1  0.028424  0  0.004029  -0.008279  0  3.950193  0
C  C47  1  0.46189189  0.99882229  0.79046244  1  0.129324  0  -0.056994  -0.086331  0  3.90945  0
C  C48  1  0.46583530  0.94356842  0.76354562  1  -0.058177  0  -0.00796  -0.090503  0  3.950107  0
C  C49  1  0.49980847  0.91443171  0.70721104  1  0.094164  0  -0.011272  0.054541  0  4.091664  0
C  C50  1  0.53365718  0.94358160  0.68002230  1  -0.050813  0  -0.007638  -0.089928  0  3.948998  0
C  C51  1  0.53741380  0.99884009  0.70835460  1  0.044134  0  -0.057032  -0.086838  0  3.908899  0
C  C52  1  0.49987081  0.85773960  0.67886549  1  -0.277167  0  -0.052255  -0.150109  0  4.182774  0
C  C53  1  0.49992815  0.80887909  0.65443836  1  -0.244535  0  -0.050606  -0.145996  0  4.180149  0
C  C54  1  0.49998055  0.75219435  0.62609504  1  0.015684  0  -0.010597  0.052813  0  4.093266  0
C  C55  1  0.53364073  0.72304735  0.65328431  1  0.038204  0  -0.008041  -0.089505  0  3.950308  0
C  C56  1  0.53755930  0.66780315  0.62496312  1  -0.157982  0  -0.057891  -0.086703  0  3.910618  0
C  C57  1  0.50000086  0.64006103  0.57003025  1  0.007086  0  0.005541  -0.010024  0  3.952948  0
C  C58  1  0.46241240  0.66780754  0.54284264  1  -0.021996  0  -0.057818  -0.086663  0  3.910801  0
C  C59  1  0.46630817  0.72305050  0.56976282  1  0.013179  0  -0.008048  -0.089466  0  3.950935  0
C  C60  1  0.49965272  0.23669709  0.97342588  1  0.023835  0  0.004052  -0.008103  0  3.949914  0
C  C61  1  0.46192899  0.29162721  0.00116346  1  0.044267  0  -0.057054  -0.08658  0  3.909158  0
C  C62  1  0.46587957  0.31997378  0.05641780  1  -0.049919  0  -0.007986  -0.090914  0  3.949929  0
C  C63  1  0.49985282  0.29279167  0.08557235  1  0.098351  0  -0.011196  0.055036  0  4.091892  0
C  C64  1  0.53374663  0.23645456  0.05644281  1  -0.048829  0  -0.007657  -0.090388  0  3.949713  0
C  C65  1  0.53750602  0.20952047  0.00118374  1  0.124646  0  -0.057211  -0.086872  0  3.908965  0
C  C66  1  0.49990493  0.32114321  0.14226036  1  -0.281607  0  -0.052329  -0.150445  0  4.182976  0
C  C67  1  0.49994214  0.34557412  0.19112172  1  -0.227136  0  -0.050506  -0.145737  0  4.179986  0
C  C68  1  0.49997935  0.37391341  0.24780620  1  -0.003308  0  -0.010445  0.053067  0  4.093273  0
C  C69  1  0.53365158  0.43024584  0.27695207  1  0.013359  0  -0.007925  -0.089348  0  3.95038  0
C  C70  1  0.53759471  0.45716542  0.33219545  1  -0.021061  0  -0.057931  -0.086781  0  3.910761  0
C  C71  1  0.50002394  0.42997782  0.35994433  1  0.006175  0  0.0056  -0.010133  0  3.952934  0
C  C72  1  0.46241844  0.37504628  0.33219934  1  -0.158617  0  -0.057984  -0.086558  0  3.910428  0
C  C73  1  0.46630705  0.34672608  0.27695432  1  0.038693  0  -0.008152  -0.08997  0  3.95089  0
C  C74  1  0.55790287  0.37925089  0.79927452  1  1.567761  0  0.229136  0.550875  0  4.138774  0
C  C75  1  0.44184881  0.20070701  0.62075518  1  1.567515  0  0.229512  0.55179  0  4.138126  0
C  C76  1  0.44265028  0.46597063  0.71256224  1  1.56583  0  0.230094  0.551078  0  4.138587  0
C  C77  1  0.55729922  0.28743249  0.53401857  1  1.567485  0  0.230185  0.551176  0  4.138695  0
C  C78  1  0.55790526  0.92002989  0.62074254  1  1.559483  0  0.229133  0.550681  0  4.138705  0
C  C79  1  0.44186568  0.92001389  0.79927349  1  1.562096  0  0.229465  0.551024  0  4.139096  0
C  C80  1  0.44268861  0.74659202  0.53401915  1  1.573382  0  0.230042  0.550743  0  4.139569  0
C  C81  1  0.55733216  0.74657770  0.71256688  1  1.588179  0  0.230228  0.55101  0  4.139106  0
C  C82  1  0.55788304  0.20073691  0.08000801  1  1.562334  0  0.229162  0.550914  0  4.139057  0
C  C83  1  0.44184249  0.37924900  0.07995369  1  1.559251  0  0.229604  0.551901  0  4.138495  0
C  C84  1  0.44261333  0.28744613  0.25342043  1  1.587249  0  0.23017  0.551231  0  4.138758  0
C  C85  1  0.55728324  0.46599826  0.25341730  1  1.574166  0  0.230143  0.550776  0  4.139625  0
O  O86  1  0.73493811  0.55803099  0.55055909  1  -1.250849  0  -0.230948  -0.590913  0  2.341692  0
O  O87  1  0.73494326  0.49254285  0.44197203  1  -1.256348  0  -0.231075  -0.591053  0  2.342097  0
O  O88  1  0.73495843  0.44944561  0.50746529  1  -1.250283  0  -0.231131  -0.591046  0  2.34176  0
O  O89  1  0.26520091  0.55803168  0.50745508  1  -1.256261  0  -0.23135  -0.591422  0  2.341729  0
O  O90  1  0.26518634  0.49254477  0.55056586  1  -1.249864  0  -0.231279  -0.59138  0  2.341535  0
O  O91  1  0.26518393  0.44943997  0.44197337  1  -1.249933  0  -0.231274  -0.59134  0  2.34207  0
O  O92  1  0.73432893  0.17411779  0.89137528  1  -1.253827  0  -0.231402  -0.590587  0  2.342327  0
O  O93  1  0.73432122  0.21722755  0.82588185  1  -1.253721  0  -0.231362  -0.590655  0  2.34271  0
O  O94  1  0.73433905  0.10862999  0.78277826  1  -1.257017  0  -0.231311  -0.590619  0  2.342807  0
O  O95  1  0.26453195  0.21721295  0.89139220  1  -1.257949  0  -0.231574  -0.590448  0  2.342311  0
O  O96  1  0.26455473  0.10860930  0.82585653  1  -1.254266  0  -0.231394  -0.590444  0  2.342387  0
O  O97  1  0.26453451  0.17415075  0.78278524  1  -1.254256  0  -0.231289  -0.590304  0  2.342301  0
O  O98  1  0.74887811  0.40612646  0.78233567  1  -1.059188  0  -0.31455  -0.412608  0  2.298185  0
O  O99  1  0.41958040  0.40134810  0.84190644  1  -1.071323  0  -0.241995  -0.384712  0  2.04189  0
O  O100  1  0.25103483  0.21763950  0.59385536  1  -1.057515  0  -0.314703  -0.412652  0  2.29766  0
O  O101  1  0.58016145  0.15807604  0.59868091  1  -1.072227  0  -0.242295  -0.385213  0  2.041439  0
O  O102  1  0.25189117  0.44909324  0.73951550  1  -1.071881  0  -0.31477  -0.411484  0  2.296341  0
O  O103  1  0.58140238  0.50856453  0.73463438  1  -1.073799  0  -0.242934  -0.385581  0  2.042303  0
O  O104  1  0.74795670  0.26047300  0.55090053  1  -1.07865  0  -0.315003  -0.411896  0  2.296743  0
O  O105  1  0.41865137  0.26536747  0.49141562  1  -1.073828  0  -0.2429  -0.385472  0  2.042174  0
O  O106  1  0.74886341  0.87621188  0.59386808  1  -1.054981  0  -0.314618  -0.412446  0  2.297952  0
O  O107  1  0.41968460  0.94057405  0.59864530  1  -1.066408  0  -0.242039  -0.384647  0  2.041728  0
O  O108  1  0.25106441  0.87618634  0.78234869  1  -1.057409  0  -0.314547  -0.412267  0  2.298355  0
O  O109  1  0.58024023  0.94056184  0.84190063  1  -1.073032  0  -0.242326  -0.384896  0  2.041486  0
O  O110  1  0.25195158  0.79042055  0.55088541  1  -1.074788  0  -0.314717  -0.411546  0  2.296454  0
O  O111  1  0.58148813  0.72607008  0.49142838  1  -1.076553  0  -0.242828  -0.385308  0  2.042596  0
O  O112  1  0.74799182  0.79041691  0.73951889  1  -1.070359  0  -0.314848  -0.411593  0  2.296799  0
O  O113  1  0.41872909  0.72603470  0.73463353  1  -1.065659  0  -0.242952  -0.385454  0  2.042312  0
O  O114  1  0.74886087  0.21767778  0.12382343  1  -1.057544  0  -0.314536  -0.412374  0  2.29831  0
O  O115  1  0.41953843  0.15810592  0.05947887  1  -1.072846  0  -0.242169  -0.384857  0  2.041784  0
O  O116  1  0.25106333  0.40615297  0.12378395  1  -1.055805  0  -0.314777  -0.412654  0  2.297714  0
O  O117  1  0.58010018  0.40132315  0.05938966  1  -1.065965  0  -0.242422  -0.385365  0  2.041657  0
O  O118  1  0.25185916  0.26049571  0.20959279  1  -1.068773  0  -0.314855  -0.411588  0  2.296557  0
O  O119  1  0.58131353  0.26537524  0.27395092  1  -1.065021  0  -0.242944  -0.385587  0  2.042131  0
O  O120  1  0.74792818  0.44911805  0.20957543  1  -1.077127  0  -0.315042  -0.411832  0  2.296415  0
O  O121  1  0.41861031  0.50859957  0.27395355  1  -1.077305  0  -0.242921  -0.385336  0  2.042502  0
