# generated using pymatgen
data_CdH13C18N3O4
_symmetry_space_group_name_H-M   'P 1'
_cell_length_a   11.78977754
_cell_length_b   14.24865000
_cell_length_c   17.46496903
_cell_angle_alpha   90.00024718
_cell_angle_beta   89.99953195
_cell_angle_gamma   89.99997188
_symmetry_Int_Tables_number   1
_chemical_formula_structural   CdH13C18N3O4
_chemical_formula_sum   'Cd4 H52 C72 N12 O16'
_cell_volume   2933.91244463
_cell_formula_units_Z   4
loop_
 _symmetry_equiv_pos_site_id
 _symmetry_equiv_pos_as_xyz
  1  'x, y, z'
loop_
 _atom_site_type_symbol
 _atom_site_label
 _atom_site_symmetry_multiplicity
 _atom_site_fract_x
 _atom_site_fract_y
 _atom_site_fract_z
 _atom_site_occupancy
 _atom_site_pbe_bader_charge
 _atom_site_pbe_bader_spin_density
 _atom_site_pbe_cm5_charge
 _atom_site_pbe_ddec_charge
 _atom_site_pbe_ddec_spin_density
 _atom_site_pbe_ddec_sum_bond_order
 _atom_site_pbe_magmom
Cd  Cd0  1  0.98404813  0.36366492  0.98438444  1  1.285151  0  0.770799  0.876461  0  2.24089  0
Cd  Cd1  1  0.98404034  0.63634714  0.01561424  1  1.285155  0  0.770777  0.876425  0  2.240892  0
Cd  Cd2  1  0.01595282  0.86365300  0.51562048  1  1.285183  0  0.77079  0.876378  0  2.240927  0
Cd  Cd3  1  0.01595322  0.13634261  0.48437781  1  1.285169  0  0.770753  0.876313  0  2.240993  0
H  H4  1  0.78166419  0.37445094  0.86590098  1  0.135952  0  0.126427  0.10373  0  0.983785  0
H  H5  1  0.78166346  0.62554788  0.13410053  1  0.135936  0  0.126425  0.103777  0  0.983712  0
H  H6  1  0.21833590  0.87445289  0.63410055  1  0.135934  0  0.126438  0.103822  0  0.983678  0
H  H7  1  0.21833605  0.12554896  0.36589892  1  0.135908  0  0.126409  0.103757  0  0.98374  0
H  H8  1  0.77345322  0.36822166  0.10254207  1  0.128287  0  0.124382  0.099429  0  0.983493  0
H  H9  1  0.77345766  0.63177996  0.89746006  1  0.128324  0  0.124393  0.099443  0  0.983489  0
H  H10  1  0.22654190  0.86822291  0.39745824  1  0.128293  0  0.124416  0.099465  0  0.983427  0
H  H11  1  0.22654088  0.13177684  0.60254004  1  0.128327  0  0.124414  0.099461  0  0.983444  0
H  H12  1  0.56190299  0.36863579  0.10482723  1  0.100736  0  0.110542  0.114297  0  0.997824  0
H  H13  1  0.56190916  0.63136452  0.89517493  1  0.100768  0  0.110554  0.114303  0  0.997816  0
H  H14  1  0.43809298  0.86863553  0.39517365  1  0.100717  0  0.110536  0.114259  0  0.997852  0
H  H15  1  0.43809108  0.13136343  0.60482403  1  0.100793  0  0.110544  0.114309  0  0.997805  0
H  H16  1  0.56991979  0.37263675  0.85719557  1  0.083225  0  0.112504  0.11817  0  0.991357  0
H  H17  1  0.56992065  0.62736145  0.14280368  1  0.083242  0  0.11251  0.118191  0  0.991328  0
H  H18  1  0.43007946  0.87263726  0.64280367  1  0.083264  0  0.112518  0.11819  0  0.991328  0
H  H19  1  0.43007971  0.12736450  0.35719292  1  0.083179  0  0.112514  0.118166  0  0.991321  0
H  H20  1  0.01111506  0.69782107  0.74993325  1  0.091981  0  0.095349  0.103856  0  1.055123  0
H  H21  1  0.01111566  0.30217736  0.25006794  1  0.091965  0  0.095365  0.103883  0  1.055062  0
H  H22  1  0.98888514  0.19781982  0.75006652  1  0.091977  0  0.095357  0.103891  0  1.0551  0
H  H23  1  0.98888459  0.80217751  0.24993271  1  0.091959  0  0.095344  0.103853  0  1.055091  0
H  H24  1  0.19137793  0.29302162  0.08064828  1  0.143719  0  0.123009  0.099155  0  1.004047  0
H  H25  1  0.19138122  0.70697603  0.91935305  1  0.143755  0  0.122993  0.099123  0  1.004024  0
H  H26  1  0.80862063  0.79302063  0.41935233  1  0.14821  0  0.123006  0.099148  0  1.004055  0
H  H27  1  0.80862067  0.20697677  0.58064560  1  0.14379  0  0.122986  0.099119  0  1.004012  0
H  H28  1  0.40270421  0.28675432  0.08352259  1  0.064883  0  0.113137  0.120098  0  0.98958  0
H  H29  1  0.40270159  0.71324324  0.91647815  1  0.064885  0  0.113128  0.120084  0  0.989652  0
H  H30  1  0.59729690  0.78675341  0.41647743  1  0.065122  0  0.113126  0.120073  0  0.989622  0
H  H31  1  0.59729860  0.21324548  0.58351937  1  0.065193  0  0.113169  0.120102  0  0.989659  0
H  H32  1  0.40247036  0.45121550  0.87504103  1  0.064528  0  0.109519  0.112928  0  0.99881  0
H  H33  1  0.40246978  0.54878347  0.12496028  1  0.064504  0  0.109532  0.112939  0  0.998763  0
H  H34  1  0.59752799  0.95121656  0.62495733  1  0.064541  0  0.109521  0.112939  0  0.998832  0
H  H35  1  0.59752977  0.04878233  0.37503947  1  0.064477  0  0.109529  0.11295  0  0.998781  0
H  H36  1  0.19053927  0.44833529  0.88040148  1  0.127932  0  0.124121  0.100135  0  0.980957  0
H  H37  1  0.19053876  0.55166377  0.11959871  1  0.127913  0  0.124127  0.100147  0  0.981034  0
H  H38  1  0.80945993  0.94833482  0.61959802  1  0.127959  0  0.124118  0.10014  0  0.980945  0
H  H39  1  0.80946164  0.05166187  0.38040220  1  0.127838  0  0.124147  0.100179  0  0.980993  0
H  H40  1  0.96900373  0.51529220  0.55715525  1  0.043783  0  0.101352  0.113815  0  1.031288  0
H  H41  1  0.96900443  0.48470584  0.44284580  1  0.043451  0  0.101353  0.113818  0  1.031295  0
H  H42  1  0.03099403  0.01529235  0.94284501  1  0.04347  0  0.101355  0.113821  0  1.031303  0
H  H43  1  0.03099401  0.98470677  0.05715491  1  0.043791  0  0.101345  0.113778  0  1.031319  0
H  H44  1  0.96190640  0.40102724  0.78670601  1  0.112405  0  0.098305  0.125977  0  1.045395  0
H  H45  1  0.96190896  0.59897080  0.21329509  1  0.112425  0  0.09831  0.126002  0  1.04544  0
H  H46  1  0.03809453  0.90102478  0.71329333  1  0.112336  0  0.098282  0.125957  0  1.045494  0
H  H47  1  0.03809141  0.09897223  0.28670656  1  0.11238  0  0.098289  0.125953  0  1.04544  0
H  H48  1  0.96325323  0.30135573  0.66740931  1  0.435977  0  0.289034  0.293114  0  0.984999  0
H  H49  1  0.96325429  0.69864090  0.33259178  1  0.435864  0  0.28906  0.293186  0  0.984943  0
H  H50  1  0.03674436  0.80135741  0.83258910  1  0.435815  0  0.289075  0.293136  0  0.984982  0
H  H51  1  0.03674432  0.19864241  0.16740908  1  0.435838  0  0.28909  0.293201  0  0.985024  0
H  H52  1  0.95889828  0.35089002  0.57964000  1  0.472011  0  0.286642  0.308213  0  0.999758  0
H  H53  1  0.95890085  0.64910802  0.42036168  1  0.471981  0  0.286639  0.308225  0  0.999732  0
H  H54  1  0.04109928  0.85089075  0.92035973  1  0.472011  0  0.286636  0.308193  0  0.999766  0
H  H55  1  0.04109779  0.14910766  0.07963842  1  0.471979  0  0.286634  0.308255  0  0.999722  0
C  C56  1  0.72890716  0.37357240  0.91725765  1  0.490847  0  0.057859  0.106228  0  3.93366  0
C  C57  1  0.72890874  0.62643064  0.08274359  1  0.49119  0  0.057885  0.106247  0  3.93363  0
C  C58  1  0.27109124  0.87357337  0.58274331  1  0.490815  0  0.0578  0.106102  0  3.933495  0
C  C59  1  0.27109076  0.12643057  0.41725587  1  0.491215  0  0.057852  0.10621  0  3.933607  0
C  C60  1  0.72447806  0.36977396  0.04953896  1  0.454462  0  0.055901  0.105521  0  3.945642  0
C  C61  1  0.72448017  0.63023049  0.95046172  1  0.454374  0  0.055904  0.105495  0  3.945679  0
C  C62  1  0.27551960  0.86977336  0.45046020  1  0.454366  0  0.055856  0.105473  0  3.945512  0
C  C63  1  0.27551922  0.13022777  0.54953780  1  0.454408  0  0.055876  0.105489  0  3.945645  0
C  C64  1  0.60659034  0.36901672  0.05021550  1  -0.034601  0  -0.081462  -0.17818  0  3.956053  0
C  C65  1  0.60659499  0.63098918  0.94978526  1  -0.034671  0  -0.081502  -0.178113  0  3.956151  0
C  C66  1  0.39340478  0.86901537  0.44978367  1  -0.034552  0  -0.081429  -0.178091  0  3.9561  0
C  C67  1  0.39340524  0.13098501  0.55021369  1  -0.034527  0  -0.081411  -0.178107  0  3.956162  0
C  C68  1  0.61105254  0.37294499  0.91306615  1  -0.022878  0  -0.080546  -0.174898  0  3.944571  0
C  C69  1  0.61105323  0.62705460  0.08693287  1  -0.022829  0  -0.080605  -0.174992  0  3.944621  0
C  C70  1  0.38894585  0.87294522  0.58693366  1  -0.022874  0  -0.080527  -0.174876  0  3.94458  0
C  C71  1  0.38894797  0.12705656  0.41306487  1  -0.022838  0  -0.08056  -0.174952  0  3.944544  0
C  C72  1  0.54688129  0.37047196  0.98070858  1  0.030622  0  0.011988  0.102842  0  3.992872  0
C  C73  1  0.54688364  0.62953116  0.01929079  1  0.030835  0  0.012058  0.102859  0  3.993041  0
C  C74  1  0.45311541  0.87047041  0.51929064  1  0.030662  0  0.011991  0.102829  0  3.993024  0
C  C75  1  0.45311671  0.12953064  0.48070753  1  0.030738  0  0.011958  0.102831  0  3.993099  0
C  C76  1  0.98718712  0.56947287  0.86116843  1  1.491535  0  0.194325  0.563644  0  4.220228  0
C  C77  1  0.98719069  0.43052586  0.13883310  1  1.491484  0  0.194289  0.56369  0  4.220232  0
C  C78  1  0.01281654  0.06947283  0.63883088  1  1.491523  0  0.194339  0.563665  0  4.220245  0
C  C79  1  0.01281882  0.93052770  0.36116858  1  1.491619  0  0.194378  0.563649  0  4.220246  0
C  C80  1  0.42161600  0.36968314  0.97963592  1  -0.047016  0  0.00997  0.097249  0  3.998268  0
C  C81  1  0.42161664  0.63031723  0.02036300  1  -0.047091  0  0.009945  0.097151  0  3.998308  0
C  C82  1  0.57838240  0.86968224  0.52036215  1  -0.047012  0  0.009978  0.097116  0  3.998367  0
C  C83  1  0.57838287  0.13031806  0.47963590  1  -0.047058  0  0.00997  0.097203  0  3.998242  0
C  C84  1  0.99798880  0.62770329  0.72755189  1  -0.00647  0  -0.111034  -0.165088  0  4.012637  0
C  C85  1  0.99798823  0.37229614  0.27244843  1  -0.006431  0  -0.111042  -0.165129  0  4.012569  0
C  C86  1  0.00201229  0.12770466  0.77244934  1  -0.006438  0  -0.111033  -0.165166  0  4.012443  0
C  C87  1  0.00201197  0.87229517  0.22755132  1  -0.006459  0  -0.110985  -0.165048  0  4.012373  0
C  C88  1  0.24196693  0.32746054  0.03643857  1  0.446447  0  0.0578  0.108119  0  3.929099  0
C  C89  1  0.24197055  0.67253779  0.96356192  1  0.4465  0  0.057806  0.10815  0  3.929011  0
C  C90  1  0.75802991  0.82746051  0.46355988  1  0.442035  0  0.0578  0.1081  0  3.928841  0
C  C91  1  0.75802882  0.17253831  0.53643833  1  0.446446  0  0.057833  0.108211  0  3.928991  0
C  C92  1  0.35985295  0.32486028  0.03778379  1  0.019844  0  -0.079372  -0.174273  0  3.940697  0
C  C93  1  0.35985403  0.67513941  0.96221605  1  0.019853  0  -0.07939  -0.174274  0  3.940781  0
C  C94  1  0.64014390  0.82486099  0.46221465  1  0.019583  0  -0.079373  -0.174184  0  3.94068  0
C  C95  1  0.64014703  0.17513999  0.53778306  1  0.019551  0  -0.079449  -0.174329  0  3.940856  0
C  C96  1  0.00469263  0.69722622  0.59656798  1  1.54326  0  0.187906  0.563631  0  4.221495  0
C  C97  1  0.00469306  0.30277431  0.40343267  1  1.543308  0  0.18785  0.563586  0  4.221568  0
C  C98  1  0.99530588  0.19722718  0.90343350  1  1.543334  0  0.187876  0.563691  0  4.221474  0
C  C99  1  0.99530719  0.80277365  0.09656798  1  1.543667  0  0.187825  0.563589  0  4.221597  0
C  C100  1  0.35964316  0.41435109  0.92145972  1  0.008097  0  -0.081085  -0.175671  0  3.952304  0
C  C101  1  0.35964397  0.58564720  0.07854012  1  0.007833  0  -0.081066  -0.175578  0  3.95221  0
C  C102  1  0.64035522  0.91435048  0.57853909  1  0.008001  0  -0.081062  -0.175577  0  3.952259  0
C  C103  1  0.64035556  0.08564629  0.42145920  1  0.007798  0  -0.081091  -0.175682  0  3.95236  0
C  C104  1  0.24168248  0.41385283  0.92426738  1  0.448923  0  0.055714  0.105698  0  3.940616  0
C  C105  1  0.24168332  0.58614831  0.07573425  1  0.449142  0  0.055667  0.105606  0  3.940799  0
C  C106  1  0.75831590  0.91385005  0.57573372  1  0.449132  0  0.055684  0.105632  0  3.940708  0
C  C107  1  0.75831451  0.08614597  0.42426563  1  0.449008  0  0.055698  0.105677  0  3.940737  0
C  C108  1  0.99242344  0.61420566  0.64848905  1  -0.040805  0  -0.029741  -0.018648  0  4.048333  0
C  C109  1  0.99242615  0.38579447  0.35151131  1  -0.041292  0  -0.029772  -0.018618  0  4.048269  0
C  C110  1  0.00757596  0.11420465  0.85151271  1  -0.041252  0  -0.029799  -0.0187  0  4.048319  0
C  C111  1  0.00757574  0.88579519  0.14848792  1  -0.041281  0  -0.029776  -0.018704  0  4.048377  0
C  C112  1  0.97387792  0.52454867  0.61897786  1  -0.011418  0  -0.095627  -0.201628  0  3.89712  0
C  C113  1  0.97387683  0.47545006  0.38102259  1  -0.011476  0  -0.095614  -0.20165  0  3.897163  0
C  C114  1  0.02612408  0.02454921  0.88102186  1  -0.011504  0  -0.095654  -0.201673  0  3.897186  0
C  C115  1  0.02612077  0.97544991  0.11897752  1  -0.011477  0  -0.095561  -0.201476  0  3.897193  0
C  C116  1  0.96918666  0.46049523  0.74755057  1  -0.082627  0  -0.107811  -0.230094  0  3.903138  0
C  C117  1  0.96918708  0.53950491  0.25244934  1  -0.082722  0  -0.107823  -0.230166  0  3.903326  0
C  C118  1  0.03081763  0.96049368  0.75244840  1  -0.082622  0  -0.107809  -0.230179  0  3.90319  0
C  C119  1  0.03081332  0.03950544  0.24755210  1  -0.082687  0  -0.107807  -0.230093  0  3.903211  0
C  C120  1  0.96232187  0.44606207  0.66763401  1  0.409374  0  0.090509  0.307481  0  4.103992  0
C  C121  1  0.96232048  0.55393737  0.33236650  1  0.409007  0  0.090478  0.307525  0  4.104043  0
C  C122  1  0.03768496  0.94606234  0.83236662  1  0.409259  0  0.090559  0.307609  0  4.103878  0
C  C123  1  0.03767822  0.05393677  0.16763384  1  0.409005  0  0.090495  0.307479  0  4.104099  0
C  C124  1  0.98558201  0.55110248  0.77692434  1  0.01188  0  -0.038252  -0.041878  0  4.078335  0
C  C125  1  0.98557776  0.44889765  0.22307777  1  0.011889  0  -0.038274  -0.041873  0  4.078368  0
C  C126  1  0.01442421  0.05110149  0.72307720  1  0.011954  0  -0.038289  -0.041858  0  4.078126  0
C  C127  1  0.01442156  0.94889694  0.27692339  1  0.011959  0  -0.038327  -0.041936  0  4.07828  0
N  N128  1  0.78466184  0.37217033  0.98435008  1  -1.213028  0  -0.316326  -0.217969  0  3.482144  0
N  N129  1  0.78466084  0.62783480  0.01565085  1  -1.213314  0  -0.316286  -0.217952  0  3.48234  0
N  N130  1  0.21533741  0.87217026  0.51565030  1  -1.213035  0  -0.316292  -0.217918  0  3.482045  0
N  N131  1  0.21533612  0.12783370  0.48434862  1  -1.213308  0  -0.316303  -0.217937  0  3.482309  0
N  N132  1  0.18391685  0.37200622  0.98107260  1  -1.215345  0  -0.317241  -0.222811  0  3.48327  0
N  N133  1  0.18391835  0.62799424  0.01892935  1  -1.215285  0  -0.317229  -0.222783  0  3.483195  0
N  N134  1  0.81608070  0.87200311  0.51892892  1  -1.215287  0  -0.317261  -0.22281  0  3.483134  0
N  N135  1  0.81608030  0.12799358  0.48107069  1  -1.215302  0  -0.31723  -0.222824  0  3.483099  0
N  N136  1  0.94077800  0.35880601  0.63653223  1  -1.239553  0  -0.610319  -0.639501  0  3.313978  0
N  N137  1  0.94078042  0.64119204  0.36346955  1  -1.238973  0  -0.61033  -0.639601  0  3.313967  0
N  N138  1  0.05922210  0.85880714  0.86346810  1  -1.239247  0  -0.610342  -0.639488  0  3.313971  0
N  N139  1  0.05921738  0.14119267  0.13653110  1  -1.238918  0  -0.610353  -0.639647  0  3.314076  0
O  O140  1  0.98060318  0.50230031  0.90934763  1  -1.210244  0  -0.345545  -0.600243  0  2.350042  0
O  O141  1  0.98061068  0.49770122  0.09065622  1  -1.209728  0  -0.345513  -0.600306  0  2.349971  0
O  O142  1  0.01940392  0.00229721  0.59065488  1  -1.210299  0  -0.345574  -0.600292  0  2.350062  0
O  O143  1  0.01940557  0.99770612  0.40934282  1  -1.209871  0  -0.345571  -0.600218  0  2.350125  0
O  O144  1  0.99289445  0.65506208  0.88353906  1  -1.158037  0  -0.329899  -0.558192  0  2.246124  0
O  O145  1  0.99290258  0.34493805  0.11646301  1  -1.158074  0  -0.329878  -0.5582  0  2.246147  0
O  O146  1  0.00710408  0.15506193  0.61646170  1  -1.157974  0  -0.329875  -0.558138  0  2.24604  0
O  O147  1  0.00710868  0.84494001  0.38354123  1  -1.158124  0  -0.329906  -0.558184  0  2.246044  0
O  O148  1  0.99197378  0.68784108  0.52465558  1  -1.199213  0  -0.337331  -0.575099  0  2.183001  0
O  O149  1  0.99196401  0.31216256  0.47534421  1  -1.198828  0  -0.33727  -0.575085  0  2.183018  0
O  O150  1  0.00802982  0.18783862  0.97534530  1  -1.198862  0  -0.337364  -0.57515  0  2.182947  0
O  O151  1  0.00803369  0.81215911  0.02465590  1  -1.199181  0  -0.337277  -0.575094  0  2.183036  0
O  O152  1  0.02676662  0.77703176  0.62751801  1  -1.164766  0  -0.345459  -0.575531  0  2.224927  0
O  O153  1  0.02676918  0.22296736  0.37248309  1  -1.164748  0  -0.345458  -0.575518  0  2.22498  0
O  O154  1  0.97323522  0.27703537  0.87248776  1  -1.164742  0  -0.345408  -0.575581  0  2.224972  0
O  O155  1  0.97323197  0.72296688  0.12751614  1  -1.164787  0  -0.345457  -0.575559  0  2.224954  0
