# generated using pymatgen
data_CuH8C12N4Cl2O
_symmetry_space_group_name_H-M   'P 1'
_cell_length_a   7.95290341
_cell_length_b   7.95297716
_cell_length_c   11.40526918
_cell_angle_alpha   100.90516092
_cell_angle_beta   100.90537829
_cell_angle_gamma   106.91632091
_symmetry_Int_Tables_number   1
_chemical_formula_structural   CuH8C12N4Cl2O
_chemical_formula_sum   'Cu2 H16 C24 N8 Cl4 O2'
_cell_volume   654.39572357
_cell_formula_units_Z   2
loop_
 _symmetry_equiv_pos_site_id
 _symmetry_equiv_pos_as_xyz
  1  'x, y, z'
loop_
 _atom_site_type_symbol
 _atom_site_label
 _atom_site_symmetry_multiplicity
 _atom_site_fract_x
 _atom_site_fract_y
 _atom_site_fract_z
 _atom_site_occupancy
 _atom_site_pbe_cm5_charge
 _atom_site_pbe_ddec_charge
 _atom_site_pbe_ddec_spin_density
 _atom_site_pbe_ddec_sum_bond_order
 _atom_site_pbe_magmom
Cu  Cu0  1  0.00000376  0.99999717  0.99999970  1  0.629884  0.635702  -0.696083  2.460551  -0.515
Cu  Cu1  1  0.99999427  0.00000136  0.50000015  1  0.629878  0.635859  0.696093  2.460376  0.515
H  H2  1  0.03509027  0.23698852  0.24234487  1  0.119854  0.097011  -0.001246  1.003768  -0.002
H  H3  1  0.76301258  0.96493683  0.25764142  1  0.119851  0.096877  0.001246  1.003918  0.002
H  H4  1  0.96492594  0.76300648  0.75765342  1  0.119836  0.096907  -0.001246  1.003706  -0.002
H  H5  1  0.23698581  0.03507509  0.74235676  1  0.119852  0.096936  0.001246  1.003844  0.002
H  H6  1  0.90417115  0.47520436  0.32118498  1  0.096624  0.120325  -0.000246  1.034986  -0.001
H  H7  1  0.52479170  0.09584582  0.17880182  1  0.096541  0.120254  0.000247  1.035019  0.001
H  H8  1  0.09584924  0.52479106  0.67882087  1  0.096617  0.120427  -0.000246  1.034955  -0.001
H  H9  1  0.47520284  0.90416601  0.82119677  1  0.096578  0.120326  0.000246  1.034961  0.001
H  H10  1  0.71814583  0.58103706  0.16816175  1  0.109389  0.11481  -0.000221  0.98473  0.0
H  H11  1  0.41894238  0.28185828  0.33182040  1  0.109388  0.114721  0.000221  0.984746  0.0
H  H12  1  0.28186771  0.41896090  0.83184535  1  0.109364  0.114761  -0.000221  0.984834  0.0
H  H13  1  0.58104891  0.71814685  0.66818051  1  0.109376  0.114731  0.000221  0.984806  0.0
H  H14  1  0.67951296  0.45882827  0.94251689  1  0.107369  0.131955  -0.000928  1.004178  -0.001
H  H15  1  0.54113826  0.32047818  0.55746713  1  0.107362  0.13193  0.000928  1.004236  0.001
H  H16  1  0.32049834  0.54117089  0.05748832  1  0.107376  0.131999  -0.000929  1.004249  -0.001
H  H17  1  0.45884362  0.67952129  0.44253286  1  0.107365  0.131906  0.000928  1.004257  0.001
C  C18  1  0.95495298  0.28868849  0.17878884  1  0.054261  0.099829  0.000751  3.907545  0.002
C  C19  1  0.71131174  0.04505283  0.32119909  1  0.054418  0.100438  -0.000752  3.907383  -0.002
C  C20  1  0.04506072  0.71130650  0.82121090  1  0.054341  0.100108  0.000752  3.907313  0.002
C  C21  1  0.28868330  0.95495636  0.67880012  1  0.054366  0.100296  -0.000752  3.907406  -0.002
C  C22  1  0.88202192  0.42078116  0.22210894  1  -0.080431  -0.115633  -0.004375  3.928723  -0.005
C  C23  1  0.57920795  0.11798488  0.27787760  1  -0.080378  -0.115839  0.004377  3.928396  0.005
C  C24  1  0.11799410  0.57921270  0.77789445  1  -0.080464  -0.115875  -0.004375  3.928726  -0.005
C  C25  1  0.42078453  0.88202426  0.72212217  1  -0.080356  -0.115814  0.004376  3.928641  0.005
C  C26  1  0.77793540  0.47941602  0.13692279  1  -0.060199  -0.003976  0.001456  3.910238  0.002
C  C27  1  0.52056835  0.22207059  0.36306645  1  -0.060245  -0.003891  -0.001456  3.910068  -0.002
C  C28  1  0.22207859  0.52057926  0.86308404  1  -0.060202  -0.004016  0.001456  3.910234  0.002
C  C29  1  0.47942466  0.77794002  0.63693619  1  -0.060261  -0.003972  -0.001455  3.910323  -0.002
C  C30  1  0.75367986  0.40927247  0.01069933  1  -0.071021  -0.119648  -0.004556  3.894146  -0.004
C  C31  1  0.59071276  0.24632216  0.48929133  1  -0.070966  -0.119458  0.004556  3.894312  0.004
C  C32  1  0.24632374  0.59072243  0.98930534  1  -0.070968  -0.119516  -0.004556  3.89421  -0.004
C  C33  1  0.40927989  0.75367902  0.51071015  1  -0.070928  -0.11933  0.004556  3.894149  0.004
C  C34  1  0.83260510  0.27936606  0.97479600  1  0.115283  0.126426  -0.001701  4.016699  -0.001
C  C35  1  0.72061522  0.16739391  0.52518925  1  0.115262  0.126211  0.001701  4.017191  0.001
C  C36  1  0.16739927  0.72062742  0.02520596  1  0.115354  0.126432  -0.001701  4.016811  -0.001
C  C37  1  0.27937610  0.83261126  0.47481254  1  0.115142  0.126073  0.001701  4.017039  0.001
C  C38  1  0.83096419  0.20756140  0.84773366  1  0.229541  0.281545  -0.000965  3.976708  -0.001
C  C39  1  0.79241247  0.16902650  0.65224802  1  0.229514  0.281522  0.000965  3.976744  0.001
C  C40  1  0.16903710  0.79243463  0.15226735  1  0.229499  0.281342  -0.000965  3.976761  -0.001
C  C41  1  0.20757746  0.83097852  0.34775096  1  0.229564  0.281556  0.000965  3.976588  0.001
N  N42  1  0.92817863  0.21700476  0.05813043  1  -0.337606  -0.225927  -0.057773  3.612469  -0.072
N  N43  1  0.78297382  0.07182825  0.44185684  1  -0.337764  -0.226214  0.057777  3.613043  0.072
N  N44  1  0.07183080  0.78298878  0.94186951  1  -0.337664  -0.225982  -0.057776  3.612471  -0.072
N  N45  1  0.21701439  0.92817944  0.55814313  1  -0.33766  -0.226134  0.057774  3.612865  0.072
N  N46  1  0.92137252  0.10168747  0.81239778  1  -0.214997  -0.22672  0.001488  3.347478  0.001
N  N47  1  0.89829225  0.07861998  0.68757973  1  -0.214908  -0.22667  -0.001488  3.347648  -0.001
N  N48  1  0.07862330  0.89830811  0.18759551  1  -0.214992  -0.22664  0.001488  3.347503  0.001
N  N49  1  0.10169707  0.92137942  0.31241324  1  -0.214993  -0.226778  -0.001488  3.347708  -0.001
Cl  Cl50  1  0.30131909  0.18548032  0.03101166  1  -0.339438  -0.523568  -0.097416  1.095314  -0.112
Cl  Cl51  1  0.81451496  0.69868109  0.46897364  1  -0.33945  -0.523621  0.097408  1.095277  0.112
Cl  Cl52  1  0.69868645  0.81450994  0.96897602  1  -0.339438  -0.523598  -0.097417  1.095286  -0.112
Cl  Cl53  1  0.18547300  0.30132227  0.53101876  1  -0.339456  -0.523615  0.097409  1.095245  0.112
O  O54  1  0.74448761  0.25549479  0.74999694  1  -0.08715  -0.148451  0.0  2.489026  0.0
O  O55  1  0.25550899  0.74450659  0.25000679  1  -0.087113  -0.148334  0.0  2.489035  0.0
