# generated using pymatgen
data_AlH18C27(NO2)3
_symmetry_space_group_name_H-M   'P 1'
_cell_length_a   4.00565225
_cell_length_b   15.99256759
_cell_length_c   16.05513674
_cell_angle_alpha   119.79894034
_cell_angle_beta   89.25517298
_cell_angle_gamma   91.39482888
_symmetry_Int_Tables_number   1
_chemical_formula_structural   AlH18C27(NO2)3
_chemical_formula_sum   'Al1 H18 C27 N3 O6'
_cell_volume   892.24364552
_cell_formula_units_Z   1
loop_
 _symmetry_equiv_pos_site_id
 _symmetry_equiv_pos_as_xyz
  1  'x, y, z'
loop_
 _atom_site_type_symbol
 _atom_site_label
 _atom_site_symmetry_multiplicity
 _atom_site_fract_x
 _atom_site_fract_y
 _atom_site_fract_z
 _atom_site_occupancy
 _atom_site_pbe_bader_charge
 _atom_site_pbe_bader_spin_density
 _atom_site_pbe_cm5_charge
 _atom_site_pbe_ddec_charge
 _atom_site_pbe_ddec_spin_density
 _atom_site_pbe_ddec_sum_bond_order
 _atom_site_pbe_magmom
Al  Al0  1  0.00771438  0.50191988  0.50083136  1  2.503207  0  0.42651  1.590299  0  2.58194  0
H  H1  1  0.51704282  0.92548362  0.07966665  1  0.050379  0  0.096911  0.093515  0  1.031605  0
H  H2  1  0.49381411  0.65457826  0.07519293  1  0.058763  0  0.096176  0.092467  0  1.032778  0
H  H3  1  0.49915875  0.92021603  0.34471144  1  0.008017  0  0.096502  0.093385  0  1.032195  0
H  H4  1  0.80826542  0.23737979  0.26245117  1  0.071718  0  0.103775  0.10773  0  0.9888  0
H  H5  1  0.81666928  0.05911822  0.17087692  1  0.064308  0  0.096684  0.100386  0  1.015967  0
H  H6  1  0.18290186  0.04958297  0.38525967  1  0.034662  0  0.098511  0.10765  0  1.013807  0
H  H7  1  0.21616583  0.83532048  0.94747306  1  0.031166  0  0.098756  0.107993  0  1.013651  0
H  H8  1  0.81268955  0.52723410  0.76759812  1  0.064587  0  0.105793  0.111177  0  0.984181  0
H  H9  1  0.82081836  0.61483602  0.94533034  1  0.061825  0  0.095628  0.098984  0  1.016458  0
H  H10  1  0.80088548  0.61337916  0.16228112  1  0.058543  0  0.099731  0.110005  0  1.013194  0
H  H11  1  0.20532224  0.73416808  0.47199920  1  0.091372  0  0.107779  0.112947  0  0.988811  0
H  H12  1  0.19139612  0.82751314  0.38675906  1  0.067538  0  0.097615  0.103008  0  1.012348  0
H  H13  1  0.03753784  0.30144680  0.51204454  1  0.489461  0  0.294227  0.298759  0  0.981746  0
H  H14  1  0.97559435  0.19569641  0.50740663  1  0.420344  0  0.299904  0.296171  0  0.94217  0
H  H15  1  0.07049903  0.70953603  0.69632406  1  0.470742  0  0.294865  0.299221  0  0.981598  0
H  H16  1  0.01884845  0.81075600  0.80049825  1  0.434011  0  0.299891  0.295326  0  0.943996  0
H  H17  1  0.90512279  0.47482328  0.27953932  1  0.487983  0  0.303095  0.313195  0  0.970769  0
H  H18  1  0.01402078  0.49030362  0.18394716  1  0.448229  0  0.306678  0.304477  0  0.938933  0
C  C19  1  0.50860286  0.57658567  0.65005173  1  1.552624  0  0.284622  0.691432  0  4.015638  0
C  C20  1  0.51338887  0.57267497  0.42362455  1  1.46723  0  0.266707  0.657553  0  4.051314  0
C  C21  1  0.49603065  0.35175707  0.42882155  1  1.61099  0  0.2833  0.690176  0  4.020437  0
C  C22  1  0.51370030  0.78394550  0.06514300  1  -0.119984  0  -0.005116  0.085274  0  4.009625  0
C  C23  1  0.51170941  0.88491459  0.11774248  1  0.022085  0  -0.086588  -0.170309  0  3.919389  0
C  C24  1  0.50116069  0.93511310  0.21832504  1  0.041396  0  -0.005706  0.084229  0  4.008413  0
C  C25  1  0.49433488  0.88214987  0.26649521  1  -0.06129  0  -0.089393  -0.175734  0  3.927139  0
C  C26  1  0.49761302  0.78112865  0.21599231  1  0.034774  0  -0.008196  0.078889  0  4.011429  0
C  C27  1  0.50537962  0.73311306  0.11541445  1  -0.056946  0  -0.090037  -0.176204  0  3.929685  0
C  C28  1  0.66673527  0.19562512  0.28823301  1  -0.064093  0  -0.089715  -0.080438  0  4.036521  0
C  C29  1  0.66921792  0.09540545  0.23639578  1  0.010444  0  -0.108826  -0.168071  0  4.026359  0
C  C30  1  0.50053469  0.04165910  0.27210433  1  -0.075327  0  -0.009934  0.083549  0  4.038153  0
C  C31  1  0.32863994  0.09060130  0.35925990  1  -0.054691  0  -0.107176  -0.25727  0  3.955347  0
C  C32  1  0.31648797  0.19158463  0.41144039  1  0.394093  0  0.09363  0.279355  0  4.101799  0
C  C33  1  0.49308470  0.24407477  0.37498438  1  -0.046247  0  -0.028732  -0.168514  0  3.954205  0
C  C34  1  0.35616078  0.76899122  0.90827979  1  0.04643  0  -0.107655  -0.258479  0  3.958507  0
C  C35  1  0.34449877  0.71979743  0.80761180  1  0.284212  0  0.093589  0.278639  0  4.102543  0
C  C36  1  0.51044318  0.63114642  0.75732848  1  0.029627  0  -0.027448  -0.16648  0  3.948648  0
C  C37  1  0.67711746  0.59418209  0.80759772  1  0.025676  0  -0.088909  -0.079954  0  4.03067  0
C  C38  1  0.67951269  0.64307636  0.90747838  1  -0.058945  0  -0.108699  -0.168426  0  4.025144  0
C  C39  1  0.51786912  0.73164911  0.95903231  1  0.009296  0  -0.010045  0.083717  0  4.039015  0
C  C40  1  0.66344265  0.63939871  0.22952716  1  -0.038925  0  -0.108269  -0.269387  0  3.946006  0
C  C41  1  0.68060281  0.58619168  0.27765397  1  0.442985  0  0.108466  0.309157  0  4.076991  0
C  C42  1  0.51232576  0.62217442  0.36750494  1  0.04958  0  -0.033744  -0.190986  0  3.952013  0
C  C43  1  0.33827546  0.70912329  0.40436456  1  -0.063219  0  -0.081963  -0.05778  0  4.015592  0
C  C44  1  0.33406816  0.76165927  0.35732467  1  -0.022379  0  -0.109816  -0.177251  0  4.019107  0
C  C45  1  0.49781551  0.72653707  0.26791779  1  -0.003164  0  0.000166  0.10492  0  4.017864  0
N  N46  1  0.14569479  0.23863316  0.49823091  1  -1.233475  0  -0.607516  -0.62735  0  3.267422  0
N  N47  1  0.18341214  0.75885890  0.75892758  1  -1.218917  0  -0.608146  -0.626998  0  3.268053  0
N  N48  1  0.84296885  0.49997875  0.23487809  1  -1.265733  0  -0.597989  -0.621001  0  3.311152  0
O  O49  1  0.26259145  0.39367575  0.41148773  1  -1.253063  0  -0.235969  -0.59664  0  2.349885  0
O  O50  1  0.26816950  0.51711627  0.60804916  1  -1.25353  0  -0.235678  -0.59438  0  2.34165  0
O  O51  1  0.28418711  0.59202891  0.48694959  1  -1.271659  0  -0.248761  -0.617694  0  2.37521  0
O  O52  1  0.73173227  0.39567689  0.48912353  1  -1.253287  0  -0.233377  -0.597762  0  2.356902  0
O  O53  1  0.74411630  0.51122927  0.40762371  1  -1.265738  0  -0.244614  -0.618741  0  2.385801  0
O  O54  1  0.74835624  0.59332051  0.60645955  1  -1.257686  0  -0.231492  -0.597735  0  2.369082  0
