# generated using pymatgen
data_CuH12C12(N2O3)2
_symmetry_space_group_name_H-M   'P 1'
_cell_length_a   8.73004621
_cell_length_b   11.46985665
_cell_length_c   15.45223655
_cell_angle_alpha   107.13918213
_cell_angle_beta   90.00007266
_cell_angle_gamma   90.00004454
_symmetry_Int_Tables_number   1
_chemical_formula_structural   CuH12C12(N2O3)2
_chemical_formula_sum   'Cu4 H48 C48 N16 O24'
_cell_volume   1478.55761992
_cell_formula_units_Z   4
loop_
 _symmetry_equiv_pos_site_id
 _symmetry_equiv_pos_as_xyz
  1  'x, y, z'
loop_
 _atom_site_type_symbol
 _atom_site_label
 _atom_site_symmetry_multiplicity
 _atom_site_fract_x
 _atom_site_fract_y
 _atom_site_fract_z
 _atom_site_occupancy
 _atom_site_pbe_bader_charge
 _atom_site_pbe_bader_spin_density
 _atom_site_pbe_cm5_charge
 _atom_site_pbe_ddec_charge
 _atom_site_pbe_ddec_spin_density
 _atom_site_pbe_ddec_sum_bond_order
 _atom_site_pbe_magmom
Cu  Cu0  1  0.86014453  0.87931941  0.77116214  1  1.07575  -0.564072  0.744964  0.737219  -0.739542  2.290539  -0.562
Cu  Cu1  1  0.36014814  0.62068064  0.72883850  1  1.075844  0.564  0.744953  0.737161  0.784925  2.290579  0.562
Cu  Cu2  1  0.13983463  0.12071114  0.22885709  1  1.075833  -0.564216  0.744948  0.737155  -0.739897  2.290507  -0.562
Cu  Cu3  1  0.63983445  0.37928966  0.27114170  1  1.075883  -0.564267  0.744944  0.737169  -0.739963  2.290403  -0.562
H  H4  1  0.77324350  0.68332587  0.85943415  1  0.097497  -0.00343  0.121173  0.096005  -0.00166  0.988121  -0.002
H  H5  1  0.27324482  0.81667593  0.64056939  1  0.097475  0.003427  0.121129  0.095909  0.001759  0.988198  0.002
H  H6  1  0.22675399  0.31668004  0.14056870  1  0.097389  -0.003399  0.121146  0.095905  -0.001629  0.988154  -0.002
H  H7  1  0.72675610  0.18332176  0.35943296  1  0.097396  -0.003402  0.121165  0.09594  -0.001628  0.988151  -0.002
H  H8  1  0.89422692  0.60468112  0.97826238  1  0.13308  -0.00129  0.114939  0.136543  -0.000674  1.008833  -0.001
H  H9  1  0.39422691  0.89531441  0.52173664  1  0.133137  0.001206  0.114926  0.136544  0.000668  1.008871  0.001
H  H10  1  0.10577286  0.39531566  0.02173524  1  0.133373  -0.001194  0.114963  0.136622  -0.000615  1.008784  -0.001
H  H11  1  0.60577402  0.10468146  0.47826272  1  0.13334  -0.001269  0.114955  0.13662  -0.000652  1.008773  -0.001
H  H12  1  0.23890069  0.88305778  0.01187980  1  0.149564  -0.001601  0.117133  0.141469  -0.000829  1.001085  -0.001
H  H13  1  0.73890302  0.61694574  0.48811956  1  0.149498  0.00166  0.117127  0.141451  0.000935  1.001118  0.001
H  H14  1  0.76109909  0.11694356  0.98811752  1  0.149489  -0.001596  0.117139  0.141469  -0.000833  1.001115  -0.001
H  H15  1  0.26110019  0.38306016  0.51188070  1  0.14956  -0.001651  0.117137  0.141476  -0.00088  1.001087  -0.001
H  H16  1  0.20744274  0.77032837  0.12787642  1  0.071688  2.7e-05  0.09131  0.136865  1.6e-05  1.038604  0.0
H  H17  1  0.70744264  0.72967147  0.37212406  1  0.071698  -3.8e-05  0.091291  0.136834  -4e-06  1.038609  0.0
H  H18  1  0.79255704  0.22967206  0.87212394  1  0.071701  7.3e-05  0.09128  0.136779  4.5e-05  1.03869  0.0
H  H19  1  0.29255600  0.27032805  0.62787610  1  0.071699  1e-06  0.091289  0.136782  -7e-06  1.038671  0.0
H  H20  1  0.24562335  0.62984687  0.04347458  1  0.076517  0.00037  0.097693  0.148137  0.000235  0.996419  0.0
H  H21  1  0.74562359  0.87015301  0.45652528  1  0.076522  -0.000387  0.097701  0.148148  -0.000229  0.996374  0.0
H  H22  1  0.75437528  0.37015447  0.95652533  1  0.076579  0.000295  0.097692  0.148125  0.000132  0.996395  0.0
H  H23  1  0.25437505  0.12984560  0.54347403  1  0.076517  0.000286  0.097702  0.148131  0.000136  0.996348  0.0
H  H24  1  0.07405962  0.64621286  0.10794888  1  0.063472  -4.3e-05  0.091488  0.135306  -7.2e-05  1.025943  0.0
H  H25  1  0.57405740  0.85378685  0.39205147  1  0.063554  -0.000147  0.091485  0.135296  -0.000106  1.02596  0.0
H  H26  1  0.92594244  0.35378848  0.89205103  1  0.063447  0.000124  0.091498  0.135343  0.000106  1.025915  0.0
H  H27  1  0.42594123  0.14621175  0.60794784  1  0.063444  -2.1e-05  0.0915  0.135307  -4.5e-05  1.025949  0.0
H  H28  1  0.02124815  0.07820246  0.70829707  1  0.088239  -0.003083  0.119793  0.090761  -0.001452  0.9982  -0.002
H  H29  1  0.52124921  0.42179829  0.79170163  1  0.088321  0.003087  0.119817  0.090789  0.001547  0.998183  0.002
H  H30  1  0.97874820  0.92179705  0.29170050  1  0.088281  -0.003102  0.119784  0.090762  -0.001466  0.998211  -0.002
H  H31  1  0.47874943  0.57820396  0.20829654  1  0.088297  -0.003102  0.119778  0.090789  -0.001467  0.99818  -0.002
H  H32  1  0.24007874  0.21799857  0.76710400  1  0.122643  -0.001134  0.108786  0.122024  -0.000579  1.024985  -0.001
H  H33  1  0.74007838  0.28200240  0.73289554  1  0.122654  0.001139  0.108785  0.122061  0.000622  1.024982  0.001
H  H34  1  0.75991760  0.78200004  0.23289531  1  0.122603  -0.001126  0.108734  0.121968  -0.000597  1.025  -0.001
H  H35  1  0.25991682  0.71800077  0.26710347  1  0.122582  -0.001124  0.108756  0.121987  -0.000594  1.025004  -0.001
H  H36  1  0.30986659  0.03212898  0.96904234  1  0.141309  -0.001446  0.109538  0.128296  -0.000752  1.050396  -0.001
H  H37  1  0.80986826  0.46786750  0.53095887  1  0.14131  0.001484  0.109502  0.128237  0.000815  1.050504  0.001
H  H38  1  0.69012975  0.96786598  0.03095748  1  0.141289  -0.00144  0.109521  0.128275  -0.000753  1.050459  -0.001
H  H39  1  0.19013038  0.53213020  0.46904348  1  0.1413  -0.001474  0.109523  0.128267  -0.000763  1.05045  -0.001
H  H40  1  0.47227476  0.20112683  0.97307649  1  0.038428  -9.1e-05  0.094825  0.144122  -7.4e-05  0.997018  0.0
H  H41  1  0.97227395  0.29887071  0.52692377  1  0.038433  2.7e-05  0.09481  0.144095  4e-06  0.997109  0.0
H  H42  1  0.52772502  0.79887177  0.02692218  1  0.038397  -6.7e-05  0.094857  0.14419  -4e-05  0.997002  0.0
H  H43  1  0.02772468  0.70112699  0.47307664  1  0.038409  -4.6e-05  0.094858  0.144179  -2.7e-05  0.996992  0.0
H  H44  1  0.39390862  0.31320153  0.92583455  1  0.078952  0.000173  0.092158  0.134906  7.9e-05  1.01849  0.0
H  H45  1  0.89390895  0.18679685  0.57416584  1  0.078913  -0.000185  0.092174  0.134941  -8e-05  1.018475  0.0
H  H46  1  0.60609001  0.68679708  0.07416541  1  0.078926  0.000195  0.092173  0.134979  0.000124  1.01845  0.0
H  H47  1  0.10608968  0.81320084  0.42583392  1  0.078958  0.000197  0.092148  0.134912  0.000117  1.01851  0.0
H  H48  1  0.51991699  0.19928035  0.86080581  1  0.09744  0.000255  0.098106  0.153454  0.000127  1.015511  0.0
H  H49  1  0.01991829  0.30071858  0.63919443  1  0.097435  -0.000264  0.098107  0.153444  -0.000125  1.01552  0.0
H  H50  1  0.48008279  0.80071917  0.13919370  1  0.097424  0.000232  0.098079  0.153433  0.000106  1.015495  0.0
H  H51  1  0.98008149  0.69927911  0.36080598  1  0.097382  0.000242  0.098089  0.153426  0.000118  1.015519  0.0
C  C52  1  0.87638620  0.72494549  0.89520937  1  0.479453  0.000818  0.047622  0.110301  -0.000431  3.950056  0.001
C  C53  1  0.37638969  0.77505732  0.60479317  1  0.479535  -0.00078  0.047651  0.110392  0.000775  3.950032  -0.001
C  C54  1  0.12360785  0.27506042  0.10479412  1  0.479919  0.001022  0.047651  0.110393  -0.000282  3.94981  0.001
C  C55  1  0.62361123  0.22494220  0.39520829  1  0.479666  0.000891  0.04763  0.110325  -0.000368  3.949904  0.001
C  C56  1  0.94453022  0.68158656  0.96089909  1  -0.000664  -0.007147  -0.079927  -0.181148  -0.004958  3.890676  -0.006
C  C57  1  0.44453132  0.81841084  0.53910038  1  -0.00068  0.007052  -0.079891  -0.181168  0.005179  3.890781  0.006
C  C58  1  0.05547070  0.31841113  0.03909809  1  -0.000942  -0.007585  -0.079914  -0.18124  -0.005188  3.890673  -0.006
C  C59  1  0.55547075  0.18158777  0.46090152  1  -0.000949  -0.007711  -0.079908  -0.181226  -0.005306  3.890641  -0.006
C  C60  1  0.07657730  0.73861252  0.00542407  1  0.007276  0.003816  0.023322  0.246214  0.002741  3.914763  0.003
C  C61  1  0.57657750  0.76138902  0.49457539  1  0.007232  -0.003785  0.023315  0.246209  -0.002562  3.914967  -0.002
C  C62  1  0.92342248  0.26138882  0.99457519  1  0.007232  0.003727  0.023302  0.246177  0.002641  3.914995  0.002
C  C63  1  0.42342113  0.23861232  0.50542323  1  0.00735  0.003658  0.023322  0.246234  0.002582  3.914881  0.002
C  C64  1  0.13548649  0.83711421  0.97982433  1  0.002442  -0.004166  -0.070072  -0.19055  -0.003095  3.818644  -0.003
C  C65  1  0.63548782  0.66289019  0.52017579  1  0.002494  0.004245  -0.07006  -0.190527  0.003411  3.818732  0.003
C  C66  1  0.86451328  0.16288896  0.02017533  1  0.002533  -0.004155  -0.070072  -0.190553  -0.003099  3.818681  -0.003
C  C67  1  0.36451539  0.33711571  0.47982576  1  0.002494  -0.004231  -0.070063  -0.190552  -0.003196  3.818635  -0.003
C  C68  1  0.06336425  0.87495337  0.91227331  1  0.434323  -0.000971  0.12002  0.18085  -0.001124  3.991935  -0.001
C  C69  1  0.56336570  0.62504731  0.58772660  1  0.434348  0.001024  0.120023  0.180832  0.001479  3.991883  0.001
C  C70  1  0.93663209  0.12504980  0.08772959  1  0.433847  -0.000854  0.120078  0.180876  -0.001115  3.991619  -0.001
C  C71  1  0.43663408  0.37495129  0.41227077  1  0.433794  -0.00101  0.120054  0.180819  -0.001238  3.991701  -0.001
C  C72  1  0.15458496  0.69435881  0.07600400  1  -0.079721  -0.000238  -0.243664  -0.443689  -0.000121  3.925608  0.0
C  C73  1  0.65458391  0.80564099  0.42399578  1  -0.079833  3e-05  -0.243656  -0.443659  -1.6e-05  3.925612  0.0
C  C74  1  0.84541596  0.30564254  0.92399592  1  -0.079801  8.5e-05  -0.24365  -0.443624  7.9e-05  3.925629  0.0
C  C75  1  0.34541587  0.19435944  0.57600328  1  -0.079774  -0.000241  -0.243673  -0.4436  -0.000174  3.925582  0.0
C  C76  1  0.08738875  0.07172395  0.76649825  1  0.410877  0.001017  0.046584  0.105262  -0.00012  3.962257  0.001
C  C77  1  0.58739312  0.42828051  0.73350260  1  0.410866  -0.000964  0.046582  0.105308  0.000454  3.962203  -0.001
C  C78  1  0.91260530  0.92827556  0.23350062  1  0.410636  0.000999  0.046621  0.105298  -0.000113  3.962277  0.001
C  C79  1  0.41260666  0.57172721  0.26649806  1  0.410604  0.00095  0.046541  0.10518  -0.000152  3.962352  0.001
C  C80  1  0.21115335  0.14796293  0.79900831  1  0.029079  -0.006164  -0.079817  -0.175487  -0.004361  3.891633  -0.005
C  C81  1  0.71115642  0.35203984  0.70099291  1  0.029096  0.0062  -0.079824  -0.175581  0.004667  3.891556  0.005
C  C82  1  0.78883841  0.85203659  0.20099185  1  0.028611  -0.006273  -0.079854  -0.175538  -0.004452  3.891613  -0.005
C  C83  1  0.28883992  0.64796515  0.29900715  1  0.028614  -0.006314  -0.079833  -0.175501  -0.004482  3.891538  -0.005
C  C84  1  0.29414382  0.13581524  0.87366635  1  -0.021079  0.003606  0.021985  0.24008  0.002561  3.924446  0.002
C  C85  1  0.79414560  0.36418395  0.62633285  1  -0.0213  -0.003618  0.021989  0.240088  -0.002417  3.92441  -0.002
C  C86  1  0.70585252  0.86418154  0.12633192  1  -0.021055  0.003631  0.02207  0.240273  0.002576  3.924355  0.002
C  C87  1  0.20585303  0.63581648  0.37366751  1  -0.020642  0.003635  0.021998  0.24012  0.002571  3.924344  0.002
C  C88  1  0.24741096  0.04502516  0.91160398  1  0.01103  -0.003545  -0.076797  -0.205025  -0.002599  3.872754  -0.003
C  C89  1  0.74741275  0.45497582  0.58839752  1  0.011056  0.003678  -0.076785  -0.204978  0.002878  3.872697  0.003
C  C90  1  0.75258538  0.95497436  0.08839683  1  0.011233  -0.003657  -0.076818  -0.205094  -0.002677  3.872722  -0.003
C  C91  1  0.25258589  0.54502461  0.41160414  1  0.011214  -0.003814  -0.076797  -0.205019  -0.002796  3.872748  -0.003
C  C92  1  0.12107759  0.97215209  0.87656299  1  0.50276  -0.000972  0.11829  0.178164  -0.001186  3.995812  -0.001
C  C93  1  0.62107787  0.52784956  0.62343653  1  0.502747  0.000986  0.118357  0.178257  0.001496  3.99564  0.001
C  C94  1  0.87892334  0.02784469  0.12343463  1  0.502559  -0.000939  0.118289  0.178273  -0.001198  3.995654  -0.001
C  C95  1  0.37892306  0.47215635  0.37656438  1  0.502488  -0.000951  0.118325  0.178268  -0.001217  3.995672  -0.001
C  C96  1  0.42741468  0.21693145  0.91122138  1  -0.074544  -9.2e-05  -0.239862  -0.431512  -4.4e-05  3.913081  0.0
C  C97  1  0.92741514  0.28306605  0.58877754  1  -0.074329  4.3e-05  -0.23987  -0.431513  3e-06  3.913158  0.0
C  C98  1  0.57258281  0.78306624  0.08877708  1  -0.074207  -7.9e-05  -0.239916  -0.431718  -3.1e-05  3.913049  0.0
C  C99  1  0.07258235  0.71693165  0.41122222  1  -0.074554  -6.6e-05  -0.239891  -0.431595  -3.5e-05  3.9131  0.0
N  N100  1  0.93382922  0.81979993  0.87196715  1  -1.21033  -0.102058  -0.354969  -0.28426  -0.068338  3.662802  -0.087
N  N101  1  0.43383037  0.68020111  0.62803505  1  -1.210375  0.101997  -0.355004  -0.284252  0.072487  3.662766  0.087
N  N102  1  0.06616025  0.18021237  0.12804356  1  -1.210177  -0.103029  -0.355071  -0.284221  -0.069135  3.662357  -0.087
N  N103  1  0.56616024  0.31978836  0.37195775  1  -1.209923  -0.103013  -0.355026  -0.284169  -0.069111  3.662443  -0.087
N  N104  1  0.04233108  0.98625066  0.80461552  1  -1.224237  -0.093287  -0.353332  -0.288479  -0.062641  3.64652  -0.08
N  N105  1  0.54233265  0.51375273  0.69538497  1  -1.224397  0.093317  -0.353362  -0.28855  0.066538  3.646534  0.08
N  N106  1  0.95767213  0.01374246  0.19538001  1  -1.224027  -0.093203  -0.353399  -0.288696  -0.062654  3.646509  -0.08
N  N107  1  0.45767285  0.48626138  0.30461967  1  -1.223998  -0.093252  -0.353362  -0.288617  -0.062686  3.646499  -0.08
N  N108  1  0.56528475  0.85583534  0.83701594  1  0.833543  0.00072  0.102808  0.696692  0.000184  4.407999  0.002
N  N109  1  0.06528595  0.64416443  0.66298637  1  0.833141  -0.000812  0.102733  0.696527  -9.3e-05  4.40827  -0.002
N  N110  1  0.43472419  0.14416600  0.16298656  1  0.832691  0.001038  0.102733  0.710044  0.000361  4.388725  0.002
N  N111  1  0.93472299  0.35583235  0.33701320  1  0.832985  0.001131  0.10269  0.696398  0.000405  4.40832  0.002
N  N112  1  0.72516645  0.01959393  0.67012818  1  0.818094  0.002398  0.097709  0.700141  0.001333  4.424956  0.003
N  N113  1  0.22516608  0.48040976  0.82987195  1  0.818897  -0.00243  0.097601  0.699921  -0.001134  4.424952  -0.003
N  N114  1  0.27483218  0.98041197  0.32987143  1  0.818882  0.002357  0.097558  0.699726  0.00129  4.424937  0.003
N  N115  1  0.77483255  0.51958428  0.17012637  1  0.818865  0.002327  0.097597  0.69988  0.001274  4.424793  0.003
O  O116  1  0.65391877  0.80229389  0.76853249  1  -0.55748  -0.083381  -0.208476  -0.446659  -0.055923  2.182194  -0.077
O  O117  1  0.15391445  0.69770415  0.73146820  1  -0.557498  0.083241  -0.208434  -0.446598  0.059284  2.182247  0.077
O  O118  1  0.34609819  0.19770564  0.23147156  1  -0.557354  -0.082781  -0.208407  -0.450942  -0.055474  2.177328  -0.076
O  O119  1  0.84609449  0.30229537  0.26852807  1  -0.557421  -0.082685  -0.208436  -0.446553  -0.055404  2.18227  -0.076
O  O120  1  0.60792382  0.95181556  0.89373394  1  -0.50389  0.001511  -0.156048  -0.410566  0.0012  2.037648  0.001
O  O121  1  0.10793281  0.54818699  0.60626900  1  -0.5036  -0.001853  -0.156069  -0.410549  -0.001326  2.037769  -0.001
O  O122  1  0.39208283  0.04818943  0.10626612  1  -0.503669  0.000844  -0.156001  -0.41517  0.000723  2.032009  0.0
O  O123  1  0.89209103  0.45181070  0.39373335  1  -0.503587  0.001185  -0.155955  -0.410423  0.000974  2.037771  0.0
O  O124  1  0.43898529  0.80593189  0.84248096  1  -0.516868  -0.016763  -0.165293  -0.404053  -0.010846  2.042269  -0.013
O  O125  1  0.93898696  0.69406277  0.65751856  1  -0.516771  0.016661  -0.165241  -0.403962  0.011448  2.04229  0.013
O  O126  1  0.56102709  0.19407037  0.15751980  1  -0.516235  -0.018147  -0.165207  -0.408461  -0.011957  2.036649  -0.016
O  O127  1  0.06102313  0.30592215  0.34247842  1  -0.516531  -0.018057  -0.165192  -0.403861  -0.011889  2.042343  -0.016
O  O128  1  0.81405074  0.92399552  0.65865322  1  -0.550799  -0.100599  -0.215899  -0.443013  -0.066916  2.116841  -0.092
O  O129  1  0.31406143  0.57599993  0.84134573  1  -0.550834  0.100565  -0.215826  -0.442875  0.071023  2.116822  0.092
O  O130  1  0.18594560  0.07600948  0.34135201  1  -0.550929  -0.100657  -0.215795  -0.442785  -0.06692  2.116843  -0.092
O  O131  1  0.68595324  0.42398133  0.15864334  1  -0.551054  -0.100686  -0.21587  -0.442878  -0.066941  2.116703  -0.092
O  O132  1  0.68181170  0.07625398  0.74847039  1  -0.525276  0.001592  -0.176954  -0.449318  0.001306  2.014112  0.001
O  O133  1  0.18181110  0.42375149  0.75152946  1  -0.525235  -0.001613  -0.176907  -0.449219  -0.001206  2.014172  -0.001
O  O134  1  0.31818235  0.92375374  0.25152833  1  -0.525144  0.001501  -0.176912  -0.449152  0.001252  2.014106  0.001
O  O135  1  0.81817837  0.57624255  0.24847081  1  -0.525034  0.001492  -0.176909  -0.449206  0.00125  2.013993  0.001
O  O136  1  0.69002454  0.04973169  0.60149231  1  -0.498575  -0.017502  -0.159115  -0.409025  -0.011434  1.99522  -0.015
O  O137  1  0.19001627  0.45027470  0.89850774  1  -0.499388  0.017334  -0.15913  -0.409013  0.012033  1.995107  0.015
O  O138  1  0.30998555  0.95027239  0.39850561  1  -0.499341  -0.017414  -0.159125  -0.408943  -0.011363  1.995094  -0.015
O  O139  1  0.80997778  0.54972938  0.10149407  1  -0.499327  -0.017574  -0.159081  -0.408962  -0.01149  1.99522  -0.015
