# generated using pymatgen
data_ZnH12C15(NO2)2
_symmetry_space_group_name_H-M   'P 1'
_cell_length_a   8.49203225
_cell_length_b   9.21217487
_cell_length_c   9.70665596
_cell_angle_alpha   64.81274114
_cell_angle_beta   82.67989306
_cell_angle_gamma   76.09712901
_symmetry_Int_Tables_number   1
_chemical_formula_structural   ZnH12C15(NO2)2
_chemical_formula_sum   'Zn2 H24 C30 N4 O8'
_cell_volume   666.75043008
_cell_formula_units_Z   2
loop_
 _symmetry_equiv_pos_site_id
 _symmetry_equiv_pos_as_xyz
  1  'x, y, z'
loop_
 _atom_site_type_symbol
 _atom_site_label
 _atom_site_symmetry_multiplicity
 _atom_site_fract_x
 _atom_site_fract_y
 _atom_site_fract_z
 _atom_site_occupancy
 _atom_site_hle17_bader_spin_density
 _atom_site_hle17_ddec_charge
 _atom_site_hle17_ddec_spin_density
 _atom_site_hle17_ddec_sum_bond_order
 _atom_site_hle17_magmom
 _atom_site_hse06_10hf_bader_spin_density
 _atom_site_hse06_10hf_ddec_charge
 _atom_site_hse06_10hf_ddec_spin_density
 _atom_site_hse06_10hf_ddec_sum_bond_order
 _atom_site_hse06_10hf_magmom
 _atom_site_hse06_bader_spin_density
 _atom_site_hse06_ddec_charge
 _atom_site_hse06_ddec_spin_density
 _atom_site_hse06_ddec_sum_bond_order
 _atom_site_hse06_magmom
 _atom_site_pbe_bader_spin_density
 _atom_site_pbe_cm5_charge
 _atom_site_pbe_ddec_charge
 _atom_site_pbe_ddec_spin_density
 _atom_site_pbe_ddec_sum_bond_order
 _atom_site_pbe_magmom
Zn  Zn0  1  0.53800370  0.07343330  0.59676489  1  0  1.04525  0  1.849468  0  0  0.872554  0  2.313416  0  0  0.925223  0  2.249053  0  0  0.67783  0.836392  0  2.35651  0
Zn  Zn1  1  0.46199409  0.92657154  0.40323229  1  0  1.045294  0  1.849475  0  0  0.872624  0  2.313427  0  0  0.925289  0  2.249062  0  0  0.677878  0.836461  0  2.356523  0
H  H2  1  0.32284183  0.58495753  0.69735241  1  0  0.129524  0  0.954679  0  0  0.134754  0  1.020911  0  0  0.13799  0  1.020152  0  0  0.115729  0.13249  0  1.021198  0
H  H3  1  0.67716177  0.41503725  0.30266349  1  0  0.129566  0  0.954691  0  0  0.134782  0  1.020922  0  0  0.138018  0  1.020162  0  0  0.115709  0.132517  0  1.021212  0
H  H4  1  0.97726645  0.98030810  0.65540979  1  0  0.129992  0  0.91982  0  0  0.144108  0  0.981083  0  0  0.146733  0  0.980008  0  0  0.108833  0.143599  0  0.979448  0
H  H5  1  0.02273619  0.01969068  0.34458714  1  0  0.129989  0  0.91984  0  0  0.144085  0  0.981126  0  0  0.146709  0  0.980052  0  0  0.108823  0.143575  0  0.979489  0
H  H6  1  0.06186837  0.78041196  0.77817301  1  0  0.104062  0  0.944197  0  0  0.118146  0  1.008934  0  0  0.120543  0  1.007121  0  0  0.100967  0.116318  0  1.010267  0
H  H7  1  0.93813426  0.21958684  0.22182288  1  0  0.104063  0  0.944215  0  0  0.118142  0  1.008952  0  0  0.120541  0  1.007135  0  0  0.100944  0.116311  0  1.010284  0
H  H8  1  0.94867698  0.73770413  0.02067809  1  0  0.087185  0  0.950578  0  0  0.100656  0  1.007989  0  0  0.103438  0  1.006849  0  0  0.095337  0.098859  0  1.00814  0
H  H9  1  0.05132529  0.26229088  0.97932448  1  0  0.087242  0  0.95047  0  0  0.100697  0  1.007902  0  0  0.103476  0  1.006764  0  0  0.095349  0.098899  0  1.008052  0
H  H10  1  0.11878182  0.18483580  0.76186966  1  0  0.097726  0  0.968851  0  0  0.108241  0  1.028806  0  0  0.110618  0  1.028904  0  0  0.097086  0.106104  0  1.029849  0
H  H11  1  0.88122042  0.81515927  0.23812980  1  0  0.097689  0  0.968891  0  0  0.108209  0  1.028852  0  0  0.110587  0  1.028948  0  0  0.097072  0.106072  0  1.029896  0
H  H12  1  0.66607652  0.02956603  0.89472185  1  0  0.09071  0  0.941655  0  0  0.099605  0  1.003435  0  0  0.101609  0  1.002929  0  0  0.121759  0.098085  0  1.004123  0
H  H13  1  0.33392440  0.97043521  0.10527329  1  0  0.090713  0  0.941656  0  0  0.099606  0  1.003431  0  0  0.101608  0  1.00293  0  0  0.121771  0.098085  0  1.004118  0
H  H14  1  0.92350825  0.28239996  0.45124833  1  0  0.099084  0  0.974257  0  0  0.109381  0  1.037257  0  0  0.112707  0  1.035752  0  0  0.097041  0.106982  0  1.038255  0
H  H15  1  0.07648780  0.71760739  0.54874498  1  0  0.099053  0  0.974236  0  0  0.109327  0  1.037263  0  0  0.112665  0  1.035742  0  0  0.09705  0.106919  0  1.038274  0
H  H16  1  0.21081918  0.64694240  0.33902612  1  0  0.082218  0  0.974507  0  0  0.09297  0  1.037847  0  0  0.094755  0  1.039108  0  0  0.094153  0.091267  0  1.038237  0
H  H17  1  0.78918096  0.35306252  0.66096766  1  0  0.082241  0  0.974509  0  0  0.092985  0  1.037859  0  0  0.094772  0  1.039115  0  0  0.094183  0.091262  0  1.038268  0
H  H18  1  0.22240922  0.51126419  0.17088691  1  0  0.106086  0  0.961813  0  0  0.113353  0  1.037789  0  0  0.115516  0  1.037407  0  0  0.098274  0.111735  0  1.03815  0
H  H19  1  0.77759340  0.48873463  0.82910795  1  0  0.106027  0  0.96177  0  0  0.113328  0  1.037738  0  0  0.115489  0  1.037362  0  0  0.098283  0.111716  0  1.038103  0
H  H20  1  0.08499831  0.38515430  0.19430092  1  0  0.101212  0  0.944481  0  0  0.115967  0  1.005583  0  0  0.118585  0  1.00316  0  0  0.096793  0.114644  0  1.006122  0
H  H21  1  0.91499654  0.61485307  0.80569046  1  0  0.101172  0  0.944431  0  0  0.115953  0  1.005535  0  0  0.118571  0  1.003115  0  0  0.096818  0.114637  0  1.006079  0
H  H22  1  0.62567833  0.19175164  0.05252157  1  0  0.136883  0  0.973191  0  0  0.137277  0  1.045548  0  0  0.141049  0  1.044264  0  0  0.1146  0.134704  0  1.046313  0
H  H23  1  0.37433472  0.80823734  0.94748107  1  0  0.136804  0  0.973135  0  0  0.137265  0  1.045451  0  0  0.141035  0  1.04417  0  0  0.114631  0.134691  0  1.046216  0
H  H24  1  0.36833182  0.40074258  0.55860928  1  0  0.08638  0  0.9917  0  0  0.090843  0  1.06096  0  0  0.093355  0  1.059663  0  0  0.115942  0.089276  0  1.061445  0
H  H25  1  0.63166188  0.59925954  0.44140180  1  0  0.086387  0  0.991617  0  0  0.090881  0  1.060876  0  0  0.093394  0  1.059578  0  0  0.115906  0.089304  0  1.061348  0
C  C26  1  0.47400566  0.40339504  0.88343881  1  0  0.198194  0  3.780951  0  0  0.198884  0  4.031989  0  0  0.203986  0  4.052886  0  0  0.109329  0.19545  0  4.017025  0
C  C27  1  0.52599761  0.59660110  0.11656939  1  0  0.198296  0  3.780837  0  0  0.199023  0  4.031904  0  0  0.204126  0  4.052803  0  0  0.109349  0.195583  0  4.016939  0
C  C28  1  0.16686359  0.41140578  0.25553281  1  0  -0.30843  0  3.701413  0  0  -0.353417  0  3.946726  0  0  -0.359063  0  3.95397  0  0  -0.162755  -0.349506  0  3.941827  0
C  C29  1  0.83313323  0.58859792  0.74445978  1  0  -0.308232  0  3.701124  0  0  -0.353351  0  3.946596  0  0  -0.358979  0  3.953795  0  0  -0.162805  -0.349471  0  3.941747  0
C  C30  1  0.39771967  0.46199566  0.74491579  1  0  -0.154504  0  3.658206  0  0  -0.173771  0  3.905056  0  0  -0.181659  0  3.926233  0  0  -0.066543  -0.167934  0  3.889992  0
C  C31  1  0.60228216  0.53800167  0.25509313  1  0  -0.154714  0  3.658296  0  0  -0.173963  0  3.905125  0  0  -0.181854  0  3.926305  0  0  -0.066564  -0.168122  0  3.890053  0
C  C32  1  0.30214003  0.25909427  0.32072219  1  0  0.723119  0  3.804955  0  0  0.675379  0  4.101852  0  0  0.709167  0  4.095723  0  0  0.215049  0.652519  0  4.105655  0
C  C33  1  0.69784992  0.74090818  0.67926963  1  0  0.722948  0  3.805228  0  0  0.675256  0  4.102092  0  0  0.709045  0  4.09597  0  0  0.21492  0.652405  0  4.105896  0
C  C34  1  0.42479476  0.36219769  0.66664472  1  0  0.132919  0  3.675103  0  0  0.103804  0  3.92179  0  0  0.110251  0  3.940405  0  0  0.050619  0.099919  0  3.909002  0
C  C35  1  0.57519934  0.63780814  0.33336384  1  0  0.133021  0  3.674993  0  0  0.103901  0  3.92159  0  0  0.110349  0  3.940199  0  0  0.050726  0.100036  0  3.908789  0
C  C36  1  0.59090542  0.15291028  0.85580912  1  0  0.138757  0  3.666664  0  0  0.108666  0  3.915024  0  0  0.115142  0  3.933714  0  0  0.056929  0.104611  0  3.903238  0
C  C37  1  0.40910197  0.84708852  0.14418828  1  0  0.138737  0  3.666949  0  0  0.108679  0  3.915313  0  0  0.115151  0  3.934006  0  0  0.056971  0.104625  0  3.903531  0
C  C38  1  0.57064109  0.24457846  0.94174007  1  0  -0.167128  0  3.653094  0  0  -0.18738  0  3.905364  0  0  -0.19504  0  3.926315  0  0  -0.068941  -0.181663  0  3.890707  0
C  C39  1  0.42936690  0.75541775  0.05826549  1  0  -0.167051  0  3.65318  0  0  -0.187382  0  3.905435  0  0  -0.195045  0  3.926391  0  0  -0.069007  -0.181662  0  3.890775  0
C  C40  1  0.23425973  0.92690443  0.65589821  1  0  0.719111  0  3.813473  0  0  0.667924  0  4.115234  0  0  0.702387  0  4.107689  0  0  0.217979  0.644399  0  4.11959  0
C  C41  1  0.76574680  0.07309301  0.34410600  1  0  0.71903  0  3.813595  0  0  0.667813  0  4.115412  0  0  0.702272  0  4.107866  0  0  0.217901  0.644287  0  4.11977  0
C  C42  1  0.03835315  0.95565531  0.87436639  1  0  0.116348  0  3.755418  0  0  0.134689  0  3.992408  0  0  0.135256  0  4.016681  0  0  -0.015979  0.133523  0  3.976779  0
C  C43  1  0.96164459  0.04433853  0.12563201  1  0  0.116462  0  3.755424  0  0  0.134853  0  3.992325  0  0  0.135423  0  4.016591  0  0  -0.015924  0.133685  0  3.976695  0
C  C44  1  0.06647689  0.10321208  0.86576872  1  0  -0.117274  0  3.754722  0  0  -0.137261  0  4.002799  0  0  -0.139152  0  4.023918  0  0  -0.099238  -0.136339  0  3.99076  0
C  C45  1  0.93351745  0.89678663  0.13422920  1  0  -0.117347  0  3.754964  0  0  -0.13737  0  4.00304  0  0  -0.139259  0  4.024157  0  0  -0.099265  -0.136447  0  3.991003  0
C  C46  1  0.07161209  0.90858175  0.74123507  1  0  -0.30886  0  3.686745  0  0  -0.353482  0  3.934635  0  0  -0.359393  0  3.942108  0  0  -0.158622  -0.349367  0  3.928378  0
C  C47  1  0.92838939  0.09141696  0.25876511  1  0  -0.308888  0  3.68669  0  0  -0.353492  0  3.934583  0  0  -0.359396  0  3.942046  0  0  -0.158597  -0.34937  0  3.928313  0
C  C48  1  0.97174051  0.85346749  0.01083866  1  0  -0.13781  0  3.768613  0  0  -0.15524  0  4.01804  0  0  -0.158219  0  4.039273  0  0  -0.101263  -0.153076  0  4.003957  0
C  C49  1  0.02826134  0.14652387  0.98916333  1  0  -0.137943  0  3.768511  0  0  -0.155379  0  4.017943  0  0  -0.158357  0  4.039175  0  0  -0.101279  -0.153214  0  4.003857  0
C  C50  1  0.07805592  0.45992595  0.37905010  1  0  0.113446  0  3.760586  0  0  0.132768  0  3.995184  0  0  0.133273  0  4.019475  0  0  -0.015513  0.132028  0  3.979423  0
C  C51  1  0.92194066  0.54007894  0.62094411  1  0  0.11332  0  3.76085  0  0  0.132698  0  3.995412  0  0  0.133203  0  4.019715  0  0  -0.015542  0.131967  0  3.979649  0
C  C52  1  0.11884780  0.58114512  0.41023837  1  0  -0.111839  0  3.75663  0  0  -0.12794  0  4.001637  0  0  -0.129465  0  4.021756  0  0  -0.094049  -0.126514  0  3.989292  0
C  C53  1  0.88114655  0.41886466  0.58975418  1  0  -0.111775  0  3.756927  0  0  -0.127881  0  4.001895  0  0  -0.129404  0  4.022009  0  0  -0.094039  -0.126443  0  3.989562  0
C  C54  1  0.95788586  0.37881183  0.47090761  1  0  -0.130851  0  3.728778  0  0  -0.149206  0  3.974543  0  0  -0.152615  0  3.995652  0  0  -0.098362  -0.147095  0  3.961034  0
C  C55  1  0.04210995  0.62119672  0.52908629  1  0  -0.130731  0  3.728695  0  0  -0.149068  0  3.974427  0  0  -0.152487  0  3.995534  0  0  -0.098332  -0.14695  0  3.96093  0
N  N56  1  0.52055829  0.21098551  0.72014577  1  0  -0.306957  0  3.247675  0  0  -0.224312  0  3.517448  0  0  -0.243303  0  3.531282  0  0  -0.322122  -0.214081  0  3.509315  0
N  N57  1  0.47943689  0.78902050  0.27985332  1  0  -0.306975  0  3.247914  0  0  -0.224375  0  3.517704  0  0  -0.243361  0  3.531528  0  0  -0.322212  -0.214157  0  3.509586  0
N  N58  1  0.44352610  0.51067188  0.95812045  1  0  -0.110762  0  2.936403  0  0  -0.085951  0  3.212382  0  0  -0.086299  0  3.219553  0  0  -0.116253  -0.084985  0  3.206402  0
N  N59  1  0.55648349  0.48931690  0.04189195  1  0  -0.110756  0  2.936206  0  0  -0.086081  0  3.212255  0  0  -0.086428  0  3.219425  0  0  -0.116201  -0.085111  0  3.206274  0
O  O60  1  0.31749525  0.14829205  0.27173910  1  0  -0.629313  0  2.010489  0  0  -0.564253  0  2.268399  0  0  -0.592848  0  2.257402  0  0  -0.320189  -0.545086  0  2.275175  0
O  O61  1  0.68249870  0.85171405  0.72825494  1  0  -0.629253  0  2.010414  0  0  -0.564178  0  2.268274  0  0  -0.592783  0  2.257284  0  0  -0.320141  -0.54501  0  2.275044  0
O  O62  1  0.38877368  0.25400242  0.42104250  1  0  -0.663883  0  2.089009  0  0  -0.595471  0  2.356966  0  0  -0.624566  0  2.345721  0  0  -0.318105  -0.575608  0  2.363466  0
O  O63  1  0.61121525  0.74599379  0.57895702  1  0  -0.66382  0  2.089328  0  0  -0.595434  0  2.357269  0  0  -0.624529  0  2.346028  0  0  -0.318027  -0.575564  0  2.363756  0
O  O64  1  0.33256829  0.98222429  0.69877481  1  0  -0.641567  0  2.122655  0  0  -0.570541  0  2.386675  0  0  -0.599129  0  2.374788  0  0  -0.306742  -0.55038  0  2.393636  0
O  O65  1  0.66742989  0.01777909  0.30123526  1  0  -0.641498  0  2.122736  0  0  -0.570431  0  2.386708  0  0  -0.599052  0  2.374901  0  0  -0.306677  -0.550272  0  2.393672  0
O  O66  1  0.25862761  0.88455479  0.54416619  1  0  -0.649065  0  2.046347  0  0  -0.581763  0  2.310821  0  0  -0.610842  0  2.297684  0  0  -0.319638  -0.561289  0  2.317656  0
O  O67  1  0.74137973  0.11545001  0.45583607  1  0  -0.64903  0  2.046279  0  0  -0.581702  0  2.310735  0  0  -0.610778  0  2.2976  0  0  -0.319606  -0.561227  0  2.317571  0
