# generated using pymatgen
data_CuH9C11N4
_symmetry_space_group_name_H-M   'P 1'
_cell_length_a   10.52808191
_cell_length_b   10.87296141
_cell_length_c   13.10013357
_cell_angle_alpha   89.99892698
_cell_angle_beta   105.14526205
_cell_angle_gamma   90.00066909
_symmetry_Int_Tables_number   1
_chemical_formula_structural   CuH9C11N4
_chemical_formula_sum   'Cu4 H36 C44 N16'
_cell_volume   1447.50501450
_cell_formula_units_Z   4
loop_
 _symmetry_equiv_pos_site_id
 _symmetry_equiv_pos_as_xyz
  1  'x, y, z'
loop_
 _atom_site_type_symbol
 _atom_site_label
 _atom_site_symmetry_multiplicity
 _atom_site_fract_x
 _atom_site_fract_y
 _atom_site_fract_z
 _atom_site_occupancy
 _atom_site_hle17_bader_spin_density
 _atom_site_hle17_ddec_charge
 _atom_site_hle17_ddec_spin_density
 _atom_site_hle17_ddec_sum_bond_order
 _atom_site_hle17_magmom
 _atom_site_hse06_10hf_bader_spin_density
 _atom_site_hse06_10hf_ddec_charge
 _atom_site_hse06_10hf_ddec_spin_density
 _atom_site_hse06_10hf_ddec_sum_bond_order
 _atom_site_hse06_10hf_magmom
 _atom_site_hse06_bader_spin_density
 _atom_site_hse06_ddec_charge
 _atom_site_hse06_ddec_spin_density
 _atom_site_hse06_ddec_sum_bond_order
 _atom_site_hse06_magmom
 _atom_site_pbe_bader_spin_density
 _atom_site_pbe_cm5_charge
 _atom_site_pbe_ddec_charge
 _atom_site_pbe_ddec_spin_density
 _atom_site_pbe_ddec_sum_bond_order
 _atom_site_pbe_magmom
Cu  Cu0  1  0.42435118  0.59010519  0.46503008  1  0  0.407015  0  1.923898  0  0  0.27821  0  2.414049  0  0  0.283873  0  2.364772  0  0  0.522874  0.276734  0  2.445812  0
Cu  Cu1  1  0.57565238  0.09010714  0.03496847  1  0  0.407026  0  1.92384  0  0  0.278241  0  2.414025  0  0  0.283883  0  2.364738  0  0  0.522917  0.276762  0  2.445781  0
Cu  Cu2  1  0.57566261  0.40989035  0.53496964  1  0  0.407129  0  1.923712  0  0  0.278285  0  2.41386  0  0  0.283944  0  2.364574  0  0  0.522908  0.276823  0  2.44565  0
Cu  Cu3  1  0.42433675  0.90989208  0.96502880  1  0  0.407146  0  1.923739  0  0  0.278359  0  2.413898  0  0  0.284006  0  2.36462  0  0  0.522971  0.276894  0  2.445676  0
H  H4  1  0.93081519  0.68909882  0.27417928  1  0  0.060878  0  0.945245  0  0  0.069878  0  1.007947  0  0  0.072115  0  1.006556  0  0  0.103301  0.068212  0  1.00914  0
H  H5  1  0.06916360  0.18911567  0.22580832  1  0  0.060877  0  0.94522  0  0  0.069899  0  1.007897  0  0  0.072137  0  1.006509  0  0  0.103345  0.068233  0  1.009086  0
H  H6  1  0.06918747  0.31089212  0.72583246  1  0  0.060782  0  0.94515  0  0  0.069857  0  1.007806  0  0  0.072098  0  1.006416  0  0  0.103289  0.068186  0  1.009004  0
H  H7  1  0.93081780  0.81090378  0.77418111  1  0  0.060956  0  0.945262  0  0  0.069945  0  1.007967  0  0  0.07218  0  1.006575  0  0  0.103335  0.068277  0  1.009156  0
H  H8  1  0.16428500  0.67971959  0.38082101  1  0  0.103683  0  0.955914  0  0  0.113832  0  1.019085  0  0  0.118989  0  1.015215  0  0  0.099985  0.109803  0  1.022603  0
H  H9  1  0.83569499  0.17972817  0.11915403  1  0  0.103752  0  0.955782  0  0  0.113861  0  1.019033  0  0  0.119017  0  1.015161  0  0  0.100008  0.109834  0  1.022551  0
H  H10  1  0.83572201  0.32027963  0.61917261  1  0  0.103649  0  0.955806  0  0  0.11379  0  1.019011  0  0  0.118946  0  1.015142  0  0  0.09999  0.109763  0  1.022529  0
H  H11  1  0.16428758  0.82029036  0.88082726  1  0  0.103599  0  0.955822  0  0  0.113735  0  1.019047  0  0  0.118893  0  1.015176  0  0  0.099948  0.10971  0  1.022569  0
H  H12  1  0.10538189  0.29206817  0.42588888  1  0  0.106009  0  0.949101  0  0  0.118044  0  1.004466  0  0  0.121531  0  1.003466  0  0  0.104753  0.115301  0  1.006016  0
H  H13  1  0.89461126  0.79207459  0.07410790  1  0  0.105855  0  0.949133  0  0  0.117889  0  1.004513  0  0  0.121376  0  1.003513  0  0  0.104678  0.115149  0  1.006063  0
H  H14  1  0.89463660  0.70793013  0.57412257  1  0  0.106031  0  0.949111  0  0  0.118083  0  1.004451  0  0  0.12157  0  1.003449  0  0  0.104711  0.11534  0  1.006002  0
H  H15  1  0.10537102  0.20793383  0.92588631  1  0  0.106099  0  0.949094  0  0  0.118132  0  1.004447  0  0  0.121618  0  1.003448  0  0  0.104781  0.115391  0  1.005997  0
H  H16  1  0.87644106  0.31748078  0.31858953  1  0  0.058933  0  0.946394  0  0  0.07039  0  1.00678  0  0  0.072385  0  1.00524  0  0  0.105369  0.06887  0  1.00803  0
H  H17  1  0.12354906  0.81749633  0.18141838  1  0  0.059154  0  0.946284  0  0  0.070496  0  1.006763  0  0  0.072486  0  1.005233  0  0  0.105462  0.068977  0  1.008011  0
H  H18  1  0.12356905  0.68251844  0.68144296  1  0  0.058887  0  0.946288  0  0  0.070392  0  1.006631  0  0  0.072384  0  1.0051  0  0  0.105395  0.068872  0  1.007879  0
H  H19  1  0.87643006  0.18252036  0.81858505  1  0  0.058879  0  0.946402  0  0  0.070471  0  1.006651  0  0  0.072462  0  1.005119  0  0  0.105409  0.06895  0  1.0079  0
H  H20  1  0.23494183  0.35729869  0.58578445  1  0  0.04476  0  0.948159  0  0  0.060126  0  1.013946  0  0  0.060308  0  1.011411  0  0  0.119748  0.060226  0  1.015015  0
H  H21  1  0.76505127  0.85730081  0.91421267  1  0  0.044737  0  0.948248  0  0  0.060158  0  1.013975  0  0  0.060349  0  1.011432  0  0  0.119765  0.060258  0  1.015048  0
H  H22  1  0.76507290  0.64270053  0.41421777  1  0  0.044859  0  0.948091  0  0  0.060182  0  1.013906  0  0  0.06036  0  1.011369  0  0  0.119784  0.060284  0  1.014976  0
H  H23  1  0.23493488  0.14270393  0.08578545  1  0  0.044759  0  0.948087  0  0  0.060078  0  1.013919  0  0  0.060256  0  1.011385  0  0  0.119732  0.060177  0  1.014991  0
H  H24  1  0.38980079  0.29444808  0.93808610  1  0  0.070599  0  0.933088  0  0  0.081434  0  0.990851  0  0  0.083767  0  0.98865  0  0  0.109387  0.079766  0  0.992374  0
H  H25  1  0.61023789  0.79442119  0.56193137  1  0  0.070669  0  0.933044  0  0  0.081512  0  0.990799  0  0  0.083845  0  0.988598  0  0  0.109446  0.079842  0  0.992319  0
H  H26  1  0.61021391  0.70556218  0.06191764  1  0  0.070673  0  0.933061  0  0  0.081464  0  0.990848  0  0  0.083797  0  0.988647  0  0  0.109388  0.079796  0  0.992373  0
H  H27  1  0.38977186  0.20557068  0.43807278  1  0  0.070665  0  0.932939  0  0  0.081486  0  0.990699  0  0  0.08382  0  0.988495  0  0  0.109423  0.079814  0  0.992224  0
H  H28  1  0.31644092  0.39954421  0.76389718  1  0  0.112843  0  1.000371  0  0  0.112554  0  1.07829  0  0  0.117026  0  1.075903  0  0  0.098939  0.109247  0  1.080264  0
H  H29  1  0.68357883  0.89952630  0.73611514  1  0  0.11285  0  1.000303  0  0  0.112495  0  1.078323  0  0  0.116952  0  1.075945  0  0  0.098939  0.109207  0  1.080283  0
H  H30  1  0.68357975  0.60046237  0.23610484  1  0  0.112782  0  1.000311  0  0  0.112412  0  1.078331  0  0  0.116862  0  1.075951  0  0  0.098892  0.109117  0  1.080299  0
H  H31  1  0.31642399  0.10046924  0.26388900  1  0  0.112793  0  1.000351  0  0  0.112455  0  1.078338  0  0  0.116911  0  1.075962  0  0  0.098911  0.109152  0  1.080308  0
H  H32  1  0.63312984  0.21098936  0.67272210  1  0  0.107485  0  0.951101  0  0  0.117728  0  1.014078  0  0  0.122588  0  1.010269  0  0  0.102644  0.1138  0  1.017833  0
H  H33  1  0.36685844  0.71098793  0.82726791  1  0  0.107539  0  0.951081  0  0  0.117749  0  1.014107  0  0  0.122611  0  1.010297  0  0  0.102672  0.113821  0  1.017861  0
H  H34  1  0.36686912  0.78898595  0.32727812  1  0  0.107534  0  0.95119  0  0  0.117811  0  1.014095  0  0  0.122674  0  1.010283  0  0  0.1027  0.113893  0  1.01784  0
H  H35  1  0.63313578  0.28901129  0.17272286  1  0  0.10754  0  0.950975  0  0  0.117774  0  1.013965  0  0  0.122635  0  1.010157  0  0  0.102684  0.113849  0  1.017714  0
H  H36  1  0.69167944  0.11382378  0.85110696  1  0  0.070245  0  0.975299  0  0  0.076052  0  1.04614  0  0  0.077773  0  1.04476  0  0  0.10803  0.07507  0  1.046698  0
H  H37  1  0.30832392  0.61381823  0.64888569  1  0  0.070346  0  0.975253  0  0  0.076127  0  1.046112  0  0  0.07783  0  1.044747  0  0  0.10806  0.075146  0  1.046672  0
H  H38  1  0.30831656  0.88615980  0.14889260  1  0  0.070178  0  0.975362  0  0  0.075962  0  1.046223  0  0  0.077685  0  1.04484  0  0  0.108013  0.074981  0  1.046781  0
H  H39  1  0.69167327  0.38618099  0.35110497  1  0  0.070337  0  0.975287  0  0  0.076136  0  1.046114  0  0  0.077822  0  1.04477  0  0  0.108061  0.075154  0  1.046675  0
C  C40  1  0.97255721  0.60193199  0.30939463  1  0  0.112366  0  3.805001  0  0  0.089798  0  4.060871  0  0  0.096437  0  4.07959  0  0  0.02583  0.085628  0  4.048042  0
C  C41  1  0.02742394  0.10193994  0.19059262  1  0  0.112302  0  3.805402  0  0  0.089726  0  4.061227  0  0  0.09636  0  4.079953  0  0  0.025757  0.085555  0  4.048396  0
C  C42  1  0.02744745  0.39806631  0.69061603  1  0  0.112561  0  3.804673  0  0  0.089932  0  4.060554  0  0  0.096567  0  4.079278  0  0  0.025841  0.08576  0  4.047723  0
C  C43  1  0.97255944  0.89806940  0.80939649  1  0  0.11213  0  3.805078  0  0  0.089567  0  4.060948  0  0  0.096207  0  4.07967  0  0  0.025744  0.085399  0  4.048113  0
C  C44  1  0.10277047  0.59736830  0.36885869  1  0  -0.225792  0  3.733705  0  0  -0.240433  0  3.976996  0  0  -0.250097  0  3.996816  0  0  -0.10247  -0.234  0  3.964418  0
C  C45  1  0.89721375  0.09737548  0.13112245  1  0  -0.225752  0  3.733804  0  0  -0.240371  0  3.977099  0  0  -0.250028  0  3.996924  0  0  -0.102504  -0.23394  0  3.964514  0
C  C46  1  0.89723540  0.40263460  0.63114155  1  0  -0.225833  0  3.73352  0  0  -0.240472  0  3.976868  0  0  -0.250138  0  3.996691  0  0  -0.102503  -0.234038  0  3.964291  0
C  C47  1  0.10276976  0.90263937  0.86886059  1  0  -0.225567  0  3.733511  0  0  -0.24017  0  3.976811  0  0  -0.249835  0  3.996637  0  0  -0.102346  -0.233744  0  3.964226  0
C  C48  1  0.15481146  0.48554482  0.41635172  1  0  0.28272  0  3.838415  0  0  0.277931  0  4.076526  0  0  0.290228  0  4.098822  0  0  0.1007  0.269947  0  4.061137  0
C  C49  1  0.84517529  0.98555323  0.08363746  1  0  0.282665  0  3.838624  0  0  0.277882  0  4.076738  0  0  0.290182  0  4.099035  0  0  0.100717  0.269901  0  4.061349  0
C  C50  1  0.84519829  0.51444796  0.58365244  1  0  0.283016  0  3.83852  0  0  0.278209  0  4.076606  0  0  0.290511  0  4.098899  0  0  0.100854  0.270224  0  4.06122  0
C  C51  1  0.15481197  0.01446162  0.91635480  1  0  0.28273  0  3.83855  0  0  0.277872  0  4.076729  0  0  0.290175  0  4.099027  0  0  0.10061  0.269891  0  4.061341  0
C  C52  1  0.07016464  0.38279059  0.39605145  1  0  -0.232474  0  3.737977  0  0  -0.246101  0  3.980151  0  0  -0.257514  0  4.003889  0  0  -0.103664  -0.239286  0  3.965347  0
C  C53  1  0.92982618  0.88280320  0.10394488  1  0  -0.232288  0  3.737859  0  0  -0.245895  0  3.979989  0  0  -0.257306  0  4.003719  0  0  -0.103639  -0.23908  0  3.965183  0
C  C54  1  0.92984892  0.61721047  0.60395891  1  0  -0.23247  0  3.737811  0  0  -0.246118  0  3.980001  0  0  -0.257532  0  4.003736  0  0  -0.103607  -0.239304  0  3.965197  0
C  C55  1  0.07015907  0.11721626  0.89604923  1  0  -0.232552  0  3.737998  0  0  -0.246174  0  3.98027  0  0  -0.257585  0  4.003997  0  0  -0.10368  -0.239359  0  3.965465  0
C  C56  1  0.94184211  0.39730008  0.33455318  1  0  0.120601  0  3.801499  0  0  0.097455  0  4.059429  0  0  0.104979  0  4.077328  0  0  0.029139  0.093112  0  4.046733  0
C  C57  1  0.05814867  0.89731524  0.16544977  1  0  0.120273  0  3.801741  0  0  0.097219  0  4.059657  0  0  0.104747  0  4.077556  0  0  0.029022  0.092876  0  4.046963  0
C  C58  1  0.05816241  0.60269362  0.66546355  1  0  0.120634  0  3.801356  0  0  0.097474  0  4.059289  0  0  0.105001  0  4.077191  0  0  0.029043  0.093133  0  4.046591  0
C  C59  1  0.94183740  0.10270054  0.83455215  1  0  0.120472  0  3.801522  0  0  0.097219  0  4.059509  0  0  0.104747  0  4.077411  0  0  0.029045  0.092876  0  4.04681  0
C  C60  1  0.31422401  0.39892565  0.55706637  1  0  0.295974  0  3.790353  0  0  0.233858  0  4.060637  0  0  0.259504  0  4.066841  0  0  0.151352  0.217532  0  4.054224  0
C  C61  1  0.68576654  0.89892348  0.94292493  1  0  0.296096  0  3.790232  0  0  0.233954  0  4.060489  0  0  0.259592  0  4.066706  0  0  0.151454  0.21763  0  4.054081  0
C  C62  1  0.68578785  0.60107265  0.44293138  1  0  0.295936  0  3.790135  0  0  0.233898  0  4.060429  0  0  0.25956  0  4.066618  0  0  0.151276  0.217569  0  4.05402  0
C  C63  1  0.31422273  0.10107758  0.05706626  1  0  0.295997  0  3.789892  0  0  0.233928  0  4.06017  0  0  0.259579  0  4.066372  0  0  0.151342  0.217602  0  4.053761  0
C  C64  1  0.44077598  0.27801837  0.87662516  1  0  0.135445  0  3.747652  0  0  0.109619  0  3.989841  0  0  0.117882  0  4.00785  0  0  0.033518  0.104137  0  3.977835  0
C  C65  1  0.55925373  0.77800152  0.62339057  1  0  0.135396  0  3.747765  0  0  0.109553  0  3.989956  0  0  0.117826  0  4.007981  0  0  0.033356  0.104077  0  3.977945  0
C  C66  1  0.55924357  0.72197625  0.12338271  1  0  0.135376  0  3.747487  0  0  0.109612  0  3.989632  0  0  0.117872  0  4.007639  0  0  0.033479  0.104137  0  3.977631  0
C  C67  1  0.44075022  0.22199035  0.37660771  1  0  0.135544  0  3.74746  0  0  0.109755  0  3.989593  0  0  0.118025  0  4.007616  0  0  0.03353  0.104278  0  3.977581  0
C  C68  1  0.39898487  0.33503127  0.77891056  1  0  -0.230806  0  3.708773  0  0  -0.239858  0  3.945337  0  0  -0.252711  0  3.96896  0  0  -0.10271  -0.231685  0  3.930217  0
C  C69  1  0.60102770  0.83501275  0.72109356  1  0  -0.230591  0  3.708822  0  0  -0.23966  0  3.945388  0  0  -0.252489  0  3.969026  0  0  -0.10254  -0.23151  0  3.930251  0
C  C70  1  0.60102993  0.66496979  0.22108862  1  0  -0.230742  0  3.708866  0  0  -0.239742  0  3.945401  0  0  -0.252566  0  3.969045  0  0  -0.102638  -0.231583  0  3.930282  0
C  C71  1  0.39897038  0.16498095  0.27890189  1  0  -0.230703  0  3.709036  0  0  -0.239765  0  3.94562  0  0  -0.252592  0  3.969246  0  0  -0.102651  -0.231603  0  3.930504  0
C  C72  1  0.46866640  0.31293089  0.70204438  1  0  0.282038  0  3.837647  0  0  0.279717  0  4.069903  0  0  0.293072  0  4.091367  0  0  0.101242  0.270604  0  4.055354  0
C  C73  1  0.53132631  0.81291818  0.79795643  1  0  0.281946  0  3.837967  0  0  0.279783  0  4.070039  0  0  0.293136  0  4.091504  0  0  0.101174  0.270666  0  4.0555  0
C  C74  1  0.53134149  0.68706741  0.29795402  1  0  0.282275  0  3.837835  0  0  0.280016  0  4.070022  0  0  0.293367  0  4.091496  0  0  0.101326  0.270902  0  4.055479  0
C  C75  1  0.46866370  0.18707736  0.20204638  1  0  0.282108  0  3.838065  0  0  0.279849  0  4.070256  0  0  0.293205  0  4.091717  0  0  0.101195  0.270735  0  4.055713  0
C  C76  1  0.57704798  0.23224206  0.72987123  1  0  -0.225507  0  3.731686  0  0  -0.239037  0  3.973204  0  0  -0.249477  0  3.993054  0  0  -0.101999  -0.232364  0  3.960855  0
C  C77  1  0.42295308  0.73223976  0.77012892  1  0  -0.225611  0  3.731971  0  0  -0.239191  0  3.973459  0  0  -0.249633  0  3.993299  0  0  -0.102083  -0.232509  0  3.961112  0
C  C78  1  0.42296565  0.76774153  0.27013609  1  0  -0.225856  0  3.731953  0  0  -0.239435  0  3.973467  0  0  -0.249869  0  3.993305  0  0  -0.102122  -0.232763  0  3.96112  0
C  C79  1  0.57703315  0.26775487  0.22986540  1  0  -0.225621  0  3.731993  0  0  -0.239185  0  3.973502  0  0  -0.249623  0  3.99334  0  0  -0.102044  -0.232505  0  3.961154  0
C  C80  1  0.61020149  0.17877183  0.82907934  1  0  0.130038  0  3.745813  0  0  0.103437  0  3.989167  0  0  0.110957  0  4.008081  0  0  0.030696  0.098364  0  3.9767  0
C  C81  1  0.38980927  0.67876028  0.67091239  1  0  0.129996  0  3.745958  0  0  0.103429  0  3.98925  0  0  0.110988  0  4.008173  0  0  0.030758  0.098352  0  3.976789  0
C  C82  1  0.38980247  0.82122096  0.17091818  1  0  0.130289  0  3.745429  0  0  0.103734  0  3.988748  0  0  0.111259  0  4.007657  0  0  0.030785  0.098659  0  3.976294  0
C  C83  1  0.61019084  0.32123434  0.32908045  1  0  0.129933  0  3.745822  0  0  0.103362  0  3.989127  0  0  0.110922  0  4.008055  0  0  0.030683  0.098283  0  3.976669  0
N  N84  1  0.89051602  0.50447805  0.29159359  1  0  -0.35503  0  3.099369  0  0  -0.317728  0  3.370356  0  0  -0.330346  0  3.38412  0  0  -0.344221  -0.309035  0  3.3596  0
N  N85  1  0.10946426  0.00449114  0.20840266  1  0  -0.354974  0  3.099724  0  0  -0.317667  0  3.370676  0  0  -0.33029  0  3.384448  0  0  -0.344161  -0.308974  0  3.359917  0
N  N86  1  0.10949229  0.49551197  0.70843086  1  0  -0.355255  0  3.099267  0  0  -0.317985  0  3.370328  0  0  -0.330607  0  3.3841  0  0  -0.34428  -0.309294  0  3.359568  0
N  N87  1  0.89051115  0.99552096  0.79158925  1  0  -0.354917  0  3.09921  0  0  -0.317617  0  3.370241  0  0  -0.330242  0  3.384016  0  0  -0.344224  -0.308925  0  3.359485  0
N  N88  1  0.28426134  0.47907747  0.47725429  1  0  -0.45293  0  3.387597  0  0  -0.375891  0  3.697639  0  0  -0.397735  0  3.701286  0  0  -0.410452  -0.361342  0  3.693616  0
N  N89  1  0.71573222  0.97907747  0.02273804  1  0  -0.452871  0  3.387782  0  0  -0.375887  0  3.697899  0  0  -0.397734  0  3.701542  0  0  -0.410437  -0.361338  0  3.693872  0
N  N90  1  0.71575922  0.52091807  0.52275304  1  0  -0.453203  0  3.387879  0  0  -0.376168  0  3.69796  0  0  -0.398016  0  3.701588  0  0  -0.410462  -0.361623  0  3.693961  0
N  N91  1  0.28425222  0.02092359  0.97724749  1  0  -0.453017  0  3.387585  0  0  -0.375966  0  3.69767  0  0  -0.397817  0  3.701312  0  0  -0.410455  -0.361421  0  3.693662  0
N  N92  1  0.43885292  0.37030807  0.60408700  1  0  -0.452251  0  3.409366  0  0  -0.375153  0  3.718528  0  0  -0.397109  0  3.721612  0  0  -0.411825  -0.360419  0  3.715109  0
N  N93  1  0.56113734  0.87030551  0.89590852  1  0  -0.452391  0  3.409498  0  0  -0.375336  0  3.718645  0  0  -0.397296  0  3.721736  0  0  -0.411949  -0.360603  0  3.715225  0
N  N94  1  0.56115496  0.62968380  0.39591216  1  0  -0.452236  0  3.409394  0  0  -0.375261  0  3.718668  0  0  -0.397223  0  3.721753  0  0  -0.411873  -0.360528  0  3.715238  0
N  N95  1  0.43885377  0.12969555  0.10408919  1  0  -0.452224  0  3.409261  0  0  -0.375151  0  3.718424  0  0  -0.397111  0  3.721505  0  0  -0.411768  -0.360416  0  3.71499  0
N  N96  1  0.54477250  0.20109851  0.90315583  1  0  -0.326852  0  3.34518  0  0  -0.255848  0  3.636944  0  0  -0.268395  0  3.644061  0  0  -0.370179  -0.248211  0  3.632449  0
N  N97  1  0.45524697  0.70108197  0.59685122  1  0  -0.327028  0  3.345333  0  0  -0.25598  0  3.637057  0  0  -0.26858  0  3.644213  0  0  -0.370216  -0.248348  0  3.632567  0
N  N98  1  0.45523336  0.79890163  0.09684517  1  0  -0.326989  0  3.344874  0  0  -0.256  0  3.636637  0  0  -0.268553  0  3.643759  0  0  -0.370198  -0.248374  0  3.632161  0
N  N99  1  0.54475402  0.29891449  0.40314640  1  0  -0.327051  0  3.34511  0  0  -0.256024  0  3.636841  0  0  -0.268605  0  3.64398  0  0  -0.370216  -0.248384  0  3.632353  0
