# generated using pymatgen
data_Zn2H18C23N4O7
_symmetry_space_group_name_H-M   'P 1'
_cell_length_a   9.21228375
_cell_length_b   10.22774515
_cell_length_c   13.41834127
_cell_angle_alpha   83.55305108
_cell_angle_beta   71.36379212
_cell_angle_gamma   74.07662580
_symmetry_Int_Tables_number   1
_chemical_formula_structural   Zn2H18C23N4O7
_chemical_formula_sum   'Zn4 H36 C46 N8 O14'
_cell_volume   1151.60910932
_cell_formula_units_Z   2
loop_
 _symmetry_equiv_pos_site_id
 _symmetry_equiv_pos_as_xyz
  1  'x, y, z'
loop_
 _atom_site_type_symbol
 _atom_site_label
 _atom_site_symmetry_multiplicity
 _atom_site_fract_x
 _atom_site_fract_y
 _atom_site_fract_z
 _atom_site_occupancy
 _atom_site_pbe_bader_spin_density
 _atom_site_pbe_cm5_charge
 _atom_site_pbe_ddec_charge
 _atom_site_pbe_ddec_spin_density
 _atom_site_pbe_ddec_sum_bond_order
 _atom_site_pbe_magmom
Zn  Zn0  1  0.37385611  0.68975545  0.27222190  1  0  0.669205  0.865723  0  2.379133  0
Zn  Zn1  1  0.62614305  0.31024286  0.72777895  1  0  0.669253  0.865794  0  2.379064  0
Zn  Zn2  1  0.47785692  0.24475153  0.55086831  1  0  0.68078  0.897983  0  2.325377  0
Zn  Zn3  1  0.52214393  0.75524881  0.44913498  1  0  0.680761  0.897979  0  2.325346  0
H  H4  1  0.61016026  0.95086976  0.04991396  1  0  0.103276  0.104554  0  1.02893  0
H  H5  1  0.38984283  0.04912650  0.95009219  1  0  0.103295  0.104557  0  1.028877  0
H  H6  1  0.63157124  0.15899301  0.93690215  1  0  0.100399  0.103272  0  1.040647  0
H  H7  1  0.36843246  0.84100121  0.06310031  1  0  0.100393  0.103271  0  1.040633  0
H  H8  1  0.56375284  0.38283200  0.02139389  1  0  0.102963  0.102958  0  1.018627  0
H  H9  1  0.43624805  0.61716427  0.97860602  1  0  0.10296  0.102967  0  1.01863  0
H  H10  1  0.12027026  0.30150010  0.55972266  1  0  0.12454  0.129956  0  1.001616  0
H  H11  1  0.87973693  0.69849811  0.44027723  1  0  0.124562  0.129928  0  1.001692  0
H  H12  1  0.90399571  0.55394515  0.61775380  1  0  0.125289  0.142149  0  1.042063  0
H  H13  1  0.09600641  0.44605513  0.38224102  1  0  0.125326  0.142192  0  1.042094  0
H  H14  1  0.35144474  0.56104561  0.63836619  1  0  0.138024  0.112374  0  1.013759  0
H  H15  1  0.64855583  0.43895574  0.36163632  1  0  0.13802  0.112396  0  1.013766  0
H  H16  1  0.13386495  0.79393498  0.63684368  1  0  0.120551  0.118999  0  0.96634  0
H  H17  1  0.86613454  0.20606636  0.36315460  1  0  0.120548  0.119012  0  0.966366  0
H  H18  1  0.94118684  0.78063727  0.64257862  1  0  0.120909  0.12398  0  0.974005  0
H  H19  1  0.05881381  0.21936000  0.35741827  1  0  0.120899  0.123978  0  0.97397  0
H  H20  1  0.77802663  0.68049646  0.81159555  1  0  0.097536  0.096987  0  1.053552  0
H  H21  1  0.22197774  0.31949163  0.18839985  1  0  0.097566  0.096991  0  1.053589  0
H  H22  1  0.71455600  0.65076941  0.00622838  1  0  0.101914  0.113681  0  1.012101  0
H  H23  1  0.28545036  0.34921563  0.99376760  1  0  0.101917  0.11366  0  1.012138  0
H  H24  1  0.13446640  0.77200053  0.98972587  1  0  0.094387  0.090816  0  1.068867  0
H  H25  1  0.86552334  0.22800702  0.01027396  1  0  0.094405  0.090859  0  1.068914  0
H  H26  1  0.20214718  0.79162758  0.79615487  1  0  0.099503  0.101199  0  1.040833  0
H  H27  1  0.79784888  0.20837786  0.20384378  1  0  0.099499  0.101227  0  1.040858  0
H  H28  1  0.90926283  0.57379310  0.14778616  1  0  0.117856  0.108954  0  0.97674  0
H  H29  1  0.09073889  0.42620823  0.85221612  1  0  0.117851  0.10898  0  0.97673  0
H  H30  1  0.75804014  0.72605318  0.16867743  1  0  0.116776  0.111696  0  1.002754  0
H  H31  1  0.24195961  0.27394715  0.83132237  1  0  0.11679  0.111719  0  1.002728  0
H  H32  1  0.16891069  0.56432949  0.17400632  1  0  0.137454  0.101449  0  1.022866  0
H  H33  1  0.83108764  0.43567593  0.82599409  1  0  0.137462  0.101457  0  1.022799  0
H  H34  1  0.08705580  0.96360507  0.27081968  1  0  0.12605  0.124962  0  0.991332  0
H  H35  1  0.91294139  0.03640036  0.72918023  1  0  0.126071  0.125051  0  0.99131  0
H  H36  1  0.83854225  0.94837841  0.20067088  1  0  0.124389  0.125706  0  1.028663  0
H  H37  1  0.16145318  0.05162502  0.79933106  1  0  0.124409  0.125679  0  1.02869  0
H  H38  1  0.33330740  0.61196891  0.45373888  1  0  0.278189  0.359848  0  0.980212  0
H  H39  1  0.66669404  0.38802939  0.54626297  1  0  0.278176  0.359835  0  0.98022  0
C  C40  1  0.51851934  0.92631478  0.25805665  1  0  0.222463  0.593237  0  4.177539  0
C  C41  1  0.48147318  0.07368668  0.74194833  1  0  0.222369  0.59307  0  4.177542  0
C  C42  1  0.53365104  0.05548432  0.19532627  1  0  -0.018322  -0.079069  0  3.96322  0
C  C43  1  0.46634378  0.94451711  0.80467747  1  0  -0.018351  -0.079138  0  3.963276  0
C  C44  1  0.58272679  0.04896965  0.08522822  1  0  -0.080351  -0.080459  0  3.958911  0
C  C45  1  0.41727632  0.95102661  0.91477643  1  0  -0.08039  -0.080416  0  3.958826  0
C  C46  1  0.59535770  0.16532405  0.02212812  1  0  -0.093227  -0.08844  0  4.003451  0
C  C47  1  0.40464257  0.83467021  0.97787433  1  0  -0.093197  -0.088467  0  4.003525  0
C  C48  1  0.55713254  0.28996773  0.06930087  1  0  -0.079302  -0.084204  0  3.965277  0
C  C49  1  0.44286917  0.71002955  0.93070176  1  0  -0.079331  -0.084277  0  3.965275  0
C  C50  1  0.50665206  0.29871410  0.17911730  1  0  -0.016873  -0.067247  0  3.956819  0
C  C51  1  0.49334541  0.70128626  0.82088224  1  0  -0.016859  -0.067161  0  3.95666  0
C  C52  1  0.49561754  0.18064944  0.24374579  1  0  0.005692  -0.034524  0  3.868129  0
C  C53  1  0.50438102  0.81935093  0.75625724  1  0  0.005663  -0.03452  0  3.867965  0
C  C54  1  0.44022516  0.18951663  0.36257495  1  0  0.200343  0.591744  0  4.252727  0
C  C55  1  0.55977090  0.81048476  0.63742331  1  0  0.200339  0.591703  0  4.252801  0
C  C56  1  0.45198396  0.43605511  0.22655472  1  0  0.189907  0.54372  0  4.238198  0
C  C57  1  0.54801555  0.56395029  0.77344321  1  0  0.189929  0.543682  0  4.238306  0
C  C58  1  0.13404017  0.39230753  0.58626096  1  0  0.000437  -0.018583  0  3.977862  0
C  C59  1  0.86596473  0.60769478  0.41373980  1  0  0.00054  -0.018355  0  3.977519  0
C  C60  1  0.02839218  0.51643751  0.61250419  1  0  0.004228  -0.108734  0  3.886211  0
C  C61  1  0.97161564  0.48355866  0.38749201  1  0  0.004121  -0.108875  0  3.886193  0
C  C62  1  0.26154923  0.52220874  0.62407894  1  0  0.134917  0.068369  0  3.923405  0
C  C63  1  0.73845508  0.47779154  0.37592287  1  0  0.134948  0.068399  0  3.923446  0
C  C64  1  0.04335709  0.73731855  0.67218343  1  0  -0.043014  -0.120961  0  3.859079  0
C  C65  1  0.95664182  0.26268077  0.32781515  1  0  -0.043021  -0.120986  0  3.859128  0
C  C66  1  0.99564978  0.73583187  0.79086167  1  0  -0.018089  0.074252  0  4.006765  0
C  C67  1  0.00434710  0.26416647  0.20913817  1  0  -0.018061  0.07425  0  4.0066  0
C  C68  1  0.85759446  0.69769222  0.85111048  1  0  -0.09755  -0.140819  0  3.999596  0
C  C69  1  0.14240788  0.30229895  0.14888732  1  0  -0.097533  -0.140712  0  3.999518  0
C  C70  1  0.82115412  0.68241830  0.96016026  1  0  -0.093522  -0.133993  0  3.97159  0
C  C71  1  0.17884878  0.31757084  0.03983759  1  0  -0.093551  -0.134034  0  3.971789  0
C  C72  1  0.92176399  0.70749531  0.01116128  1  0  -0.013168  0.088255  0  3.970464  0
C  C73  1  0.07823664  0.29250197  0.98883710  1  0  -0.013173  0.088182  0  3.970626  0
C  C74  1  0.05626731  0.74994666  0.95149899  1  0  -0.097555  -0.134278  0  3.993651  0
C  C75  1  0.94372992  0.25005471  0.04849753  1  0  -0.097622  -0.13438  0  3.993805  0
C  C76  1  0.09391979  0.76274567  0.84214301  1  0  -0.092863  -0.127528  0  3.990088  0
C  C77  1  0.90607280  0.23725577  0.15785674  1  0  -0.092889  -0.127558  0  3.99006  0
C  C78  1  0.88429477  0.68369570  0.12902313  1  0  -0.040786  -0.10431  0  3.867099  0
C  C79  1  0.11570384  0.31630465  0.87097617  1  0  -0.040773  -0.10428  0  3.867133  0
C  C80  1  0.11617647  0.67110983  0.19043514  1  0  0.146666  0.093233  0  3.935458  0
C  C81  1  0.88382303  0.32889557  0.80956354  1  0  0.146659  0.0933  0  3.935203  0
C  C82  1  0.06748581  0.87859469  0.24005237  1  0  0.006632  -0.023352  0  3.97633  0
C  C83  1  0.93250794  0.12140673  0.75994639  1  0  0.00654  -0.023602  0  3.976505  0
C  C84  1  0.94454222  0.87259476  0.20534180  1  0  0.010943  -0.087399  0  3.894225  0
C  C85  1  0.05546214  0.12740957  0.79465742  1  0  0.010959  -0.087265  0  3.894201  0
N  N86  1  0.27858337  0.39703758  0.59374905  1  0  -0.361506  -0.320397  0  3.630631  0
N  N87  1  0.72141862  0.60296274  0.40625399  1  0  -0.361564  -0.320507  0  3.630498  0
N  N88  1  0.11115244  0.59721970  0.63496104  1  0  -0.23671  0.060926  0  3.759351  0
N  N89  1  0.88884875  0.40277960  0.36503779  1  0  -0.236709  0.060883  0  3.759428  0
N  N90  1  0.17381844  0.75203506  0.23034106  1  0  -0.359176  -0.299982  0  3.619155  0
N  N91  1  0.82618051  0.24797237  0.76965606  1  0  -0.359112  -0.299931  0  3.6193  0
N  N92  1  0.97704342  0.74028116  0.17479322  1  0  -0.239828  0.042382  0  3.796951  0
N  N93  1  0.02295579  0.25972526  0.82520542  1  0  -0.239869  0.042294  0  3.79702  0
O  O94  1  0.48303965  0.83984396  0.21414639  1  0  -0.318027  -0.555672  0  2.365803  0
O  O95  1  0.51694777  0.16016362  0.78585542  1  0  -0.317982  -0.55561  0  2.365725  0
O  O96  1  0.54623858  0.91113883  0.34611495  1  0  -0.298578  -0.51338  0  2.344917  0
O  O97  1  0.45375886  0.08886154  0.65388684  1  0  -0.298557  -0.513301  0  2.344927  0
O  O98  1  0.30679074  0.17509898  0.41366489  1  0  -0.319329  -0.540545  0  2.099917  0
O  O99  1  0.69321015  0.82490541  0.58633655  1  0  -0.319325  -0.540538  0  2.099881  0
O  O100  1  0.54497366  0.21217458  0.40001989  1  0  -0.341096  -0.579758  0  2.306114  0
O  O101  1  0.45502290  0.78782885  0.59998331  1  0  -0.341033  -0.579655  0  2.306224  0
O  O102  1  0.34296835  0.45631854  0.31310289  1  0  -0.312101  -0.547103  0  2.2067  0
O  O103  1  0.65702745  0.54368792  0.68689425  1  0  -0.31213  -0.547133  0  2.206712  0
O  O104  1  0.51349180  0.53251945  0.17481166  1  0  -0.336724  -0.562057  0  2.21813  0
O  O105  1  0.48651287  0.46747980  0.82518495  1  0  -0.336726  -0.562027  0  2.218119  0
O  O106  1  0.35197072  0.69784849  0.42053768  1  0  -0.594518  -0.840596  0  2.177694  0
O  O107  1  0.64803445  0.30214875  0.57946346  1  0  -0.594476  -0.840536  0  2.177731  0
