# generated using pymatgen
data_Zn4H12C24S3O22
_symmetry_space_group_name_H-M   'P 1'
_cell_length_a   16.08628149
_cell_length_b   15.87911322
_cell_length_c   15.66761591
_cell_angle_alpha   66.58252333
_cell_angle_beta   67.24752651
_cell_angle_gamma   66.95648802
_symmetry_Int_Tables_number   1
_chemical_formula_structural   Zn4H12C24S3O22
_chemical_formula_sum   'Zn8 H24 C48 S6 O44'
_cell_volume   3250.28166929
_cell_formula_units_Z   2
loop_
 _symmetry_equiv_pos_site_id
 _symmetry_equiv_pos_as_xyz
  1  'x, y, z'
loop_
 _atom_site_type_symbol
 _atom_site_label
 _atom_site_symmetry_multiplicity
 _atom_site_fract_x
 _atom_site_fract_y
 _atom_site_fract_z
 _atom_site_occupancy
 _atom_site_pbe_bader_charge
 _atom_site_pbe_bader_spin_density
 _atom_site_pbe_cm5_charge
 _atom_site_pbe_ddec_charge
 _atom_site_pbe_ddec_spin_density
 _atom_site_pbe_ddec_sum_bond_order
 _atom_site_pbe_magmom
Zn  Zn0  1  0.98288409  0.97361733  0.99088599  1  1.306593  0  0.670459  0.948183  0  2.363182  0
Zn  Zn1  1  0.98956157  0.96483025  0.18963702  1  1.326338  0  0.686637  0.986748  0  2.325184  0
Zn  Zn2  1  0.00012827  0.15935123  0.00355392  1  1.317571  0  0.691571  0.991238  0  2.314782  0
Zn  Zn3  1  0.17526236  0.96901711  0.00734438  1  1.327189  0  0.689704  0.983587  0  2.354227  0
Zn  Zn4  1  0.57895188  0.58755599  0.60236900  1  1.317032  0  0.682457  0.973934  0  2.301535  0
Zn  Zn5  1  0.60943593  0.53739999  0.41172396  1  1.323855  0  0.688826  0.985201  0  2.317119  0
Zn  Zn6  1  0.40449695  0.58181384  0.55925648  1  1.319913  0  0.685421  0.972469  0  2.3437  0
Zn  Zn7  1  0.55575342  0.38715699  0.62262344  1  1.324153  0  0.691134  0.988007  0  2.31387  0
H  H8  1  0.80303532  0.77298823  0.31222241  1  0.105768  0  0.118088  0.127491  0  0.971679  0
H  H9  1  0.50700541  0.84317023  0.34102192  1  0.146236  0  0.118411  0.12955  0  0.978471  0
H  H10  1  0.66998299  0.03067490  0.12100664  1  0.126793  0  0.117178  0.132772  0  0.98942  0
H  H11  1  0.44070156  0.12306538  0.26843104  1  0.648078  0  0.314017  0.383166  0  0.938332  0
H  H12  1  0.77077772  0.28733449  0.83385690  1  0.103592  0  0.121372  0.131885  0  0.964682  0
H  H13  1  0.84774141  0.37458789  0.52120731  1  0.126487  0  0.115697  0.127567  0  0.9884  0
H  H14  1  0.04363027  0.15026255  0.67324253  1  0.133698  0  0.118452  0.133251  0  0.982691  0
H  H15  1  0.06807325  0.39187726  0.40881054  1  0.645578  0  0.333146  0.40379  0  0.875531  0
H  H16  1  0.30060514  0.79035759  0.79647772  1  0.112115  0  0.120454  0.130982  0  0.968417  0
H  H17  1  0.32265660  0.49125419  0.86719925  1  0.112332  0  0.118596  0.129334  0  0.977211  0
H  H18  1  0.11634971  0.65663175  0.05743026  1  0.1416  0  0.115893  0.130607  0  0.990756  0
H  H19  1  0.26784678  0.41308700  0.15225951  1  0.660007  0  0.312914  0.382906  0  0.943154  0
H  H20  1  0.82585811  0.23841905  0.34947690  1  0.13212  0  0.126985  0.140032  0  0.959474  0
H  H21  1  0.52850491  0.33128445  0.37671930  1  0.106546  0  0.109058  0.111255  0  1.014077  0
H  H22  1  0.72411056  0.20080818  0.15292857  1  0.132951  0  0.121126  0.131621  0  0.983945  0
H  H23  1  0.39287666  0.38898718  0.23789645  1  0.674509  0  0.315076  0.391752  0  0.941472  0
H  H24  1  0.33370084  0.79353183  0.25839371  1  0.138023  0  0.128336  0.145005  0  0.956377  0
H  H25  1  0.37766549  0.48774037  0.36458797  1  0.094114  0  0.110844  0.115351  0  1.012668  0
H  H26  1  0.13920047  0.67145227  0.25296680  1  0.138473  0  0.122843  0.135656  0  0.979274  0
H  H27  1  0.26141992  0.33190581  0.43299991  1  0.66081  0  0.31301  0.394446  0  0.949056  0
H  H28  1  0.25712787  0.31453122  0.82046873  1  0.142998  0  0.127259  0.14242  0  0.958421  0
H  H29  1  0.38373282  0.31922886  0.52081111  1  0.089648  0  0.108662  0.109321  0  1.010962  0
H  H30  1  0.24855615  0.10060923  0.72164988  1  0.129767  0  0.122736  0.136178  0  0.980887  0
H  H31  1  0.46159405  0.16732821  0.40100542  1  0.662915  0  0.312607  0.384356  0  0.952651  0
C  C32  1  0.83769344  0.92739707  0.16446922  1  1.550605  0  0.229801  0.60703  0  4.158087  0
C  C33  1  0.74542855  0.90500649  0.21368522  1  0.003417  0  -0.009319  -0.018638  0  3.965746  0
C  C34  1  0.73996182  0.82093558  0.28999125  1  0.037309  0  -0.065281  -0.100522  0  3.891863  0
C  C35  1  0.65471585  0.79793930  0.33445027  1  0.013038  0  -0.002469  -0.006324  0  3.958538  0
C  C36  1  0.57394884  0.86041833  0.30634634  1  -0.079739  0  -0.065999  -0.096426  0  3.917217  0
C  C37  1  0.58048547  0.94424949  0.23057415  1  -0.15948  0  -0.013609  -0.082304  0  3.995811  0
C  C38  1  0.66571666  0.96658548  0.18219852  1  -0.014542  0  -0.070189  -0.104041  0  3.93176  0
C  C39  1  0.64739404  0.70283535  0.40655408  1  1.5851  0  0.241604  0.629616  0  4.131665  0
C  C40  1  0.93667654  0.15499590  0.85499127  1  1.560685  0  0.23041  0.608364  0  4.153811  0
C  C41  1  0.91057674  0.21518282  0.76287107  1  -0.042114  0  -0.003083  -0.006766  0  3.961333  0
C  C42  1  0.82184310  0.28129800  0.76478512  1  0.050935  0  -0.063229  -0.101833  0  3.887745  0
C  C43  1  0.79879011  0.33726692  0.67794224  1  -0.063714  0  -0.003028  -0.006646  0  3.965918  0
C  C44  1  0.86494165  0.33057094  0.58935410  1  0.018265  0  -0.072564  -0.112408  0  3.937019  0
C  C45  1  0.95260238  0.26372388  0.58923979  1  -0.186675  0  -0.014069  -0.080873  0  4.008499  0
C  C46  1  0.97581269  0.20410068  0.67500113  1  0.043345  0  -0.068145  -0.100571  0  3.921447  0
C  C47  1  0.70170674  0.40029493  0.67431091  1  1.574445  0  0.2409  0.630301  0  4.133505  0
C  C48  1  0.15489250  0.82652107  0.95027677  1  1.526247  0  0.230125  0.608159  0  4.155637  0
C  C49  1  0.20456444  0.73262057  0.92920574  1  -0.004497  0  -0.008805  -0.015722  0  3.972411  0
C  C50  1  0.27849845  0.72668026  0.84508530  1  0.034084  0  -0.063654  -0.10185  0  3.890704  0
C  C51  1  0.31925012  0.64032804  0.82185689  1  -0.048774  0  -0.002009  -0.006258  0  3.961328  0
C  C52  1  0.29128013  0.55873244  0.88518776  1  0.055818  0  -0.066287  -0.096902  0  3.919008  0
C  C53  1  0.22092969  0.56498706  0.97130926  1  -0.14764  0  -0.014427  -0.083362  0  4.000577  0
C  C54  1  0.17482172  0.65186143  0.99269222  1  -0.055282  0  -0.071875  -0.107357  0  3.94189  0
C  C55  1  0.38639125  0.63408299  0.72489438  1  1.576968  0  0.243242  0.633751  0  4.1288  0
C  C56  1  0.88055162  0.15913638  0.19904800  1  1.625486  0  0.241988  0.626028  0  4.144832  0
C  C57  1  0.78449770  0.20946450  0.25041024  1  0.012988  0  0.006986  0.009107  0  3.942574  0
C  C58  1  0.76751355  0.24402850  0.32647575  1  -0.010921  0  -0.053851  -0.091718  0  3.85748  0
C  C59  1  0.67507349  0.28838037  0.37137536  1  0.012647  0  0.001878  -0.000296  0  3.942503  0
C  C60  1  0.60005626  0.29660505  0.34178265  1  0.005295  0  -0.073477  -0.101069  0  3.940991  0
C  C61  1  0.61944436  0.26513698  0.26285043  1  -0.176919  0  -0.013274  -0.086634  0  4.016691  0
C  C62  1  0.71068281  0.22244516  0.21599852  1  -0.009999  0  -0.065965  -0.107449  0  3.928541  0
C  C63  1  0.65406494  0.33894050  0.44348954  1  1.585677  0  0.23365  0.613177  0  4.145672  0
C  C64  1  0.17789453  0.83767765  0.19846334  1  1.603502  0  0.237635  0.614095  0  4.156577  0
C  C65  1  0.23371971  0.74170756  0.24719860  1  -0.025289  0  0.002508  -0.001096  0  3.946525  0
C  C66  1  0.31279880  0.73079399  0.27181651  1  0.080562  0  -0.049344  -0.082848  0  3.84351  0
C  C67  1  0.36328345  0.63912782  0.31592041  1  0.026778  0  0.001622  -0.002375  0  3.938867  0
C  C68  1  0.33782233  0.55872274  0.33093743  1  -0.012263  0  -0.068471  -0.090053  0  3.925156  0
C  C69  1  0.25738471  0.57188583  0.30745942  1  -0.205606  0  -0.015202  -0.09515  0  4.01618  0
C  C70  1  0.20349226  0.66246068  0.26770903  1  0.011338  0  -0.063745  -0.099485  0  3.924534  0
C  C71  1  0.43650921  0.62451345  0.36114958  1  1.558204  0  0.232656  0.610008  0  4.145921  0
C  C72  1  0.18950828  0.15828882  0.87828827  1  1.606426  0  0.241615  0.622272  0  4.14325  0
C  C73  1  0.24400588  0.20586494  0.78036179  1  -0.034347  0  0.003436  0.000529  0  3.945196  0
C  C74  1  0.27292433  0.28503252  0.76203180  1  0.033175  0  -0.052054  -0.087732  0  3.853918  0
C  C75  1  0.32443143  0.32467258  0.66843793  1  0.000722  0  0.000373  -0.003757  0  3.941836  0
C  C76  1  0.34413363  0.28762622  0.59329844  1  0.060078  0  -0.070484  -0.092251  0  3.935474  0
C  C77  1  0.31582826  0.20739113  0.61390412  1  -0.209719  0  -0.01428  -0.092055  0  4.010732  0
C  C78  1  0.26742222  0.16487981  0.70678925  1  0.015129  0  -0.06328  -0.10028  0  3.922385  0
C  C79  1  0.36832775  0.40066432  0.64792296  1  1.555267  0  0.233291  0.612557  0  4.146003  0
S  S80  1  0.47705703  0.02052590  0.19320193  1  3.106977  0  0.536498  1.155163  0  6.034247  0
S  S81  1  0.03630832  0.25447428  0.47657216  1  3.08786  0  0.540448  1.162955  0  6.010669  0
S  S82  1  0.18610959  0.46038410  0.05217839  1  3.111111  0  0.536207  1.157875  0  6.033607  0
S  S83  1  0.52842050  0.27663569  0.21921380  1  3.088205  0  0.566458  1.198379  0  5.939226  0
S  S84  1  0.22284688  0.47209237  0.32582593  1  3.078798  0  0.573218  1.209487  0  5.920849  0
S  S85  1  0.33831013  0.15836837  0.52101349  1  3.100014  0  0.565303  1.192858  0  5.917172  0
O  O86  1  0.03890223  0.01955239  0.05061205  1  -1.223822  0  -0.57711  -1.050067  0  2.544605  0
O  O87  1  0.89240629  0.90250375  0.21678479  1  -1.158845  0  -0.314914  -0.553886  0  2.301519  0
O  O88  1  0.85488539  0.96963257  0.07356304  1  -1.160471  0  -0.313413  -0.538153  0  2.290217  0
O  O89  1  0.50392571  0.09177897  0.10435765  1  -1.297878  0  -0.319323  -0.53324  0  2.106216  0
O  O90  1  0.42464377  0.96075887  0.20194470  1  -1.291931  0  -0.322458  -0.531705  0  2.095555  0
O  O91  1  0.41740348  0.06946460  0.27822502  1  -1.212108  0  -0.363793  -0.526111  0  2.171923  0
O  O92  1  0.67248696  0.63524364  0.36921391  1  -1.154358  0  -0.315227  -0.547996  0  2.295774  0
O  O93  1  0.61472566  0.69801270  0.49579790  1  -1.159972  0  -0.301365  -0.525885  0  2.274157  0
O  O94  1  0.91861788  0.19689909  0.91729625  1  -1.166472  0  -0.31407  -0.553714  0  2.281963  0
O  O95  1  0.97611983  0.06587200  0.86332446  1  -1.151942  0  -0.312431  -0.534759  0  2.280508  0
O  O96  1  0.10409098  0.16275294  0.49289254  1  -1.28597  0  -0.302505  -0.503144  0  2.114849  0
O  O97  1  0.98725028  0.28896915  0.40401160  1  -1.298626  0  -0.320626  -0.5406  0  2.096587  0
O  O98  1  0.08873860  0.33104796  0.45677716  1  -1.207551  0  -0.370148  -0.559214  0  2.234143  0
O  O99  1  0.64060419  0.35632521  0.69840188  1  -1.158277  0  -0.317023  -0.549429  0  2.286946  0
O  O100  1  0.68946181  0.49020888  0.64388664  1  -1.144776  0  -0.302341  -0.528619  0  2.281094  0
O  O101  1  0.20486714  0.88042968  0.93195792  1  -1.167685  0  -0.315459  -0.552689  0  2.296188  0
O  O102  1  0.06563286  0.84509734  0.98509894  1  -1.141307  0  -0.312398  -0.536919  0  2.292348  0
O  O103  1  0.10621617  0.48770985  0.12915423  1  -1.303446  0  -0.321669  -0.541053  0  2.116612  0
O  O104  1  0.18451453  0.40936761  0.99523791  1  -1.288036  0  -0.318979  -0.526183  0  2.092195  0
O  O105  1  0.27484078  0.39738824  0.09388121  1  -1.226014  0  -0.367025  -0.531818  0  2.168939  0
O  O106  1  0.34784958  0.63563443  0.66647616  1  -1.157828  0  -0.310441  -0.540654  0  2.315587  0
O  O107  1  0.47219638  0.62636616  0.70976087  1  -1.155379  0  -0.302288  -0.530455  0  2.276574  0
O  O108  1  0.91310522  0.20650258  0.11286643  1  -1.165648  0  -0.30312  -0.525022  0  2.300573  0
O  O109  1  0.91692078  0.07378981  0.24436599  1  -1.166615  0  -0.308011  -0.540237  0  2.285481  0
O  O110  1  0.56321493  0.27715563  0.12008598  1  -1.26742  0  -0.289045  -0.492734  0  2.092557  0
O  O111  1  0.48088929  0.20219615  0.28672242  1  -1.313562  0  -0.30939  -0.587505  0  2.282592  0
O  O112  1  0.46225843  0.37541181  0.23392199  1  -1.284274  0  -0.349742  -0.543535  0  2.268622  0
O  O113  1  0.59695340  0.31532375  0.52625611  1  -1.157871  0  -0.304651  -0.535742  0  2.260726  0
O  O114  1  0.69263584  0.40599297  0.41330695  1  -1.172566  0  -0.31493  -0.546824  0  2.266241  0
O  O115  1  0.08976778  0.85892119  0.23871521  1  -1.161823  0  -0.304334  -0.529308  0  2.308165  0
O  O116  1  0.22300876  0.88661989  0.12075347  1  -1.166231  0  -0.303682  -0.530477  0  2.294057  0
O  O117  1  0.12481973  0.50130651  0.33063470  1  -1.269517  0  -0.288042  -0.513288  0  2.138019  0
O  O118  1  0.28668258  0.42536555  0.24912728  1  -1.310454  0  -0.308012  -0.577387  0  2.248209  0
O  O119  1  0.24556377  0.40678903  0.42202832  1  -1.27788  0  -0.337817  -0.542114  0  2.304151  0
O  O120  1  0.51759242  0.56712837  0.33864873  1  -1.152051  0  -0.30138  -0.526815  0  2.246282  0
O  O121  1  0.40859979  0.66786680  0.42517481  1  -1.158931  0  -0.319555  -0.553539  0  2.255975  0
O  O122  1  0.22972701  0.07040522  0.91245336  1  -1.16448  0  -0.304716  -0.527334  0  2.320022  0
O  O123  1  0.10867579  0.20758993  0.91532352  1  -1.163962  0  -0.302903  -0.533068  0  2.287045  0
O  O124  1  0.31658287  0.06893246  0.56233502  1  -1.268261  0  -0.286508  -0.486766  0  2.094759  0
O  O125  1  0.29149963  0.23180853  0.44763242  1  -1.294451  0  -0.310816  -0.549835  0  2.276172  0
O  O126  1  0.44697104  0.14489775  0.47455927  1  -1.258985  0  -0.356357  -0.535353  0  2.19588  0
O  O127  1  0.34934944  0.47870978  0.58178163  1  -1.157076  0  -0.305447  -0.533795  0  2.254721  0
O  O128  1  0.42559299  0.37907293  0.69655062  1  -1.159992  0  -0.315505  -0.549523  0  2.264295  0
O  O129  1  0.53871179  0.52223260  0.54790618  1  -1.232043  0  -0.580383  -1.052221  0  2.547723  0
