# generated using pymatgen
data_H4Pb(C2O3)2
_symmetry_space_group_name_H-M   'P 1'
_cell_length_a   10.12617669
_cell_length_b   12.28565003
_cell_length_c   12.30755657
_cell_angle_alpha   80.21778556
_cell_angle_beta   65.68470094
_cell_angle_gamma   65.57942498
_symmetry_Int_Tables_number   1
_chemical_formula_structural   H4Pb(C2O3)2
_chemical_formula_sum   'H32 Pb8 C32 O48'
_cell_volume   1270.48756860
_cell_formula_units_Z   8
loop_
 _symmetry_equiv_pos_site_id
 _symmetry_equiv_pos_as_xyz
  1  'x, y, z'
loop_
 _atom_site_type_symbol
 _atom_site_label
 _atom_site_symmetry_multiplicity
 _atom_site_fract_x
 _atom_site_fract_y
 _atom_site_fract_z
 _atom_site_occupancy
 _atom_site_pbe_bader_spin_density
 _atom_site_pbe_cm5_charge
 _atom_site_pbe_ddec_charge
 _atom_site_pbe_ddec_spin_density
 _atom_site_pbe_ddec_sum_bond_order
 _atom_site_pbe_magmom
H  H0  1  0.27395246  0.12615011  0.91633762  1  0  0.297619  0.345043  0  1.005782  0
H  H1  1  0.31648624  0.37374827  0.58353013  1  0  0.296957  0.345539  0  1.005921  0
H  H2  1  0.40014725  0.91631950  0.37377364  1  0  0.29883  0.346672  0  1.002629  0
H  H3  1  0.69022094  0.58361789  0.12627634  1  0  0.297678  0.346304  0  1.002959  0
H  H4  1  0.22605979  0.58373280  0.37375524  1  0  0.297239  0.344897  0  1.006254  0
H  H5  1  0.18350347  0.91641459  0.12632513  1  0  0.296785  0.345408  0  1.006224  0
H  H6  1  0.10000176  0.12617873  0.58353260  1  0  0.29885  0.346617  0  1.002364  0
H  H7  1  0.80966598  0.37386299  0.91635587  1  0  0.297855  0.346621  0  1.002719  0
H  H8  1  0.72605189  0.87384857  0.08365789  1  0  0.297603  0.345055  0  1.005808  0
H  H9  1  0.68351313  0.62624775  0.41646984  1  0  0.296918  0.345518  0  1.005938  0
H  H10  1  0.59985187  0.08367421  0.62622277  1  0  0.29883  0.346698  0  1.002605  0
H  H11  1  0.30978122  0.41638361  0.87372005  1  0  0.297695  0.346365  0  1.002865  0
H  H12  1  0.77394206  0.41627224  0.62624115  1  0  0.297238  0.344869  0  1.00633  0
H  H13  1  0.81649632  0.08358343  0.87367217  1  0  0.29678  0.345414  0  1.006257  0
H  H14  1  0.90000736  0.87381819  0.41646559  1  0  0.298858  0.346642  0  1.002341  0
H  H15  1  0.19033684  0.62613614  0.08363964  1  0  0.29782  0.346592  0  1.002751  0
H  H16  1  0.04592278  0.14872145  0.07847711  1  0  0.115462  0.080459  0  0.992042  0
H  H17  1  0.27320485  0.35119031  0.42151370  1  0  0.115771  0.081206  0  0.990796  0
H  H18  1  0.19440616  0.07880631  0.35100952  1  0  0.115376  0.080435  0  0.991033  0
H  H19  1  0.62455750  0.42116494  0.14894329  1  0  0.11529  0.080116  0  0.991682  0
H  H20  1  0.45458463  0.42124415  0.35094962  1  0  0.115435  0.080361  0  0.992318  0
H  H21  1  0.22647126  0.07879407  0.14908995  1  0  0.115795  0.081146  0  0.990867  0
H  H22  1  0.30541418  0.14871269  0.42145883  1  0  0.115526  0.080815  0  0.990631  0
H  H23  1  0.87540732  0.35143465  0.07850340  1  0  0.11535  0.080192  0  0.991959  0
H  H24  1  0.95408451  0.85127759  0.92151394  1  0  0.115415  0.080382  0  0.992057  0
H  H25  1  0.72679547  0.64880846  0.57848538  1  0  0.115774  0.081195  0  0.990785  0
H  H26  1  0.80559168  0.92119688  0.64898777  1  0  0.115376  0.080446  0  0.991072  0
H  H27  1  0.37543882  0.57883864  0.85105845  1  0  0.115298  0.080127  0  0.991621  0
H  H28  1  0.54541472  0.57876054  0.64905033  1  0  0.115465  0.080419  0  0.992329  0
H  H29  1  0.77353032  0.92119721  0.85090647  1  0  0.115749  0.081103  0  0.990851  0
H  H30  1  0.69457980  0.85128348  0.57854292  1  0  0.115552  0.080875  0  0.990625  0
H  H31  1  0.12459321  0.64856847  0.92149299  1  0  0.115343  0.080189  0  0.992023  0
Pb  Pb32  1  0.25871309  0.98261524  0.74999102  1  0  0.679306  1.201309  0  1.795404  0
Pb  Pb33  1  0.99124409  0.51733941  0.75005738  1  0  0.679431  1.201737  0  1.794617  0
Pb  Pb34  1  0.24135694  0.75005244  0.51730520  1  0  0.67821  1.199595  0  1.797267  0
Pb  Pb35  1  0.50865342  0.74996828  0.98275243  1  0  0.678462  1.200137  0  1.796183  0
Pb  Pb36  1  0.74125184  0.01736049  0.25001880  1  0  0.679293  1.201313  0  1.795476  0
Pb  Pb37  1  0.00878094  0.48266323  0.24994526  1  0  0.679435  1.201783  0  1.794632  0
Pb  Pb38  1  0.75858365  0.25000346  0.48274191  1  0  0.678169  1.199536  0  1.797476  0
Pb  Pb39  1  0.49136158  0.25004333  0.01728050  1  0  0.678527  1.200227  0  1.795948  0
C  C40  1  0.91584539  0.14274411  0.98150703  1  0  0.219782  0.582923  0  4.158504  0
C  C41  1  0.04000667  0.35737280  0.51855652  1  0  0.220299  0.583872  0  4.15371  0
C  C42  1  0.05857323  0.98152254  0.35717092  1  0  0.220634  0.58499  0  4.150812  0
C  C43  1  0.39736241  0.51859866  0.14283597  1  0  0.221459  0.586015  0  4.150261  0
C  C44  1  0.58428101  0.51847076  0.35710577  1  0  0.219834  0.582711  0  4.158593  0
C  C45  1  0.45981674  0.98143859  0.14283145  1  0  0.221552  0.5848  0  4.152206  0
C  C46  1  0.44154489  0.14256986  0.51851683  1  0  0.219922  0.584382  0  4.1514  0
C  C47  1  0.10261099  0.35727546  0.98142633  1  0  0.221815  0.587128  0  4.148722  0
C  C48  1  0.08415988  0.85725257  0.01848848  1  0  0.219725  0.582905  0  4.158954  0
C  C49  1  0.95999505  0.64262869  0.48144077  1  0  0.220351  0.583894  0  4.153463  0
C  C50  1  0.94142495  0.01847511  0.64282816  1  0  0.220658  0.585075  0  4.150524  0
C  C51  1  0.60263614  0.48140491  0.85716131  1  0  0.221421  0.585989  0  4.150315  0
C  C52  1  0.41571299  0.48153208  0.64289776  1  0  0.219915  0.582835  0  4.158619  0
C  C53  1  0.54017931  0.01855788  0.85717209  1  0  0.221575  0.584834  0  4.152063  0
C  C54  1  0.55846338  0.85743173  0.48148669  1  0  0.21986  0.584189  0  4.151071  0
C  C55  1  0.89737104  0.64273129  0.01857808  1  0  0.221903  0.587398  0  4.149082  0
C  C56  1  0.03562687  0.18124293  0.99194896  1  0  -0.00377  0.038666  0  3.890819  0
C  C57  1  0.20884687  0.31876032  0.50804750  1  0  -0.003054  0.039336  0  3.886926  0
C  C58  1  0.21690409  0.99197753  0.31866234  1  0  -0.001499  0.041682  0  3.883154  0
C  C59  1  0.52765537  0.50801028  0.18136311  1  0  -0.000867  0.041816  0  3.883207  0
C  C60  1  0.46449892  0.50803921  0.31859594  1  0  -0.003688  0.038524  0  3.891591  0
C  C61  1  0.29101497  0.99197142  0.18141819  1  0  -0.003126  0.039468  0  3.886931  0
C  C62  1  0.28316551  0.18114741  0.50800996  1  0  -0.001418  0.041369  0  3.882711  0
C  C63  1  0.97227140  0.31883621  0.99195210  1  0  -0.001035  0.041333  0  3.882587  0
C  C64  1  0.96437990  0.81875536  0.00804031  1  0  -0.003753  0.038783  0  3.890638  0
C  C65  1  0.79115390  0.68123844  0.49195068  1  0  -0.003037  0.039397  0  3.886559  0
C  C66  1  0.78309341  0.00802448  0.68133584  1  0  -0.001502  0.041595  0  3.883275  0
C  C67  1  0.47234266  0.49199248  0.81863685  1  0  -0.000864  0.041848  0  3.883125  0
C  C68  1  0.53549376  0.49196843  0.68140490  1  0  -0.003647  0.03853  0  3.891643  0
C  C69  1  0.70898261  0.00802461  0.81858534  1  0  -0.003174  0.03943  0  3.886692  0
C  C70  1  0.71683734  0.81884972  0.49198733  1  0  -0.001453  0.041355  0  3.882818  0
C  C71  1  0.02772688  0.68116032  0.00804252  1  0  -0.001069  0.041147  0  3.882769  0
O  O72  1  0.18218165  0.13411976  0.89586280  1  0  -0.372469  -0.498246  0  2.435599  0
O  O73  1  0.21227361  0.36572297  0.60408666  1  0  -0.372328  -0.499875  0  2.435462  0
O  O74  1  0.31660590  0.89571722  0.36557918  1  0  -0.37422  -0.500164  0  2.430588  0
O  O75  1  0.57786232  0.60424091  0.13441417  1  0  -0.374683  -0.501018  0  2.431645  0
O  O76  1  0.31780462  0.60433965  0.36557274  1  0  -0.371864  -0.497737  0  2.434496  0
O  O77  1  0.28771491  0.89575703  0.13446623  1  0  -0.371818  -0.499438  0  2.435494  0
O  O78  1  0.18370441  0.13418320  0.60403349  1  0  -0.374408  -0.500343  0  2.43145  0
O  O79  1  0.92190740  0.36591117  0.89588204  1  0  -0.374948  -0.501878  0  2.431918  0
O  O80  1  0.81782447  0.86588091  0.10412735  1  0  -0.372462  -0.498373  0  2.435692  0
O  O81  1  0.78773074  0.63426898  0.39591154  1  0  -0.372329  -0.499916  0  2.435265  0
O  O82  1  0.68339273  0.10428043  0.63441901  1  0  -0.37421  -0.500111  0  2.430629  0
O  O83  1  0.42213987  0.39575859  0.86558401  1  0  -0.374738  -0.501147  0  2.431471  0
O  O84  1  0.68219035  0.39567072  0.63442453  1  0  -0.371827  -0.497632  0  2.434791  0
O  O85  1  0.71228391  0.10424018  0.86553463  1  0  -0.371843  -0.499506  0  2.435575  0
O  O86  1  0.81630701  0.86580972  0.39596381  1  0  -0.374385  -0.500387  0  2.431491  0
O  O87  1  0.07809143  0.63408417  0.10411169  1  0  -0.374942  -0.501826  0  2.432012  0
O  O88  1  0.96112992  0.07746984  0.89241623  1  0  -0.286902  -0.53126  0  2.281655  0
O  O89  1  0.93067898  0.42269571  0.60765695  1  0  -0.286857  -0.531466  0  2.279289  0
O  O90  1  0.03853028  0.89245031  0.42257004  1  0  -0.289274  -0.533763  0  2.279856  0
O  O91  1  0.35353019  0.60764914  0.07736457  1  0  -0.288717  -0.533385  0  2.278202  0
O  O92  1  0.53885275  0.60756372  0.42254566  1  0  -0.287118  -0.531281  0  2.281645  0
O  O93  1  0.56919212  0.89232371  0.07735336  1  0  -0.287799  -0.532516  0  2.279218  0
O  O94  1  0.46166379  0.07732314  0.60759492  1  0  -0.288714  -0.533108  0  2.279965  0
O  O95  1  0.14645556  0.42258076  0.89239994  1  0  -0.288954  -0.534081  0  2.277618  0
O  O96  1  0.03887192  0.92252181  0.10758108  1  0  -0.286882  -0.531265  0  2.281736  0
O  O97  1  0.06932254  0.57729271  0.39234749  1  0  -0.286833  -0.531484  0  2.279372  0
O  O98  1  0.96147076  0.10754877  0.57743349  1  0  -0.289241  -0.533759  0  2.279766  0
O  O99  1  0.64646312  0.39235139  0.92263628  1  0  -0.288744  -0.533406  0  2.27812  0
O  O100  1  0.46114789  0.39243816  0.57745520  1  0  -0.287161  -0.531325  0  2.281853  0
O  O101  1  0.43080986  0.10767144  0.92264750  1  0  -0.287824  -0.532472  0  2.27905  0
O  O102  1  0.53834180  0.92267672  0.39239791  1  0  -0.288703  -0.533023  0  2.279632  0
O  O103  1  0.85353742  0.57743199  0.10760089  1  0  -0.28894  -0.534097  0  2.277957  0
O  O104  1  0.77847237  0.17986909  0.06087921  1  0  -0.309039  -0.618614  0  2.232779  0
O  O105  1  0.01928217  0.32019543  0.43924756  1  0  -0.310649  -0.619486  0  2.230097  0
O  O106  1  0.95831156  0.06088774  0.31990621  1  0  -0.309181  -0.619543  0  2.228657  0
O  O107  1  0.33939817  0.43924075  0.18006753  1  0  -0.309465  -0.619317  0  2.230133  0
O  O108  1  0.72184574  0.43903981  0.31988086  1  0  -0.308905  -0.618147  0  2.232146  0
O  O109  1  0.48049333  0.06083836  0.18004595  1  0  -0.31091  -0.619362  0  2.229482  0
O  O110  1  0.54162336  0.17976880  0.43926680  1  0  -0.309255  -0.619776  0  2.229175  0
O  O111  1  0.16060609  0.32008404  0.06073807  1  0  -0.309626  -0.619879  0  2.23016  0
O  O112  1  0.22153176  0.82012523  0.93911898  1  0  -0.309032  -0.61861  0  2.232947  0
O  O113  1  0.98072841  0.67980702  0.56074527  1  0  -0.310682  -0.619476  0  2.230025  0
O  O114  1  0.04169320  0.93910801  0.68010089  1  0  -0.309197  -0.619684  0  2.228677  0
O  O115  1  0.66060222  0.56075882  0.81992976  1  0  -0.30943  -0.619286  0  2.230193  0
O  O116  1  0.27815026  0.56095386  0.68012625  1  0  -0.3089  -0.618177  0  2.232261  0
O  O117  1  0.51950809  0.93916482  0.81994420  1  0  -0.31092  -0.619384  0  2.229341  0
O  O118  1  0.45837236  0.82023316  0.56073940  1  0  -0.309135  -0.619597  0  2.229002  0
O  O119  1  0.83941117  0.67991539  0.93925833  1  0  -0.309652  -0.619948  0  2.230459  0
