# generated using pymatgen
data_Na2Zn3H16C8(SO10)2
_symmetry_space_group_name_H-M   'P 1'
_cell_length_a   6.19120084
_cell_length_b   11.01372473
_cell_length_c   15.08900000
_cell_angle_alpha   94.69703946
_cell_angle_beta   90.00000000
_cell_angle_gamma   90.00000000
_symmetry_Int_Tables_number   1
_chemical_formula_structural   Na2Zn3H16C8(SO10)2
_chemical_formula_sum   'Na4 Zn6 H32 C16 S4 O40'
_cell_volume   1025.43606565
_cell_formula_units_Z   2
loop_
 _symmetry_equiv_pos_site_id
 _symmetry_equiv_pos_as_xyz
  1  'x, y, z'
loop_
 _atom_site_type_symbol
 _atom_site_label
 _atom_site_symmetry_multiplicity
 _atom_site_fract_x
 _atom_site_fract_y
 _atom_site_fract_z
 _atom_site_occupancy
 _atom_site_hle17_bader_spin_density
 _atom_site_hle17_ddec_charge
 _atom_site_hle17_ddec_spin_density
 _atom_site_hle17_ddec_sum_bond_order
 _atom_site_hle17_magmom
 _atom_site_hse06_10hf_bader_spin_density
 _atom_site_hse06_10hf_ddec_charge
 _atom_site_hse06_10hf_ddec_spin_density
 _atom_site_hse06_10hf_ddec_sum_bond_order
 _atom_site_hse06_10hf_magmom
 _atom_site_hse06_bader_spin_density
 _atom_site_hse06_ddec_charge
 _atom_site_hse06_ddec_spin_density
 _atom_site_hse06_ddec_sum_bond_order
 _atom_site_hse06_magmom
 _atom_site_pbe_bader_charge
 _atom_site_pbe_bader_spin_density
 _atom_site_pbe_cm5_charge
 _atom_site_pbe_ddec_charge
 _atom_site_pbe_ddec_spin_density
 _atom_site_pbe_ddec_sum_bond_order
 _atom_site_pbe_magmom
Na  Na0  1  0.72837728  0.48785448  0.31237966  1  0  0.911784  0  0.374581  0  0  0.878206  0  0.51828  0  0  0.8857  0  0.498887  0  0.889338  0  0.668059  0.872565  0  0.532258  0
Na  Na1  1  0.22837573  0.01214386  0.18762027  1  0  0.911778  0  0.374577  0  0  0.878185  0  0.518286  0  0  0.885686  0  0.498899  0  0.889347  0  0.66805  0.872547  0  0.532274  0
Na  Na2  1  0.27162420  0.51214585  0.68762043  1  0  0.911779  0  0.374588  0  0  0.878203  0  0.518286  0  0  0.885697  0  0.498892  0  0.889342  0  0.668049  0.872559  0  0.532265  0
Na  Na3  1  0.77162575  0.98785646  0.81237981  1  0  0.911772  0  0.374576  0  0  0.878171  0  0.518304  0  0  0.885682  0  0.498908  0  0.889354  0  0.668048  0.872536  0  0.532295  0
Zn  Zn4  1  0.99999663  0.49999834  0.99999927  1  0  1.202353  0  1.793639  0  0  1.048666  0  2.246279  0  0  1.092042  0  2.188637  0  1.412077  0  0.701416  1.018072  0  2.286068  0
Zn  Zn5  1  0.49999993  0.00000091  0.50000138  1  0  1.202402  0  1.793727  0  0  1.048678  0  2.246381  0  0  1.092063  0  2.188732  0  1.41203  0  0.701398  1.01809  0  2.286171  0
Zn  Zn6  1  0.47679926  0.29453108  0.79768321  1  0  1.194051  0  1.723292  0  0  1.024546  0  2.194202  0  0  1.074185  0  2.128807  0  1.300258  0  0.672804  0.989358  0  2.239603  0
Zn  Zn7  1  0.97679920  0.20546909  0.70231617  1  0  1.194015  0  1.72328  0  0  1.024499  0  2.194199  0  0  1.074141  0  2.128805  0  1.300282  0  0.672795  0.98931  0  2.239601  0
Zn  Zn8  1  0.52320060  0.70546743  0.20231743  1  0  1.194071  0  1.723221  0  0  1.024541  0  2.194133  0  0  1.074179  0  2.12874  0  1.300266  0  0.67282  0.989355  0  2.239531  0
Zn  Zn9  1  0.02320228  0.79453215  0.29768397  1  0  1.194024  0  1.723273  0  0  1.024491  0  2.19419  0  0  1.074131  0  2.1288  0  1.30027  0  0.672806  0.989304  0  2.239588  0
H  H10  1  0.89836530  0.64020030  0.18536845  1  0  0.41482  0  0.89164  0  0  0.385766  0  0.954466  0  0  0.395388  0  0.940424  0  0.644665  0  0.285055  0.378896  0  0.964484  0
H  H11  1  0.39836860  0.85980018  0.31463301  1  0  0.414847  0  0.891583  0  0  0.385792  0  0.954407  0  0  0.395413  0  0.940365  0  0.644548  0  0.285067  0.378921  0  0.964424  0
H  H12  1  0.10163779  0.35980002  0.81462965  1  0  0.414864  0  0.891589  0  0  0.38581  0  0.954415  0  0  0.395433  0  0.940371  0  0.644699  0  0.285068  0.378939  0  0.964435  0
H  H13  1  0.60163611  0.14020014  0.68536708  1  0  0.414888  0  0.891545  0  0  0.385818  0  0.954383  0  0  0.395447  0  0.940337  0  0.644567  0  0.285064  0.378942  0  0.964402  0
H  H14  1  0.08156737  0.57295901  0.41307978  1  0  0.417485  0  0.879034  0  0  0.389216  0  0.938976  0  0  0.398879  0  0.924586  0  0.63532  0  0.295224  0.382373  0  0.949183  0
H  H15  1  0.58156731  0.92704239  0.08691907  1  0  0.417511  0  0.878998  0  0  0.38922  0  0.938975  0  0  0.398885  0  0.924582  0  0.635332  0  0.295221  0.382378  0  0.949181  0
H  H16  1  0.91843572  0.42704405  0.58691914  1  0  0.417443  0  0.879085  0  0  0.389175  0  0.939027  0  0  0.398836  0  0.92464  0  0.63536  0  0.295199  0.382332  0  0.949233  0
H  H17  1  0.41843740  0.07295793  0.91307969  1  0  0.417529  0  0.878978  0  0  0.389239  0  0.938954  0  0  0.398902  0  0.924562  0  0.635356  0  0.295224  0.382397  0  0.94916  0
H  H18  1  0.21631506  0.45851789  0.37745037  1  0  0.427077  0  0.850723  0  0  0.403679  0  0.906283  0  0  0.411813  0  0.894363  0  0.607336  0  0.30482  0.397911  0  0.914747  0
H  H19  1  0.71631338  0.04148410  0.12254912  1  0  0.427092  0  0.850727  0  0  0.403706  0  0.906242  0  0  0.411841  0  0.894321  0  0.607342  0  0.304843  0.397939  0  0.914702  0
H  H20  1  0.78368803  0.54148335  0.62254977  1  0  0.427083  0  0.850731  0  0  0.403689  0  0.906269  0  0  0.411823  0  0.89435  0  0.607348  0  0.304837  0.39792  0  0.914733  0
H  H21  1  0.28368810  0.95851805  0.87745041  1  0  0.427134  0  0.850663  0  0  0.403743  0  0.906193  0  0  0.411878  0  0.894272  0  0.607354  0  0.304853  0.397976  0  0.914654  0
H  H22  1  0.53624977  0.61706410  0.48597776  1  0  0.42025  0  0.864702  0  0  0.396822  0  0.921339  0  0  0.40537  0  0.908627  0  0.627272  0  0.299361  0.390745  0  0.930373  0
H  H23  1  0.03624983  0.88293638  0.01401972  1  0  0.420246  0  0.864824  0  0  0.39683  0  0.921368  0  0  0.405375  0  0.908657  0  0.627497  0  0.299357  0.390753  0  0.930402  0
H  H24  1  0.46375171  0.38293622  0.51402233  1  0  0.42028  0  0.864723  0  0  0.396873  0  0.921293  0  0  0.405417  0  0.908583  0  0.627262  0  0.29938  0.390796  0  0.930328  0
H  H25  1  0.96375326  0.11706121  0.98598020  1  0  0.420227  0  0.864943  0  0  0.39681  0  0.921417  0  0  0.405356  0  0.908706  0  0.627502  0  0.299345  0.390733  0  0.930452  0
H  H26  1  0.70129529  0.68746481  0.43516611  1  0  0.427744  0  0.856078  0  0  0.398461  0  0.924669  0  0  0.407805  0  0.910817  0  0.621431  0  0.295253  0.39183  0  0.934517  0
H  H27  1  0.20129859  0.81253750  0.06483214  1  0  0.427764  0  0.856064  0  0  0.39846  0  0.924681  0  0  0.407804  0  0.910829  0  0.62142  0  0.29527  0.391828  0  0.934533  0
H  H28  1  0.29870619  0.31253643  0.56483403  1  0  0.427708  0  0.855984  0  0  0.398429  0  0.924683  0  0  0.407773  0  0.910831  0  0.621435  0  0.295239  0.391798  0  0.934531  0
H  H29  1  0.79870774  0.18746191  0.93516789  1  0  0.427753  0  0.855962  0  0  0.39845  0  0.924674  0  0  0.407793  0  0.910822  0  0.621451  0  0.295254  0.391818  0  0.934526  0
H  H30  1  0.30984781  0.31481215  0.21011022  1  0  0.148737  0  0.9416  0  0  0.154239  0  1.000885  0  0  0.158613  0  0.998535  0  0.168713  0  0.129764  0.15116  0  1.002575  0
H  H31  1  0.80984774  0.18518710  0.28988911  1  0  0.148749  0  0.941571  0  0  0.154252  0  1.000868  0  0  0.158623  0  0.998517  0  0.168985  0  0.129773  0.151172  0  1.002557  0
H  H32  1  0.69014883  0.68518908  0.78988992  1  0  0.148772  0  0.941522  0  0  0.15425  0  1.000861  0  0  0.158624  0  0.99851  0  0.168992  0  0.12976  0.151171  0  1.002551  0
H  H33  1  0.19015051  0.81481140  0.71011220  1  0  0.148797  0  0.941493  0  0  0.154276  0  1.000836  0  0  0.158648  0  0.998485  0  0.168962  0  0.129787  0.151196  0  1.002524  0
H  H34  1  0.57385313  0.32958977  0.09257013  1  0  0.147288  0  0.950909  0  0  0.159023  0  1.010296  0  0  0.16234  0  1.008849  0  0.14948  0  0.118992  0.156767  0  1.011201  0
H  H35  1  0.07385643  0.17040948  0.40742919  1  0  0.14729  0  0.950872  0  0  0.159036  0  1.010245  0  0  0.162359  0  1.008798  0  0.149452  0  0.119001  0.156778  0  1.011157  0
H  H36  1  0.42614350  0.67041056  0.90742995  1  0  0.14728  0  0.950892  0  0  0.159024  0  1.010261  0  0  0.162341  0  1.008818  0  0.149453  0  0.118996  0.156766  0  1.01117  0
H  H37  1  0.92614182  0.82959357  0.59257039  1  0  0.147297  0  0.950879  0  0  0.159065  0  1.010215  0  0  0.162391  0  1.008773  0  0.14942  0  0.119004  0.156801  0  1.011143  0
H  H38  1  0.42164357  0.19595351  0.07933572  1  0  0.132188  0  0.942766  0  0  0.143618  0  1.006078  0  0  0.147155  0  1.003728  0  0.124191  0  0.113523  0.141055  0  1.007915  0
H  H39  1  0.92164350  0.30404483  0.42066421  1  0  0.132186  0  0.942769  0  0  0.143615  0  1.006081  0  0  0.147152  0  1.003731  0  0.124222  0  0.113548  0.141052  0  1.007919  0
H  H40  1  0.57835468  0.80404499  0.92066624  1  0  0.132135  0  0.942851  0  0  0.143569  0  1.006146  0  0  0.147103  0  1.003795  0  0.124212  0  0.113498  0.141007  0  1.007983  0
H  H41  1  0.07835152  0.69595731  0.57933532  1  0  0.132192  0  0.942799  0  0  0.143629  0  1.006097  0  0  0.147165  0  1.003747  0  0.124247  0  0.113522  0.141068  0  1.00793  0
C  C42  1  0.27243503  0.48966285  0.16099659  1  0  0.732136  0  3.79104  0  0  0.677614  0  4.090823  0  0  0.71264  0  4.082596  0  1.621031  0  0.234034  0.653687  0  4.095917  0
C  C43  1  0.77243658  0.01033641  0.33900207  1  0  0.732223  0  3.791075  0  0  0.67756  0  4.091032  0  0  0.712584  0  4.082804  0  1.621019  0  0.233974  0.653632  0  4.096125  0
C  C44  1  0.72755999  0.51033748  0.83900415  1  0  0.732009  0  3.791186  0  0  0.677571  0  4.090856  0  0  0.7126  0  4.082626  0  1.620996  0  0.234058  0.65364  0  4.095953  0
C  C45  1  0.22755359  0.98966392  0.66099934  1  0  0.732222  0  3.7912  0  0  0.67768  0  4.091015  0  0  0.712707  0  4.08278  0  1.621004  0  0.234065  0.653753  0  4.096112  0
C  C46  1  0.25871556  0.35066434  0.14758549  1  0  -0.302116  0  3.622095  0  0  -0.301825  0  3.862729  0  0  -0.31107  0  3.870547  0  -0.169913  0  -0.081745  -0.295551  0  3.857217  0
C  C47  1  0.75871388  0.14933583  0.35241322  1  0  -0.30223  0  3.622025  0  0  -0.301943  0  3.862738  0  0  -0.311181  0  3.870549  0  -0.170224  0  -0.081789  -0.295666  0  3.857224  0
C  C48  1  0.74128430  0.64933508  0.85241388  1  0  -0.302146  0  3.622148  0  0  -0.301864  0  3.862738  0  0  -0.311112  0  3.870551  0  -0.170221  0  -0.081755  -0.29559  0  3.857228  0
C  C49  1  0.24128437  0.85066541  0.64758692  1  0  -0.302244  0  3.62212  0  0  -0.301977  0  3.862811  0  0  -0.311221  0  3.870628  0  -0.170178  0  -0.08181  -0.295701  0  3.857295  0
C  C50  1  0.41127078  0.29489639  0.07572347  1  0  -0.276314  0  3.652961  0  0  -0.319769  0  3.899227  0  0  -0.325497  0  3.905618  0  -0.089136  0  -0.163392  -0.31577  0  3.894634  0
C  C51  1  0.91127233  0.20510103  0.42427575  1  0  -0.276278  0  3.652941  0  0  -0.319746  0  3.899145  0  0  -0.325476  0  3.905533  0  -0.089104  0  -0.163447  -0.315745  0  3.894547  0
C  C52  1  0.58872747  0.70510211  0.92427584  1  0  -0.276257  0  3.65298  0  0  -0.319683  0  3.899179  0  0  -0.325399  0  3.905554  0  -0.089123  0  -0.163377  -0.315684  0  3.894584  0
C  C53  1  0.08872592  0.79490020  0.57572439  1  0  -0.276341  0  3.653033  0  0  -0.319792  0  3.899243  0  0  -0.325526  0  3.905636  0  -0.089097  0  -0.16341  -0.315791  0  3.894645  0
C  C54  1  0.38295963  0.32123482  0.97992018  1  0  0.743171  0  3.774265  0  0  0.686895  0  4.076906  0  0  0.721791  0  4.069223  0  1.559129  0  0.22536  0.663096  0  4.081351  0
C  C55  1  0.88296280  0.17876443  0.52007915  1  0  0.743082  0  3.774461  0  0  0.686868  0  4.077007  0  0  0.721766  0  4.069317  0  1.559172  0  0.225411  0.663067  0  4.081452  0
C  C56  1  0.61704023  0.67876459  0.02008051  1  0  0.743193  0  3.774207  0  0  0.686877  0  4.076892  0  0  0.721766  0  4.06921  0  1.559168  0  0.225386  0.663079  0  4.081336  0
C  C57  1  0.11703868  0.82123772  0.47992039  1  0  0.743134  0  3.774251  0  0  0.686835  0  4.076935  0  0  0.721731  0  4.069248  0  1.559141  0  0.225358  0.663036  0  4.081378  0
S  S58  1  0.98728182  0.29314633  0.13354849  1  0  1.352325  0  5.536168  0  0  1.254422  0  6.055424  0  0  1.299888  0  6.034325  0  3.152309  0  0.526047  1.223179  0  6.068923  0
S  S59  1  0.48728350  0.20685383  0.36645089  1  0  1.352374  0  5.53597  0  0  1.254505  0  6.05521  0  0  1.299975  0  6.034105  0  3.152312  0  0.526074  1.223263  0  6.068709  0
S  S60  1  0.01271482  0.70685308  0.86645221  1  0  1.352281  0  5.536288  0  0  1.254388  0  6.05552  0  0  1.299844  0  6.034419  0  3.152301  0  0.52601  1.223145  0  6.069021  0
S  S61  1  0.51271637  0.79314740  0.63354925  1  0  1.352436  0  5.536171  0  0  1.254582  0  6.055388  0  0  1.300045  0  6.03428  0  3.152268  0  0.526099  1.223339  0  6.068888  0
O  O62  1  0.14555658  0.55805020  0.12167837  1  0  -0.648958  0  2.06936  0  0  -0.581413  0  2.32845  0  0  -0.607484  0  2.313608  0  -1.197769  0  -0.300334  -0.563279  0  2.338194  0
O  O63  1  0.64555812  0.94194755  0.37832027  1  0  -0.649083  0  2.069361  0  0  -0.581408  0  2.328428  0  0  -0.607476  0  2.313583  0  -1.197704  0  -0.300317  -0.563277  0  2.338176  0
O  O64  1  0.85444006  0.44194830  0.87831962  1  0  -0.648853  0  2.069258  0  0  -0.581363  0  2.328336  0  0  -0.607447  0  2.313503  0  -1.197693  0  -0.300323  -0.563218  0  2.338075  0
O  O65  1  0.35444013  0.05805460  0.62167926  1  0  -0.649062  0  2.069189  0  0  -0.581449  0  2.328231  0  0  -0.607525  0  2.313394  0  -1.197671  0  -0.30032  -0.563316  0  2.337975  0
O  O66  1  0.42379178  0.53048737  0.21241808  1  0  -0.666218  0  2.038405  0  0  -0.60406  0  2.321021  0  0  -0.631326  0  2.303361  0  -1.181333  0  -0.338545  -0.585028  0  2.33258  0
O  O67  1  0.92379009  0.96951221  0.28758133  1  0  -0.666142  0  2.03861  0  0  -0.603951  0  2.321292  0  0  -0.631218  0  2.303633  0  -1.181339  0  -0.338462  -0.58493  0  2.332881  0
O  O68  1  0.57620647  0.46951296  0.78758068  1  0  -0.666134  0  2.038515  0  0  -0.604041  0  2.321136  0  0  -0.631306  0  2.303471  0  -1.181345  0  -0.338541  -0.585008  0  2.332697  0
O  O69  1  0.07620654  0.03048447  0.71241523  1  0  -0.666151  0  2.038823  0  0  -0.604024  0  2.321479  0  0  -0.631289  0  2.303817  0  -1.181394  0  -0.338547  -0.584995  0  2.333044  0
O  O70  1  0.28262530  0.41207512  0.95505287  1  0  -0.641428  0  2.061567  0  0  -0.573583  0  2.321132  0  0  -0.601101  0  2.30913  0  -1.190695  0  -0.305512  -0.554408  0  2.328792  0
O  O71  1  0.78262846  0.08791866  0.54494679  1  0  -0.641435  0  2.06155  0  0  -0.573603  0  2.32107  0  0  -0.601124  0  2.30907  0  -1.190765  0  -0.30556  -0.554427  0  2.328727  0
O  O72  1  0.71736649  0.58791791  0.04494546  1  0  -0.641505  0  2.061555  0  0  -0.573649  0  2.321139  0  0  -0.601171  0  2.309145  0  -1.190779  0  -0.305567  -0.554472  0  2.328797  0
O  O73  1  0.21737463  0.91208348  0.45505539  1  0  -0.641451  0  2.061533  0  0  -0.57361  0  2.321133  0  0  -0.601133  0  2.309133  0  -1.190809  0  -0.305505  -0.554431  0  2.328786  0
O  O74  1  0.48427762  0.24666257  0.92371266  1  0  -0.685783  0  2.07214  0  0  -0.595802  0  2.328658  0  0  -0.627055  0  2.31285  0  -1.176845  0  -0.306055  -0.573971  0  2.339043  0
O  O75  1  0.98427109  0.25333577  0.57628529  1  0  -0.685712  0  2.072378  0  0  -0.595779  0  2.328903  0  0  -0.627033  0  2.313097  0  -1.176876  0  -0.306068  -0.573948  0  2.339288  0
O  O76  1  0.51572709  0.75333502  0.07628859  1  0  -0.685782  0  2.072231  0  0  -0.595784  0  2.328752  0  0  -0.627035  0  2.312945  0  -1.176824  0  -0.306058  -0.573954  0  2.339137  0
O  O77  1  0.01572716  0.74666546  0.42371419  1  0  -0.685711  0  2.072222  0  0  -0.595743  0  2.328769  0  0  -0.626999  0  2.312967  0  -1.176784  0  -0.306069  -0.573913  0  2.339152  0
O  O78  1  0.89998050  0.33926477  0.05106478  1  0  -0.703114  0  2.114121  0  0  -0.630753  0  2.390435  0  0  -0.654673  0  2.37464  0  -1.329528  0  -0.332469  -0.614318  0  2.400888  0
O  O79  1  0.39998218  0.16073448  0.44893720  1  0  -0.703103  0  2.113875  0  0  -0.630756  0  2.390189  0  0  -0.654708  0  2.374443  0  -1.329548  0  -0.332484  -0.614325  0  2.400649  0
O  O80  1  0.10001775  0.66073282  0.94893514  1  0  -0.703101  0  2.114097  0  0  -0.630739  0  2.390383  0  0  -0.654653  0  2.374607  0  -1.32957  0  -0.332468  -0.614305  0  2.400838  0
O  O81  1  0.60001607  0.83926676  0.55106361  1  0  -0.703162  0  2.11403  0  0  -0.630834  0  2.390364  0  0  -0.654758  0  2.374587  0  -1.329576  0  -0.332506  -0.6144  0  2.400822  0
O  O82  1  0.86691260  0.33739172  0.21288801  1  0  -0.689392  0  1.95679  0  0  -0.644345  0  2.217176  0  0  -0.663498  0  2.202253  0  -1.357287  0  -0.394765  -0.63091  0  2.226841  0
O  O83  1  0.36691267  0.16260753  0.28711463  1  0  -0.689356  0  1.956811  0  0  -0.644331  0  2.2172  0  0  -0.663485  0  2.20228  0  -1.357276  0  -0.394722  -0.630896  0  2.226866  0
O  O84  1  0.13308404  0.66260860  0.78711340  1  0  -0.689358  0  1.956841  0  0  -0.644295  0  2.217217  0  0  -0.663447  0  2.202298  0  -1.357235  0  -0.394706  -0.630859  0  2.22688  0
O  O85  1  0.63308720  0.83739462  0.71288557  1  0  -0.689369  0  1.956785  0  0  -0.644339  0  2.217175  0  0  -0.663497  0  2.20226  0  -1.357246  0  -0.394741  -0.630906  0  2.226845  0
O  O86  1  0.00539152  0.15919668  0.12230210  1  0  -0.716141  0  1.937745  0  0  -0.661625  0  2.186986  0  0  -0.681313  0  2.1713  0  -1.341081  0  -0.379159  -0.647738  0  2.197358  0
O  O87  1  0.50539146  0.34080348  0.37769794  1  0  -0.716181  0  1.93772  0  0  -0.661658  0  2.186926  0  0  -0.681339  0  2.171232  0  -1.34108  0  -0.379187  -0.647768  0  2.197294  0
O  O88  1  0.99461157  0.84080091  0.87769981  1  0  -0.716124  0  1.937766  0  0  -0.661638  0  2.187077  0  0  -0.681323  0  2.171393  0  -1.341051  0  -0.379169  -0.647751  0  2.197451  0
O  O89  1  0.49460679  0.65919866  0.62230159  1  0  -0.71619  0  1.937762  0  0  -0.661686  0  2.187005  0  0  -0.681365  0  2.171312  0  -1.341036  0  -0.379206  -0.647796  0  2.197374  0
O  O90  1  0.82444426  0.67763402  0.23832562  1  0  -1.01469  0  1.838179  0  0  -0.917822  0  2.139756  0  0  -0.949016  0  2.096517  0  -1.261097  0  -0.610972  -0.895834  0  2.169592  0
O  O91  1  0.32444433  0.82236556  0.26167711  1  0  -1.014708  0  1.838164  0  0  -0.91783  0  2.139745  0  0  -0.949027  0  2.096507  0  -1.260989  0  -0.610976  -0.895842  0  2.169594  0
O  O92  1  0.17556045  0.32236449  0.76167370  1  0  -1.014731  0  1.838201  0  0  -0.917851  0  2.13977  0  0  -0.949044  0  2.096525  0  -1.261117  0  -0.610953  -0.895864  0  2.169607  0
O  O93  1  0.67555715  0.17763659  0.73832375  1  0  -1.014751  0  1.838136  0  0  -0.917862  0  2.139778  0  0  -0.949074  0  2.096507  0  -1.260999  0  -0.610971  -0.895867  0  2.169652  0
O  O94  1  0.06924343  0.48935765  0.38561683  1  0  -0.86205  0  1.770957  0  0  -0.822881  0  1.927588  0  0  -0.837922  0  1.898158  0  -1.252772  0  -0.642576  -0.81226  0  1.948354  0
O  O95  1  0.56924175  0.01064251  0.11438321  1  0  -0.862081  0  1.770922  0  0  -0.822899  0  1.927546  0  0  -0.837947  0  1.898114  0  -1.252781  0  -0.642595  -0.81228  0  1.948314  0
O  O96  1  0.93075805  0.51064540  0.61438275  1  0  -0.862004  0  1.771003  0  0  -0.822833  0  1.927611  0  0  -0.837874  0  1.89818  0  -1.252836  0  -0.642563  -0.812213  0  1.948379  0
O  O97  1  0.43075973  0.98935782  0.88561687  1  0  -0.862142  0  1.770845  0  0  -0.822953  0  1.927467  0  0  -0.838  0  1.898036  0  -1.252833  0  -0.642608  -0.812335  0  1.948236  0
O  O98  1  0.59308850  0.62261949  0.42597711  1  0  -0.864042  0  1.739418  0  0  -0.822927  0  1.899317  0  0  -0.837591  0  1.870126  0  -1.259045  0  -0.663474  -0.812553  0  1.919924  0
O  O99  1  0.09308856  0.87738191  0.07402042  1  0  -0.864069  0  1.739508  0  0  -0.822963  0  1.899272  0  0  -0.837622  0  1.8701  0  -1.259269  0  -0.663497  -0.812589  0  1.919882  0
O  O100  1  0.40691460  0.37738175  0.57402236  1  0  -0.864033  0  1.73934  0  0  -0.822964  0  1.899247  0  0  -0.837618  0  1.870069  0  -1.259052  0  -0.663477  -0.81259  0  1.919854  0
O  O101  1  0.90691615  0.12261659  0.92598022  1  0  -0.864044  0  1.739525  0  0  -0.822928  0  1.899304  0  0  -0.83759  0  1.87013  0  -1.259318  0  -0.66347  -0.812556  0  1.919914  0
