# generated using pymatgen
data_CdH15C17NO6
_symmetry_space_group_name_H-M   'P 1'
_cell_length_a   7.70164179
_cell_length_b   10.26322130
_cell_length_c   11.53700475
_cell_angle_alpha   63.62209888
_cell_angle_beta   82.36986191
_cell_angle_gamma   72.54794050
_symmetry_Int_Tables_number   1
_chemical_formula_structural   CdH15C17NO6
_chemical_formula_sum   'Cd2 H30 C34 N2 O12'
_cell_volume   779.37291815
_cell_formula_units_Z   2
loop_
 _symmetry_equiv_pos_site_id
 _symmetry_equiv_pos_as_xyz
  1  'x, y, z'
loop_
 _atom_site_type_symbol
 _atom_site_label
 _atom_site_symmetry_multiplicity
 _atom_site_fract_x
 _atom_site_fract_y
 _atom_site_fract_z
 _atom_site_occupancy
 _atom_site_hle17_bader_spin_density
 _atom_site_hle17_ddec_charge
 _atom_site_hle17_ddec_spin_density
 _atom_site_hle17_ddec_sum_bond_order
 _atom_site_hle17_magmom
 _atom_site_hse06_10hf_bader_spin_density
 _atom_site_hse06_10hf_ddec_charge
 _atom_site_hse06_10hf_ddec_spin_density
 _atom_site_hse06_10hf_ddec_sum_bond_order
 _atom_site_hse06_10hf_magmom
 _atom_site_hse06_bader_spin_density
 _atom_site_hse06_ddec_charge
 _atom_site_hse06_ddec_spin_density
 _atom_site_hse06_ddec_sum_bond_order
 _atom_site_hse06_magmom
 _atom_site_pbe_bader_spin_density
 _atom_site_pbe_cm5_charge
 _atom_site_pbe_ddec_charge
 _atom_site_pbe_ddec_spin_density
 _atom_site_pbe_ddec_sum_bond_order
 _atom_site_pbe_magmom
Cd  Cd0  1  0.24978680  0.14401742  0.71223661  1  0  1.110436  0  1.663278  0  0  0.918042  0  2.098161  0  0  0.979216  0  2.046153  0  0  0.77412  0.87093  0  2.135453  0
Cd  Cd1  1  0.75021547  0.85597936  0.28776155  1  0  1.110448  0  1.663321  0  0  0.918066  0  2.098212  0  0  0.979241  0  2.046203  0  0  0.774121  0.870954  0  2.135505  0
H  H2  1  0.32147032  0.04735383  0.48343329  1  0  0.090614  0  0.964062  0  0  0.098911  0  1.029207  0  0  0.10166  0  1.026579  0  0  0.116876  0.097117  0  1.030747  0
H  H3  1  0.17860833  0.46822793  0.48422025  1  0  0.090237  0  0.966036  0  0  0.098776  0  1.031024  0  0  0.101559  0  1.02835  0  0  0.116616  0.096809  0  1.032914  0
H  H4  1  0.67852968  0.95264261  0.51656864  1  0  0.090641  0  0.964058  0  0  0.098935  0  1.029194  0  0  0.101685  0  1.026565  0  0  0.116897  0.097141  0  1.030734  0
H  H5  1  0.82139164  0.53177024  0.51577994  1  0  0.090193  0  0.966045  0  0  0.098734  0  1.031033  0  0  0.101517  0  1.028357  0  0  0.116606  0.096765  0  1.032921  0
H  H6  1  0.33469068  0.15659194  0.24375948  1  0  0.11065  0  0.976072  0  0  0.115937  0  1.044755  0  0  0.11989  0  1.042727  0  0  0.106926  0.113416  0  1.045797  0
H  H7  1  0.16565457  0.59937158  0.24448385  1  0  0.109773  0  0.975921  0  0  0.114978  0  1.045006  0  0  0.118931  0  1.042981  0  0  0.106478  0.112478  0  1.046045  0
H  H8  1  0.66530700  0.84340490  0.75624097  1  0  0.110648  0  0.976005  0  0  0.115944  0  1.044697  0  0  0.119898  0  1.042669  0  0  0.106942  0.113424  0  1.045738  0
H  H9  1  0.83434672  0.40062647  0.75551643  1  0  0.10975  0  0.975962  0  0  0.114964  0  1.045039  0  0  0.118916  0  1.043017  0  0  0.106469  0.112466  0  1.046074  0
H  H10  1  0.21901042  0.26865407  0.05730835  1  0  0.099256  0  0.960544  0  0  0.108331  0  1.027443  0  0  0.111908  0  1.024258  0  0  0.104995  0.10569  0  1.02992  0
H  H11  1  0.28072395  0.67439319  0.05768426  1  0  0.099179  0  0.959367  0  0  0.10867  0  1.0259  0  0  0.11225  0  1.022683  0  0  0.105121  0.106012  0  1.028315  0
H  H12  1  0.78099117  0.73134500  0.94268979  1  0  0.099251  0  0.96051  0  0  0.108363  0  1.027373  0  0  0.111943  0  1.024184  0  0  0.104993  0.10572  0  1.029856  0
H  H13  1  0.71927835  0.32560371  0.94231828  1  0  0.099198  0  0.959365  0  0  0.108681  0  1.025905  0  0  0.112261  0  1.02269  0  0  0.105132  0.106023  0  1.028321  0
H  H14  1  0.24938211  0.65039949  0.70032780  1  0  0.105056  0  0.956203  0  0  0.11388  0  1.022289  0  0  0.11791  0  1.018579  0  0  0.104601  0.110943  0  1.025141  0
H  H15  1  0.75061981  0.34960073  0.29967255  1  0  0.105059  0  0.956183  0  0  0.113878  0  1.022278  0  0  0.117911  0  1.018561  0  0  0.104596  0.110942  0  1.025129  0
H  H16  1  0.90973403  0.06992260  0.59147019  1  0  0.073448  0  0.918232  0  0  0.08568  0  0.983216  0  0  0.087024  0  0.981788  0  0  0.103557  0.084307  0  0.984856  0
H  H17  1  0.59003322  0.33807099  0.59165085  1  0  0.07413  0  0.917477  0  0  0.085995  0  0.983103  0  0  0.087326  0  0.981708  0  0  0.103822  0.084668  0  0.984722  0
H  H18  1  0.09026356  0.93008044  0.40852855  1  0  0.073498  0  0.91833  0  0  0.085704  0  0.983339  0  0  0.087049  0  0.981912  0  0  0.10359  0.084331  0  0.984982  0
H  H19  1  0.40996600  0.66193395  0.40834933  1  0  0.074153  0  0.917504  0  0  0.086029  0  0.983116  0  0  0.087359  0  0.981719  0  0  0.103839  0.084702  0  0.984735  0
H  H20  1  0.90242054  0.26619380  0.51183961  1  0  0.081159  0  0.929521  0  0  0.094967  0  0.991217  0  0  0.094957  0  0.991837  0  0  0.110877  0.094583  0  0.99132  0
H  H21  1  0.59695560  0.22164516  0.51181824  1  0  0.081657  0  0.929305  0  0  0.095741  0  0.990958  0  0  0.09578  0  0.991529  0  0  0.111181  0.095361  0  0.991091  0
H  H22  1  0.09758034  0.73381030  0.48816026  1  0  0.081148  0  0.929579  0  0  0.094968  0  0.991267  0  0  0.094958  0  0.991885  0  0  0.11089  0.094598  0  0.991353  0
H  H23  1  0.40304227  0.77836164  0.48818011  1  0  0.081609  0  0.929341  0  0  0.095688  0  0.991022  0  0  0.095725  0  0.991593  0  0  0.111159  0.095308  0  0.991155  0
H  H24  1  0.90390194  0.06786428  0.90805108  1  0  0.091866  0  0.91086  0  0  0.106742  0  0.97058  0  0  0.107373  0  0.969957  0  0  0.116844  0.10595  0  0.971719  0
H  H25  1  0.59626168  0.02376294  0.90804218  1  0  0.091949  0  0.911259  0  0  0.107229  0  0.970645  0  0  0.107855  0  0.969993  0  0  0.116981  0.106427  0  0.971761  0
H  H26  1  0.09609639  0.93213386  0.09195030  1  0  0.09188  0  0.910881  0  0  0.106748  0  0.970586  0  0  0.107374  0  0.969962  0  0  0.116838  0.105956  0  0.971725  0
H  H27  1  0.40373461  0.97623936  0.09195734  1  0  0.091981  0  0.911322  0  0  0.107252  0  0.970717  0  0  0.107877  0  0.970065  0  0  0.117005  0.106453  0  0.971829  0
H  H28  1  0.90850375  0.95170345  0.82822698  1  0  0.063956  0  0.927534  0  0  0.076049  0  0.995309  0  0  0.076821  0  0.994364  0  0  0.10215  0.075218  0  0.996332  0
H  H29  1  0.59147093  0.21970196  0.82828300  1  0  0.064121  0  0.926871  0  0  0.076209  0  0.994922  0  0  0.076979  0  0.993955  0  0  0.102218  0.075464  0  0.995793  0
H  H30  1  0.09149317  0.04829916  0.17176997  1  0  0.064032  0  0.927473  0  0  0.076088  0  0.995267  0  0  0.076856  0  0.99432  0  0  0.102178  0.075258  0  0.996291  0
H  H31  1  0.40852965  0.78029925  0.17171638  1  0  0.064142  0  0.926842  0  0  0.076222  0  0.99491  0  0  0.076989  0  0.993945  0  0  0.102228  0.075478  0  0.995781  0
C  C32  1  0.29106047  0.16901461  0.42511476  1  0  0.123508  0  3.710728  0  0  0.091541  0  3.962131  0  0  0.099883  0  3.979774  0  0  0.041418  0.086359  0  3.949175  0
C  C33  1  0.20911370  0.40522701  0.42553223  1  0  0.123956  0  3.714048  0  0  0.092025  0  3.965049  0  0  0.100324  0  3.982772  0  0  0.041645  0.086764  0  3.952677  0
C  C34  1  0.70893984  0.83098199  0.57488588  1  0  0.123436  0  3.710615  0  0  0.091513  0  3.962031  0  0  0.099854  0  3.979673  0  0  0.041356  0.086331  0  3.949075  0
C  C35  1  0.79088759  0.59477104  0.57446806  1  0  0.124066  0  3.714091  0  0  0.092153  0  3.965097  0  0  0.100453  0  3.982817  0  0  0.041678  0.086892  0  3.952726  0
C  C36  1  0.29403718  0.23218402  0.29110850  1  0  -0.154334  0  3.693722  0  0  -0.171147  0  3.940499  0  0  -0.179608  0  3.960976  0  0  -0.082302  -0.165626  0  3.926319  0
C  C37  1  0.20622072  0.47646141  0.29156386  1  0  -0.153258  0  3.692548  0  0  -0.170249  0  3.939524  0  0  -0.178709  0  3.960005  0  0  -0.082311  -0.165009  0  3.925693  0
C  C38  1  0.70595883  0.76781453  0.70889141  1  0  -0.154241  0  3.693508  0  0  -0.17109  0  3.940339  0  0  -0.179551  0  3.960818  0  0  -0.082258  -0.165569  0  3.926159  0
C  C39  1  0.79377894  0.52353574  0.70843849  1  0  -0.153276  0  3.692542  0  0  -0.170265  0  3.939538  0  0  -0.178726  0  3.960019  0  0  -0.082298  -0.165023  0  3.925707  0
C  C40  1  0.24997722  0.39001249  0.22019824  1  0  0.115368  0  3.748911  0  0  0.127324  0  3.972857  0  0  0.132967  0  3.996377  0  0  0.018763  0.123626  0  3.956838  0
C  C41  1  0.75002144  0.60998494  0.77980273  1  0  0.115403  0  3.74882  0  0  0.127329  0  3.972847  0  0  0.132969  0  3.996367  0  0  0.018727  0.123631  0  3.956828  0
C  C42  1  0.24964559  0.46147102  0.07771141  1  0  0.026104  0  3.785215  0  0  0.043896  0  4.021298  0  0  0.038881  0  4.046099  0  0  -0.008919  0.047062  0  4.004093  0
C  C43  1  0.75035537  0.53852688  0.92229016  1  0  0.026033  0  3.785402  0  0  0.043855  0  4.021472  0  0  0.038844  0  4.046274  0  0  -0.008925  0.047023  0  4.004268  0
C  C44  1  0.23467316  0.38274659  0.00816079  1  0  -0.069982  0  3.662088  0  0  -0.10546  0  3.910107  0  0  -0.102435  0  3.928207  0  0  -0.068602  -0.10713  0  3.897947  0
C  C45  1  0.26483017  0.60962148  0.00837176  1  0  -0.069583  0  3.661266  0  0  -0.105376  0  3.909469  0  0  -0.102352  0  3.927572  0  0  -0.068042  -0.106447  0  3.896572  0
C  C46  1  0.76532977  0.61725149  0.99183831  1  0  -0.069965  0  3.662207  0  0  -0.105483  0  3.910226  0  0  -0.102461  0  3.928328  0  0  -0.068616  -0.107154  0  3.898066  0
C  C47  1  0.73517079  0.39037642  0.99162981  1  0  -0.069638  0  3.661401  0  0  -0.105425  0  3.909598  0  0  -0.102394  0  3.927685  0  0  -0.068054  -0.106497  0  3.896704  0
C  C48  1  0.23623809  0.44934333  0.87302172  1  0  -0.067312  0  3.77447  0  0  -0.040625  0  4.008447  0  0  -0.051084  0  4.032594  0  0  -0.019585  -0.033944  0  3.992701  0
C  C49  1  0.26315179  0.67827611  0.87325730  1  0  -0.066686  0  3.773781  0  0  -0.040044  0  4.007936  0  0  -0.050485  0  4.032048  0  0  -0.019421  -0.033575  0  3.99221  0
C  C50  1  0.76376383  0.55065689  0.12697863  1  0  -0.06745  0  3.774684  0  0  -0.040757  0  4.008694  0  0  -0.051217  0  4.032843  0  0  -0.019638  -0.034073  0  3.992951  0
C  C51  1  0.73684717  0.32172420  0.12674414  1  0  -0.066543  0  3.7738  0  0  -0.039913  0  4.007934  0  0  -0.050354  0  4.032051  0  0  -0.01937  -0.033444  0  3.99221  0
C  C52  1  0.24950718  0.59768416  0.80555079  1  0  -0.053521  0  3.68115  0  0  -0.090267  0  3.924514  0  0  -0.086432  0  3.942773  0  0  -0.071989  -0.092919  0  3.913348  0
C  C53  1  0.75049342  0.40231619  0.19444946  1  0  -0.053543  0  3.68119  0  0  -0.090285  0  3.924557  0  0  -0.086449  0  3.942818  0  0  -0.071988  -0.092938  0  3.913392  0
C  C54  1  0.22680143  0.36046471  0.80143767  1  0  0.618414  0  3.966479  0  0  0.571499  0  4.255445  0  0  0.605446  0  4.25121  0  0  0.186679  0.548428  0  4.257168  0
C  C55  1  0.27270861  0.83863014  0.80175491  1  0  0.618294  0  3.968349  0  0  0.571239  0  4.257429  0  0  0.605174  0  4.253224  0  0  0.186456  0.548191  0  4.259158  0
C  C56  1  0.77320372  0.63953818  0.19855769  1  0  0.618559  0  3.966399  0  0  0.571613  0  4.255391  0  0  0.605562  0  4.251151  0  0  0.186767  0.548541  0  4.257118  0
C  C57  1  0.72729070  0.16136860  0.19824698  1  0  0.618356  0  3.968412  0  0  0.57132  0  4.257461  0  0  0.605257  0  4.253255  0  0  0.186458  0.548273  0  4.259194  0
C  C58  1  0.85249930  0.18022741  0.59508466  1  0  0.04401  0  3.622662  0  0  -0.017214  0  3.893454  0  0  -0.010443  0  3.898427  0  0  -0.078239  -0.021752  0  3.890459  0
C  C59  1  0.64716983  0.22422716  0.59509646  1  0  0.042013  0  3.622572  0  0  -0.020339  0  3.895265  0  0  -0.013599  0  3.90022  0  0  -0.079432  -0.025012  0  3.892379  0
C  C60  1  0.14749895  0.81977693  0.40491501  1  0  0.044009  0  3.622735  0  0  -0.017221  0  3.893551  0  0  -0.010454  0  3.898523  0  0  -0.07828  -0.02177  0  3.890563  0
C  C61  1  0.35283008  0.77577548  0.40490376  1  0  0.042085  0  3.622492  0  0  -0.020287  0  3.895213  0  0  -0.013536  0  3.900152  0  0  -0.079413  -0.024961  0  3.892333  0
C  C62  1  0.85282390  0.06568479  0.82482259  1  0  0.049806  0  3.609497  0  0  -0.012745  0  3.882208  0  0  -0.005404  0  3.886083  0  0  -0.074555  -0.017908  0  3.88031  0
C  C63  1  0.64716099  0.10915283  0.82482128  1  0  0.04974  0  3.609531  0  0  -0.013232  0  3.882394  0  0  -0.005852  0  3.886265  0  0  -0.074505  -0.018243  0  3.880186  0
C  C64  1  0.14717273  0.93431680  0.17517650  1  0  0.049657  0  3.609611  0  0  -0.012817  0  3.882231  0  0  -0.005458  0  3.886078  0  0  -0.074582  -0.017983  0  3.880338  0
C  C65  1  0.35283694  0.89084950  0.17517705  1  0  0.049722  0  3.609496  0  0  -0.013274  0  3.882385  0  0  -0.005894  0  3.886253  0  0  -0.074535  -0.018288  0  3.880187  0
N  N66  1  0.25021605  0.25364563  0.49207315  1  0  -0.358153  0  3.314863  0  0  -0.272749  0  3.578216  0  0  -0.295369  0  3.597832  0  0  -0.341795  -0.256673  0  3.5632  0
N  N67  1  0.74978496  0.74634867  0.50792752  1  0  -0.358203  0  3.314958  0  0  -0.272849  0  3.578355  0  0  -0.29547  0  3.597969  0  0  -0.341797  -0.256774  0  3.563342  0
O  O68  1  0.19343475  0.23138556  0.86790784  1  0  -0.64252  0  1.942843  0  0  -0.574976  0  2.183335  0  0  -0.605054  0  2.175078  0  0  -0.339901  -0.552663  0  2.189282  0
O  O69  1  0.30618257  0.90118996  0.86829651  1  0  -0.642842  0  1.945875  0  0  -0.574919  0  2.185727  0  0  -0.604971  0  2.177524  0  0  -0.339747  -0.552649  0  2.191443  0
O  O70  1  0.80656908  0.76861559  0.13208480  1  0  -0.64258  0  1.942771  0  0  -0.575039  0  2.183282  0  0  -0.605118  0  2.175022  0  0  -0.339976  -0.552725  0  2.189231  0
O  O71  1  0.69382272  0.09880512  0.13170666  1  0  -0.64293  0  1.945986  0  0  -0.575009  0  2.185842  0  0  -0.605061  0  2.177637  0  0  -0.339779  -0.552738  0  2.19156  0
O  O72  1  0.25705607  0.41250405  0.68078749  1  0  -0.649391  0  1.941871  0  0  -0.598459  0  2.178534  0  0  -0.625169  0  2.171174  0  0  -0.334109  -0.57884  0  2.182638  0
O  O73  1  0.24254696  0.90727389  0.68109085  1  0  -0.649631  0  1.940883  0  0  -0.598715  0  2.177953  0  0  -0.625453  0  2.170667  0  0  -0.334556  -0.57895  0  2.181488  0
O  O74  1  0.74295065  0.58750519  0.31920935  1  0  -0.649429  0  1.941828  0  0  -0.598482  0  2.178512  0  0  -0.625194  0  2.171152  0  0  -0.334109  -0.578859  0  2.182615  0
O  O75  1  0.75745235  0.09272485  0.31891104  1  0  -0.649631  0  1.9409  0  0  -0.598722  0  2.177954  0  0  -0.625459  0  2.170663  0  0  -0.334525  -0.578958  0  2.181489  0
O  O76  1  0.91899014  0.17339623  0.70985878  1  0  -0.336205  0  2.281088  0  0  -0.248988  0  2.534229  0  0  -0.269263  0  2.535561  0  0  -0.230232  -0.234754  0  2.532924  0
O  O77  1  0.58078242  0.11635685  0.70985240  1  0  -0.335271  0  2.280722  0  0  -0.248137  0  2.534508  0  0  -0.268418  0  2.535866  0  0  -0.230086  -0.233696  0  2.532908  0
O  O78  1  0.08100613  0.82660880  0.29014250  1  0  -0.336223  0  2.281172  0  0  -0.248978  0  2.534259  0  0  -0.269257  0  2.535584  0  0  -0.230238  -0.234744  0  2.532966  0
O  O79  1  0.41921447  0.88364936  0.29014544  1  0  -0.335319  0  2.280582  0  0  -0.248169  0  2.53438  0  0  -0.268461  0  2.535739  0  0  -0.230084  -0.233726  0  2.532783  0
