# generated using pymatgen
data_ZnH17C20(NO2)3
_symmetry_space_group_name_H-M   'P 1'
_cell_length_a   7.00130389
_cell_length_b   9.93872320
_cell_length_c   32.97885057
_cell_angle_alpha   89.99909368
_cell_angle_beta   90.00048050
_cell_angle_gamma   92.16368287
_symmetry_Int_Tables_number   1
_chemical_formula_structural   ZnH17C20(NO2)3
_chemical_formula_sum   'Zn4 H68 C80 N12 O24'
_cell_volume   2293.16496011
_cell_formula_units_Z   4
loop_
 _symmetry_equiv_pos_site_id
 _symmetry_equiv_pos_as_xyz
  1  'x, y, z'
loop_
 _atom_site_type_symbol
 _atom_site_label
 _atom_site_symmetry_multiplicity
 _atom_site_fract_x
 _atom_site_fract_y
 _atom_site_fract_z
 _atom_site_occupancy
 _atom_site_pbe_bader_charge
 _atom_site_pbe_bader_spin_density
 _atom_site_pbe_cm5_charge
 _atom_site_pbe_ddec_charge
 _atom_site_pbe_ddec_spin_density
 _atom_site_pbe_ddec_sum_bond_order
 _atom_site_pbe_magmom
Zn  Zn0  1  0.31340829  0.98672159  0.06183241  1  1.308117  0  0.690081  0.900227  0  2.226985  0
Zn  Zn1  1  0.18659572  0.01328268  0.56183506  1  1.308377  0  0.690073  0.900123  0  2.226926  0
Zn  Zn2  1  0.68659303  0.01328091  0.93816549  1  1.308333  0  0.690089  0.900124  0  2.226955  0
Zn  Zn3  1  0.81342839  0.98671908  0.43816890  1  1.308122  0  0.690116  0.90019  0  2.226893  0
H  H4  1  0.02906205  0.64092068  0.93799389  1  0.085923  0  0.102629  0.098038  0  1.020731  0
H  H5  1  0.47093801  0.35908601  0.43799573  1  0.086073  0  0.102575  0.098021  0  1.020646  0
H  H6  1  0.97092134  0.35907533  0.06200583  1  0.085864  0  0.102642  0.098078  0  1.020638  0
H  H7  1  0.52906213  0.64091855  0.56200671  1  0.085885  0  0.102633  0.098107  0  1.020798  0
H  H8  1  0.37120362  0.05411531  0.21682068  1  0.101196  0  0.114715  0.123845  0  0.990305  0
H  H9  1  0.12876275  0.94587835  0.71681908  1  0.100917  0  0.114706  0.123763  0  0.990332  0
H  H10  1  0.62877195  0.94588701  0.78317782  1  0.101312  0  0.1147  0.123801  0  0.990284  0
H  H11  1  0.87123525  0.05412022  0.28318064  1  0.100889  0  0.114685  0.12375  0  0.990362  0
H  H12  1  0.10463269  0.59500557  0.06616532  1  0.097464  0  0.101951  0.098948  0  1.034329  0
H  H13  1  0.39536019  0.40498774  0.56616740  1  0.097322  0  0.1019  0.098904  0  1.034418  0
H  H14  1  0.89535284  0.40498431  0.93383318  1  0.097289  0  0.101907  0.098939  0  1.034401  0
H  H15  1  0.60464493  0.59502272  0.43383596  1  0.097343  0  0.101906  0.098885  0  1.034465  0
H  H16  1  0.54308536  0.50203468  0.07480148  1  0.05859  0  0.099888  0.098898  0  1.018362  0
H  H17  1  0.95689917  0.49797568  0.57480898  1  0.058409  0  0.099775  0.098776  0  1.018265  0
H  H18  1  0.45690599  0.49796814  0.92519005  1  0.058265  0  0.099768  0.098782  0  1.01835  0
H  H19  1  0.04310073  0.50203898  0.42519619  1  0.058495  0  0.099848  0.098867  0  1.018311  0
H  H20  1  0.35198510  0.29857682  0.96632407  1  0.090814  0  0.10436  0.104603  0  1.034705  0
H  H21  1  0.14802500  0.70143215  0.46632793  1  0.106189  0  0.104327  0.104574  0  1.034633  0
H  H22  1  0.64801776  0.70142663  0.03366958  1  0.10631  0  0.104305  0.104559  0  1.03469  0
H  H23  1  0.85197977  0.29858740  0.53367330  1  0.089728  0  0.104382  0.10463  0  1.034724  0
H  H24  1  0.36951904  0.73303955  0.10351978  1  0.099937  0  0.124593  0.098095  0  0.990212  0
H  H25  1  0.13048303  0.26698187  0.60351930  1  0.099783  0  0.124561  0.098055  0  0.990185  0
H  H26  1  0.63047575  0.26696820  0.89648115  1  0.099879  0  0.124568  0.098064  0  0.990147  0
H  H27  1  0.86952827  0.73302031  0.39648072  1  0.099756  0  0.1246  0.098194  0  0.990218  0
H  H28  1  0.35686910  0.51636863  0.38892562  1  0.077196  0  0.100799  0.101852  0  1.021603  0
H  H29  1  0.14315553  0.48357310  0.88892413  1  0.074862  0  0.100903  0.102056  0  1.021901  0
H  H30  1  0.64316153  0.48359153  0.61107349  1  0.074724  0  0.100844  0.101923  0  1.02204  0
H  H31  1  0.85682632  0.51642195  0.11107498  1  0.074886  0  0.100905  0.102048  0  1.021954  0
H  H32  1  0.36314424  0.75550154  0.41051981  1  0.083662  0  0.102719  0.111217  0  1.014312  0
H  H33  1  0.13687131  0.24445251  0.91051429  1  0.083843  0  0.102748  0.111248  0  1.014239  0
H  H34  1  0.63688021  0.24446689  0.58948294  1  0.083755  0  0.102767  0.111226  0  1.014177  0
H  H35  1  0.86312490  0.75555520  0.08948482  1  0.083951  0  0.102844  0.111359  0  1.014077  0
H  H36  1  0.38031571  0.64380743  0.17329957  1  0.032006  0  0.108068  0.106695  0  1.003221  0
H  H37  1  0.11967201  0.35620085  0.67330077  1  0.031972  0  0.108065  0.106671  0  1.003271  0
H  H38  1  0.61966283  0.35619580  0.82670014  1  0.031981  0  0.108098  0.106759  0  1.003259  0
H  H39  1  0.88032528  0.64380380  0.32670016  1  0.031925  0  0.108063  0.106644  0  1.003273  0
H  H40  1  0.37253248  0.94077192  0.36024655  1  0.14863  0  0.108156  0.132452  0  0.989975  0
H  H41  1  0.12748614  0.05918961  0.86024099  1  0.148156  0  0.108203  0.132574  0  0.990123  0
H  H42  1  0.62748403  0.05920181  0.63975741  1  0.148254  0  0.108213  0.13252  0  0.990212  0
H  H43  1  0.87252016  0.94080667  0.13975872  1  0.148183  0  0.108156  0.132503  0  0.990182  0
H  H44  1  0.36391163  0.12758163  0.14350958  1  0.119546  0  0.120956  0.097472  0  0.999187  0
H  H45  1  0.13607906  0.87243815  0.64350713  1  0.119708  0  0.120997  0.097547  0  0.999297  0
H  H46  1  0.63607795  0.87243033  0.85649014  1  0.119713  0  0.12096  0.097521  0  0.999366  0
H  H47  1  0.86393757  0.12756083  0.35649350  1  0.119513  0  0.121  0.097527  0  0.999325  0
H  H48  1  0.36462641  0.45304727  0.31605090  1  0.056589  0  0.100907  0.114737  0  1.000396  0
H  H49  1  0.13540108  0.54694447  0.81604909  1  0.056824  0  0.10077  0.114539  0  1.000111  0
H  H50  1  0.63541420  0.54694891  0.68394761  1  0.056855  0  0.100821  0.114628  0  1.00003  0
H  H51  1  0.86456357  0.45306224  0.18395214  1  0.056839  0  0.1008  0.114622  0  1.000082  0
H  H52  1  0.37398206  0.58668178  0.23648899  1  0.464958  0  0.333689  0.292933  0  0.913552  0
H  H53  1  0.12601112  0.41331406  0.73649144  1  0.465065  0  0.333662  0.29285  0  0.91355  0
H  H54  1  0.62602187  0.41331861  0.76350982  1  0.464998  0  0.333695  0.292953  0  0.91347  0
H  H55  1  0.87395744  0.58668950  0.26350918  1  0.465089  0  0.333747  0.292945  0  0.913563  0
H  H56  1  0.67785086  0.02123048  0.03867717  1  0.647986  0  0.288714  0.386998  0  0.94987  0
H  H57  1  0.82214270  0.97877232  0.53868062  1  0.647848  0  0.288646  0.386978  0  0.949915  0
H  H58  1  0.32214013  0.97876932  0.96132042  1  0.647812  0  0.288627  0.386971  0  0.949932  0
H  H59  1  0.17787227  0.02122469  0.46132183  1  0.647899  0  0.288663  0.386938  0  0.949985  0
H  H60  1  0.97374112  0.11684483  0.06525182  1  0.619477  0  0.286467  0.385836  0  0.953067  0
H  H61  1  0.52624650  0.88314673  0.56525458  1  0.619528  0  0.286392  0.385703  0  0.953229  0
H  H62  1  0.02625533  0.88315277  0.93474699  1  0.619517  0  0.286456  0.385758  0  0.953159  0
H  H63  1  0.47376764  0.11684324  0.43474666  1  0.619712  0  0.286427  0.385701  0  0.953209  0
H  H64  1  0.60040451  0.88950637  0.01821980  1  0.650861  0  0.2867  0.376284  0  0.975307  0
H  H65  1  0.89958701  0.11049853  0.51822086  1  0.650871  0  0.28667  0.376252  0  0.975361  0
H  H66  1  0.39958376  0.11049453  0.98177840  1  0.650897  0  0.28671  0.37624  0  0.975359  0
H  H67  1  0.10042452  0.88950565  0.48178068  1  0.650849  0  0.286667  0.376122  0  0.975543  0
H  H68  1  0.14185222  0.17150208  0.09300023  1  0.618935  0  0.283717  0.360941  0  0.987674  0
H  H69  1  0.35813629  0.82849305  0.59300658  1  0.618795  0  0.283709  0.361031  0  0.987585  0
H  H70  1  0.85815088  0.82850339  0.90699463  1  0.618905  0  0.283725  0.360926  0  0.987704  0
H  H71  1  0.64187382  0.17149907  0.40699556  1  0.618852  0  0.283756  0.36111  0  0.987462  0
C  C72  1  0.38001001  0.27018321  0.04874185  1  1.568759  0  0.21091  0.581847  0  4.189389  0
C  C73  1  0.11996694  0.72982663  0.54874824  1  1.569031  0  0.210785  0.581665  0  4.189707  0
C  C74  1  0.61997184  0.72982395  0.95125302  1  1.568774  0  0.210903  0.581873  0  4.189569  0
C  C75  1  0.88004721  0.27018757  0.45125603  1  1.56893  0  0.21085  0.581627  0  4.189436  0
C  C76  1  0.07327348  0.63369870  0.00253230  1  -0.111738  0  -0.014127  -0.035241  0  3.954292  0
C  C77  1  0.42673848  0.36629719  0.50253401  1  -0.111977  0  -0.014092  -0.035096  0  3.954259  0
C  C78  1  0.92671383  0.36629415  0.99746651  1  -0.112092  0  -0.01406  -0.034935  0  3.954059  0
C  C79  1  0.57325643  0.63371157  0.49747026  1  -0.111917  0  -0.014038  -0.035179  0  3.954161  0
C  C80  1  0.01621144  0.57883542  0.96514567  1  -0.019405  0  -0.084426  -0.095882  0  3.984089  0
C  C81  1  0.48379399  0.42117074  0.46514785  1  -0.019092  0  -0.084342  -0.095931  0  3.983842  0
C  C82  1  0.98377255  0.42116562  0.03485405  1  -0.01928  0  -0.084447  -0.09617  0  3.983999  0
C  C83  1  0.51620105  0.57883903  0.53485612  1  -0.018985  0  -0.084555  -0.096148  0  3.984262  0
C  C84  1  0.37458073  0.80106919  0.24353057  1  0.990523  0  0.217409  0.29154  0  4.045799  0
C  C85  1  0.12540427  0.19891545  0.74352889  1  0.990354  0  0.217061  0.291287  0  4.045769  0
C  C86  1  0.62541465  0.19891936  0.75647097  1  0.990463  0  0.217146  0.291515  0  4.045338  0
C  C87  1  0.87457521  0.80108372  0.25647144  1  0.990487  0  0.217166  0.291441  0  4.045711  0
C  C88  1  0.37182360  0.98131915  0.19220300  1  -0.006424  0  -0.069449  -0.134573  0  3.911151  0
C  C89  1  0.12815186  0.01868756  0.69220006  1  -0.006013  0  -0.069306  -0.13446  0  3.911077  0
C  C90  1  0.62815423  0.01869016  0.80779945  1  -0.006377  0  -0.069281  -0.134478  0  3.911112  0
C  C91  1  0.87184721  0.98132006  0.30780239  1  -0.006237  0  -0.069347  -0.134487  0  3.911085  0
C  C92  1  0.44269110  0.38791808  0.02329804  1  -0.08453  0  -0.01541  -0.029648  0  3.969097  0
C  C93  1  0.05731283  0.61209924  0.52330488  1  -0.084667  0  -0.015347  -0.029686  0  3.96888  0
C  C94  1  0.55731129  0.61209347  0.97669197  1  -0.08387  0  -0.01531  -0.029751  0  3.968906  0
C  C95  1  0.94270927  0.38792177  0.47669878  1  -0.084366  0  -0.01534  -0.029543  0  3.969151  0
C  C96  1  0.15095473  0.77636998  0.00549848  1  1.572968  0  0.222175  0.596449  0  4.176029  0
C  C97  1  0.34906589  0.22362549  0.50550103  1  1.572607  0  0.22205  0.596289  0  4.175991  0
C  C98  1  0.84904659  0.22362040  0.99449851  1  1.572813  0  0.222072  0.596143  0  4.176021  0
C  C99  1  0.65094848  0.77637861  0.49450445  1  1.572235  0  0.222088  0.596336  0  4.176281  0
C  C100  1  0.05728376  0.55290119  0.03728050  1  0.020686  0  -0.082751  -0.091325  0  3.971111  0
C  C101  1  0.44270975  0.44709557  0.53728246  1  0.020458  0  -0.082667  -0.091306  0  3.971216  0
C  C102  1  0.94270320  0.44710076  0.96271709  1  0.021027  0  -0.082737  -0.091532  0  3.97112  0
C  C103  1  0.55728314  0.55290821  0.46271907  1  0.020788  0  -0.082739  -0.091288  0  3.970873  0
C  C104  1  0.37470035  0.84344839  0.20134464  1  0.040693  0  0.017964  0.064291  0  4.001993  0
C  C105  1  0.12528065  0.15656576  0.70134316  1  0.040568  0  0.017957  0.064374  0  4.002023  0
C  C106  1  0.62528388  0.15656677  0.79865932  1  0.040396  0  0.017998  0.064413  0  4.002068  0
C  C107  1  0.87471521  0.84343893  0.29865686  1  0.040651  0  0.017951  0.064235  0  4.001947  0
C  C108  1  0.52447748  0.50251905  0.04199589  1  0.040457  0  -0.083283  -0.091532  0  3.977212  0
C  C109  1  0.97551773  0.49748454  0.54199645  1  0.040728  0  -0.083076  -0.091217  0  3.976955  0
C  C110  1  0.47552384  0.49748345  0.95799867  1  0.040453  0  -0.083139  -0.091303  0  3.977027  0
C  C111  1  0.02448928  0.50251777  0.45800175  1  0.040924  0  -0.083246  -0.091523  0  3.977136  0
C  C112  1  0.41848994  0.38625775  0.98107519  1  -0.032345  0  -0.08395  -0.092846  0  3.957601  0
C  C113  1  0.08151119  0.61374270  0.48107935  1  -0.047829  0  -0.083972  -0.092819  0  3.957395  0
C  C114  1  0.58150770  0.61373780  0.01891937  1  -0.047322  0  -0.08396  -0.092768  0  3.957456  0
C  C115  1  0.91849274  0.38625770  0.51892158  1  -0.031136  0  -0.084039  -0.093004  0  3.957936  0
C  C116  1  0.37081875  0.80088231  0.12948111  1  0.541455  0  0.058662  0.1093  0  3.935532  0
C  C117  1  0.12917333  0.19913005  0.62948095  1  0.542144  0  0.058758  0.109338  0  3.935678  0
C  C118  1  0.62917142  0.19912256  0.87051800  1  0.541599  0  0.058757  0.109379  0  3.935522  0
C  C119  1  0.87084212  0.80087099  0.37052119  1  0.541886  0  0.058668  0.109141  0  3.935785  0
C  C120  1  0.36112299  0.59521775  0.36596406  1  -0.041372  0  -0.097277  -0.084198  0  4.031984  0
C  C121  1  0.13888955  0.40475076  0.86596385  1  -0.039232  0  -0.097242  -0.084323  0  4.032828  0
C  C122  1  0.63888462  0.40476536  0.63403566  1  -0.038964  0  -0.097249  -0.084337  0  4.032903  0
C  C123  1  0.86109444  0.59525028  0.13403557  1  -0.039036  0  -0.097257  -0.084424  0  4.032962  0
C  C124  1  0.37013815  0.80198614  0.30902587  1  0.374181  0  0.083448  0.137772  0  4.077998  0
C  C125  1  0.12987235  0.19799741  0.80902511  1  0.374532  0  0.08355  0.136996  0  4.078574  0
C  C126  1  0.62987777  0.19800680  0.69097536  1  0.374482  0  0.083426  0.137082  0  4.078744  0
C  C127  1  0.87011663  0.80200952  0.19097673  1  0.374553  0  0.08358  0.138098  0  4.077219  0
C  C128  1  0.36937472  0.66395051  0.29712160  1  0.322253  0  0.082474  0.135055  0  4.079745  0
C  C129  1  0.13063737  0.33602652  0.79712049  1  0.322493  0  0.082443  0.135166  0  4.079782  0
C  C130  1  0.63064297  0.33603329  0.70287751  1  0.322835  0  0.082545  0.135278  0  4.079883  0
C  C131  1  0.86934081  0.66397369  0.20288105  1  0.322423  0  0.08235  0.134847  0  4.079584  0
C  C132  1  0.36339470  0.73134293  0.37829224  1  0.036572  0  -0.096732  -0.095174  0  4.005566  0
C  C133  1  0.13661899  0.26861887  0.87828722  1  0.0069  0  -0.09692  -0.09522  0  4.005543  0
C  C134  1  0.63661433  0.26862802  0.62171051  1  0.00671  0  -0.09687  -0.095052  0  4.00526  0
C  C135  1  0.86337651  0.73138281  0.12171250  1  0.006833  0  -0.096986  -0.095227  0  4.005561  0
C  C136  1  0.37595707  0.75228581  0.16888921  1  0.013657  0  -0.079644  -0.167163  0  3.962046  0
C  C137  1  0.12403891  0.24772141  0.66889094  1  0.013395  0  -0.079657  -0.167225  0  3.962332  0
C  C138  1  0.62403096  0.24772519  0.83111051  1  0.013571  0  -0.079733  -0.167388  0  3.962478  0
C  C139  1  0.87597250  0.75228177  0.33111151  1  0.013493  0  -0.079642  -0.167109  0  3.962263  0
C  C140  1  0.36814178  0.83608649  0.35029193  1  -0.091574  0  -0.083827  -0.131096  0  3.928459  0
C  C141  1  0.13187862  0.16386943  0.85029134  1  -0.062251  0  -0.084012  -0.131163  0  3.928562  0
C  C142  1  0.63187401  0.16388121  0.64970961  1  -0.061774  0  -0.083963  -0.131191  0  3.928732  0
C  C143  1  0.86812353  0.83612799  0.14970868  1  -0.062225  0  -0.083985  -0.131521  0  3.928237  0
C  C144  1  0.36687313  0.02165014  0.15205440  1  0.462197  0  0.054866  0.099493  0  3.925633  0
C  C145  1  0.13310540  0.97836051  0.65205386  1  0.462104  0  0.05481  0.0994  0  3.925932  0
C  C146  1  0.63310718  0.97835606  0.84794532  1  0.461982  0  0.054794  0.099362  0  3.925834  0
C  C147  1  0.86690388  0.02164880  0.34794767  1  0.462316  0  0.054866  0.099521  0  3.925682  0
C  C148  1  0.36491860  0.55856047  0.32515830  1  -0.011248  0  -0.115604  -0.212149  0  4.066221  0
C  C149  1  0.13509568  0.44141307  0.82516215  1  -0.01094  0  -0.11553  -0.211915  0  4.065969  0
C  C150  1  0.63509719  0.44141935  0.67483808  1  -0.011488  0  -0.115645  -0.212021  0  4.065953  0
C  C151  1  0.86487585  0.55859140  0.17483757  1  -0.011009  0  -0.115489  -0.211918  0  4.065954  0
N  N152  1  0.36448617  0.93298914  0.12104538  1  -1.246973  0  -0.323873  -0.226173  0  3.538708  0
N  N153  1  0.13549694  0.06703504  0.62104768  1  -1.247419  0  -0.323906  -0.226051  0  3.538932  0
N  N154  1  0.63549925  0.06702397  0.87895161  1  -1.246872  0  -0.323882  -0.226035  0  3.538626  0
N  N155  1  0.86451910  0.93297102  0.37895355  1  -1.247114  0  -0.323898  -0.22604  0  3.538547  0
N  N156  1  0.37294591  0.66718051  0.25527568  1  -1.300504  0  -0.391895  -0.341733  0  3.622125  0
N  N157  1  0.12704996  0.33280723  0.75527580  1  -1.300336  0  -0.39163  -0.34131  0  3.621876  0
N  N158  1  0.62706348  0.33281769  0.74472070  1  -1.300738  0  -0.391747  -0.341612  0  3.621758  0
N  N159  1  0.87291658  0.66719134  0.24472453  1  -1.300444  0  -0.391734  -0.341551  0  3.622066  0
N  N160  1  0.37312887  0.88371948  0.27511091  1  -1.123766  0  -0.333342  -0.396387  0  3.174089  0
N  N161  1  0.12686249  0.11625933  0.77510751  1  -1.124137  0  -0.333199  -0.395979  0  3.174033  0
N  N162  1  0.62687328  0.11626582  0.72489032  1  -1.123989  0  -0.333168  -0.396141  0  3.174022  0
N  N163  1  0.87312850  0.88374048  0.22489221  1  -1.124294  0  -0.333244  -0.396338  0  3.174  0
O  O164  1  0.59687149  0.93859572  0.04460841  1  -1.280857  0  -0.587416  -0.764604  0  2.107273  0
O  O165  1  0.90313320  0.06140238  0.54460880  1  -1.280903  0  -0.587309  -0.764551  0  2.107255  0
O  O166  1  0.40312734  0.06139777  0.95539070  1  -1.28079  0  -0.587309  -0.76452  0  2.107289  0
O  O167  1  0.09689376  0.93859929  0.45539334  1  -1.280773  0  -0.587362  -0.764412  0  2.107465  0
O  O168  1  0.05924270  0.09002232  0.08780096  1  -1.228942  0  -0.583377  -0.760572  0  2.056876  0
O  O169  1  0.44074312  0.90997618  0.58780616  1  -1.2288  0  -0.583284  -0.760558  0  2.05674  0
O  O170  1  0.94075316  0.90998237  0.91219755  1  -1.228974  0  -0.583371  -0.760477  0  2.056937  0
O  O171  1  0.55927137  0.09001681  0.41219719  1  -1.228975  0  -0.583344  -0.760618  0  2.056783  0
O  O172  1  0.35293997  0.28319189  0.08622278  1  -1.197167  0  -0.330567  -0.56573  0  2.110894  0
O  O173  1  0.14700248  0.71681516  0.58623050  1  -1.197235  0  -0.330486  -0.565705  0  2.111001  0
O  O174  1  0.64702326  0.71682699  0.91377148  1  -1.19721  0  -0.330561  -0.565766  0  2.110956  0
O  O175  1  0.85300228  0.28318016  0.41377316  1  -1.197167  0  -0.330525  -0.56567  0  2.110885  0
O  O176  1  0.35335009  0.15688224  0.02946398  1  -1.187422  0  -0.322519  -0.577044  0  2.417455  0
O  O177  1  0.14664896  0.84311574  0.52947079  1  -1.187556  0  -0.322588  -0.576914  0  2.417447  0
O  O178  1  0.64664304  0.84311143  0.97052937  1  -1.187559  0  -0.322624  -0.577049  0  2.417504  0
O  O179  1  0.85335497  0.15688466  0.47053348  1  -1.187522  0  -0.322596  -0.576981  0  2.417499  0
O  O180  1  0.17474003  0.84534445  0.97348325  1  -1.201487  0  -0.307701  -0.556788  0  2.243653  0
O  O181  1  0.32526487  0.15465424  0.47348247  1  -1.201047  0  -0.307795  -0.556901  0  2.24333  0
O  O182  1  0.82525180  0.15465028  0.02651556  1  -1.201141  0  -0.30774  -0.556811  0  2.24356  0
O  O183  1  0.67474037  0.84534510  0.52652119  1  -1.201067  0  -0.307768  -0.556828  0  2.243793  0
O  O184  1  0.18947532  0.81823668  0.04150634  1  -1.180804  0  -0.319826  -0.555902  0  2.371325  0
O  O185  1  0.31055763  0.18175355  0.54150902  1  -1.180959  0  -0.319656  -0.555642  0  2.371424  0
O  O186  1  0.81055200  0.18175590  0.95848914  1  -1.181029  0  -0.319736  -0.555621  0  2.371207  0
O  O187  1  0.68948203  0.81824670  0.45849616  1  -1.180669  0  -0.319686  -0.55571  0  2.371311  0
