# generated using pymatgen
data_Zn2H16C21(N2O)5
_symmetry_space_group_name_H-M   'P 1'
_cell_length_a   14.88780929
_cell_length_b   14.90917435
_cell_length_c   15.15796072
_cell_angle_alpha   111.46601628
_cell_angle_beta   121.83381234
_cell_angle_gamma   95.30694525
_symmetry_Int_Tables_number   1
_chemical_formula_structural   Zn2H16C21(N2O)5
_chemical_formula_sum   'Zn4 H32 C42 N20 O10'
_cell_volume   2480.66821685
_cell_formula_units_Z   2
loop_
 _symmetry_equiv_pos_site_id
 _symmetry_equiv_pos_as_xyz
  1  'x, y, z'
loop_
 _atom_site_type_symbol
 _atom_site_label
 _atom_site_symmetry_multiplicity
 _atom_site_fract_x
 _atom_site_fract_y
 _atom_site_fract_z
 _atom_site_occupancy
 _atom_site_pbe_bader_charge
 _atom_site_pbe_bader_spin_density
 _atom_site_pbe_cm5_charge
 _atom_site_pbe_ddec_charge
 _atom_site_pbe_ddec_spin_density
 _atom_site_pbe_ddec_sum_bond_order
 _atom_site_pbe_magmom
C  C0  1  0.59986218  0.01549702  0.32428217  1  0.387155  0  0.0103  -0.042843  0  3.948702  0
C  C1  1  0.69107066  0.27563660  0.67577771  1  0.402142  0  0.01015  -0.043497  0  3.949449  0
C  C2  1  0.29805780  0.22556887  0.39115233  1  0.471067  0  0.011444  -0.064681  0  3.942118  0
C  C3  1  0.83461151  0.90671836  0.60902315  1  0.446897  0  0.011367  -0.064793  0  3.943017  0
C  C4  1  0.40516620  0.29056569  0.58584896  1  0.821805  0  0.183278  0.090947  0  3.969594  0
C  C5  1  0.70472818  0.81911638  0.41429200  1  0.815945  0  0.185608  0.09152  0  3.967804  0
C  C6  1  0.78093743  0.17059960  0.64982575  1  0.43815  0  0.00969  -0.050174  0  3.946382  0
C  C7  1  0.52057204  0.13108399  0.35027590  1  0.402402  0  0.009026  -0.053599  0  3.947007  0
C  C8  1  0.59381811  0.10807339  0.32053785  1  0.040197  0  -0.03741  0.015139  0  4.116388  0
C  C9  1  0.78749045  0.27344034  0.67944904  1  -0.018067  0  -0.038106  0.011693  0  4.120477  0
C  C10  1  0.34378647  0.31920555  0.49604548  1  0.036615  0  -0.009475  -0.051776  0  4.053927  0
C  C11  1  0.82322241  0.84718962  0.50415728  1  0.080279  0  -0.010113  -0.051193  0  4.054074  0
C  C12  1  0.37751651  0.73238181  0.40688869  1  0.449345  0  0.021002  -0.032318  0  3.936635  0
C  C13  1  0.32579472  0.97059703  0.59329968  1  0.491697  0  0.024282  -0.028741  0  3.937275  0
C  C14  1  0.14522474  0.82715926  0.09734312  1  0.404951  0  -5.6e-05  -0.061715  0  4.037532  0
C  C15  1  0.72909532  0.04725830  0.90220795  1  0.395673  0  0.002196  -0.058206  0  4.034195  0
C  C16  1  0.61024990  0.12757645  0.89600406  1  1.034878  0  0.184232  0.287142  0  4.068539  0
C  C17  1  0.23148362  0.71438719  0.10395850  1  1.030816  0  0.185138  0.288883  0  4.066303  0
C  C18  1  0.50111740  0.81698376  0.60395670  1  0.459826  0  0.021188  -0.03284  0  3.920691  0
C  C19  1  0.21280260  0.89691267  0.39621834  1  0.471393  0  0.022286  -0.03059  0  3.917457  0
C  C20  1  0.40767908  0.72400185  0.50816937  1  0.033881  0  -0.034282  -0.001477  0  4.106696  0
C  C21  1  0.21596446  0.89930808  0.49208984  1  -0.017587  0  -0.036734  -0.004862  0  4.110064  0
C  C22  1  0.12367904  0.72131221  0.03502552  1  0.04492  0  -0.050432  -0.102444  0  4.148905  0
C  C23  1  0.68549461  0.08816063  0.96447418  1  0.040504  0  -0.049802  -0.100332  0  4.146259  0
C  C24  1  0.01549179  0.81117361  0.40456488  1  0.049089  0  -0.105126  -0.104796  0  4.043564  0
C  C25  1  0.40745939  0.61107517  0.59560672  1  0.063131  0  -0.104577  -0.105036  0  4.040974  0
C  C26  1  0.12854049  0.86061738  0.49769312  1  -0.07448  0  -0.071695  -0.0678  0  3.974394  0
C  C27  1  0.36354030  0.63097186  0.50259098  1  -0.084981  0  -0.072163  -0.067262  0  3.969444  0
C  C28  1  0.92123898  0.79813455  0.40814467  1  -0.006367  0  -0.081877  -0.119653  0  4.000498  0
C  C29  1  0.39109471  0.51332038  0.59205846  1  0.053866  0  -0.082792  -0.121324  0  3.9993  0
C  C30  1  0.91663410  0.83439246  0.50204655  1  0.154538  0  0.063689  0.019439  0  3.961146  0
C  C31  1  0.33349251  0.41472623  0.49816115  1  0.132598  0  0.064332  0.023545  0  3.955094  0
C  C32  1  0.88155183  0.35932207  0.72426767  1  0.004134  0  -0.099204  -0.133353  0  4.038337  0
C  C33  1  0.63474233  0.15721498  0.27563383  1  -0.032175  0  -0.098652  -0.134204  0  4.038507  0
C  C34  1  0.89476917  0.46019150  0.77933288  1  -0.070048  0  -0.1064  -0.102625  0  4.096707  0
C  C35  1  0.68026800  0.11525614  0.22022123  1  -0.065359  0  -0.10571  -0.101172  0  4.095586  0
C  C36  1  0.01589796  0.64041603  0.93275883  1  -0.058887  0  -0.104624  -0.117999  0  4.061428  0
C  C37  1  0.70669842  0.08272512  0.06659633  1  -0.057676  0  -0.104089  -0.117547  0  4.060362  0
C  C38  1  0.99968634  0.54578307  0.85535172  1  -0.00849  0  -0.104282  -0.104813  0  4.088826  0
C  C39  1  0.68982198  0.14409798  0.14428414  1  -0.023697  0  -0.105602  -0.10643  0  4.086822  0
C  C40  1  0.45980085  0.11849958  0.91353463  1  0.368108  0  -0.133664  -0.168401  0  3.891832  0
C  C41  1  0.20391654  0.54648156  0.08619304  1  0.383817  0  -0.133371  -0.169885  0  3.891572  0
H  H42  1  0.64655225  0.96903673  0.30719601  1  0.099204  0  0.114484  0.100511  0  1.008154  0
H  H43  1  0.66156824  0.33930983  0.69278925  1  0.083104  0  0.11471  0.101284  0  1.007498  0
H  H44  1  0.24580064  0.20932838  0.29932905  1  0.07476  0  0.127641  0.124578  0  0.988576  0
H  H45  1  0.91027682  0.94619901  0.70090058  1  0.089413  0  0.126819  0.123352  0  0.990114  0
H  H46  1  0.83806310  0.13377230  0.64231543  1  0.091839  0  0.1167  0.106384  0  1.000902  0
H  H47  1  0.49099138  0.19551652  0.35771152  1  0.093417  0  0.116663  0.107184  0  1.000508  0
H  H48  1  0.31072655  0.67770100  0.31365327  1  0.079955  0  0.119873  0.104314  0  1.036325  0
H  H49  1  0.36455556  0.99699383  0.68651663  1  0.078271  0  0.119609  0.103744  0  1.037549  0
H  H50  1  0.08653825  0.86806180  0.07698493  1  0.042313  0  0.114942  0.104826  0  0.995294  0
H  H51  1  0.79008233  0.00860830  0.92225946  1  0.072315  0  0.114272  0.103966  0  0.995228  0
H  H52  1  0.55150763  0.84600443  0.69939671  1  0.077402  0  0.118619  0.104208  0  1.011979  0
H  H53  1  0.14609670  0.85176463  0.30078690  1  0.083305  0  0.118899  0.10422  0  1.009163  0
H  H54  1  0.99090248  0.78695123  0.31516007  1  0.048925  0  0.102671  0.103629  0  0.984913  0
H  H55  1  0.47279818  0.67591140  0.68507087  1  0.045433  0  0.102679  0.103529  0  0.985726  0
H  H56  1  0.15779317  0.88171419  0.58784807  1  0.071268  0  0.105911  0.101241  0  1.017603  0
H  H57  1  0.29434021  0.57000929  0.41233535  1  0.081881  0  0.105885  0.101015  0  1.017718  0
H  H58  1  0.83790056  0.76239946  0.32212259  1  0.158157  0  0.109069  0.124538  0  1.043624  0
H  H59  1  0.44147794  0.51621922  0.67813184  1  0.142205  0  0.10869  0.123294  0  1.043194  0
H  H60  1  0.07191176  0.53077996  0.85925592  1  0.061802  0  0.103998  0.10623  0  0.988556  0
H  H61  1  0.67109876  0.21247421  0.14066521  1  0.065055  0  0.104781  0.106791  0  0.9879  0
H  H62  1  0.82541239  0.47817193  0.78012214  1  0.02921  0  0.095784  0.092912  0  0.997537  0
H  H63  1  0.69727393  0.04507757  0.21919424  1  0.04196  0  0.094805  0.092163  0  0.997588  0
H  H64  1  0.94099613  0.65493035  0.92244479  1  0.040666  0  0.09337  0.09006  0  1.001108  0
H  H65  1  0.73122186  0.01801526  0.07655175  1  0.033086  0  0.092982  0.089418  0  1.002075  0
H  H66  1  0.95150453  0.34109704  0.72519363  1  0.041072  0  0.099533  0.101677  0  0.991551  0
H  H67  1  0.61574607  0.22628961  0.27505030  1  0.035644  0  0.099213  0.101157  0  0.992739  0
H  H68  1  0.49255057  0.14524599  0.00629136  1  0.055721  0  0.100102  0.103399  0  1.014207  0
H  H69  1  0.44179887  0.03490232  0.87023210  1  0.042051  0  0.100391  0.096904  0  0.999293  0
H  H70  1  0.38220678  0.13449601  0.86718196  1  0.08626  0  0.108103  0.115408  0  0.970828  0
H  H71  1  0.13728277  0.48688727  0.99331162  1  0.051784  0  0.099135  0.10324  0  1.014897  0
H  H72  1  0.16417773  0.57205186  0.13011419  1  0.048517  0  0.100536  0.096953  0  0.999164  0
H  H73  1  0.26580880  0.51456037  0.13170999  1  0.063279  0  0.108214  0.116399  0  0.970237  0
N  N74  1  0.53403040  0.98594642  0.35135474  1  -0.793185  0  -0.279941  -0.182567  0  3.640036  0
N  N75  1  0.63454290  0.18276829  0.64880615  1  -0.786023  0  -0.279911  -0.181744  0  3.642926  0
N  N76  1  0.33122620  0.15224866  0.41847829  1  -0.721826  0  -0.237765  -0.103635  0  3.564994  0
N  N77  1  0.73396508  0.91308980  0.58160621  1  -0.742768  0  -0.236146  -0.101777  0  3.56299  0
N  N78  1  0.39620691  0.19134375  0.53659726  1  -0.701317  0  -0.2365  -0.220254  0  3.469307  0
N  N79  1  0.65482734  0.85993444  0.46346256  1  -0.684377  0  -0.238118  -0.220082  0  3.472339  0
N  N80  1  0.68954730  0.11758796  0.63278867  1  -0.801448  0  -0.284099  -0.18159  0  3.615442  0
N  N81  1  0.48477702  0.05685378  0.36741582  1  -0.800607  0  -0.284156  -0.181191  0  3.615938  0
N  N82  1  0.44827414  0.82010092  0.43956477  1  -0.808496  0  -0.26972  -0.176095  0  3.596029  0
N  N83  1  0.38063692  0.00876315  0.56052901  1  -0.781843  0  -0.271084  -0.176627  0  3.59921  0
N  N84  1  0.25546221  0.87845132  0.19149916  1  -0.80991  0  -0.285696  -0.178575  0  3.608914  0
N  N85  1  0.68684538  0.06379505  0.80856689  1  -0.811217  0  -0.287165  -0.182864  0  3.608925  0
N  N86  1  0.61202711  0.11306485  0.80415909  1  -0.787637  0  -0.273696  -0.275377  0  3.482367  0
N  N87  1  0.30897717  0.80797852  0.19611849  1  -0.791919  0  -0.273999  -0.276885  0  3.485165  0
N  N88  1  0.52427940  0.87260447  0.56134088  1  -0.780858  0  -0.266999  -0.163652  0  3.58445  0
N  N89  1  0.31105771  0.96288263  0.43875057  1  -0.810427  0  -0.267228  -0.164336  0  3.586618  0
N  N90  1  0.02437970  0.88094043  0.62499268  1  0.40411  0  0.053692  0.52153  0  4.199502  0
N  N91  1  0.25687327  0.39934027  0.37518372  1  0.424617  0  0.055108  0.522585  0  4.202114  0
N  N92  1  0.47101796  0.34313075  0.71150406  1  0.250747  0  0.046642  0.486816  0  4.198248  0
N  N93  1  0.63151409  0.75912967  0.28865367  1  0.261369  0  0.046828  0.488202  0  4.202224  0
O  O94  1  0.07063356  0.97652291  0.68258858  1  -0.455913  0  -0.137565  -0.343879  0  1.865474  0
O  O95  1  0.06040465  0.82092092  0.66118663  1  -0.428812  0  -0.121889  -0.314288  0  1.846591  0
O  O96  1  0.29462691  0.38756793  0.31734573  1  -0.474496  0  -0.138243  -0.34409  0  1.865437  0
O  O97  1  0.16064895  0.39948487  0.33922257  1  -0.430508  0  -0.123332  -0.316927  0  1.851332  0
O  O98  1  0.51925101  0.29444004  0.76603579  1  -0.531533  0  -0.152892  -0.343768  0  2.044832  0
O  O99  1  0.48123176  0.43343376  0.76644576  1  -0.442257  0  -0.123395  -0.308747  0  1.913596  0
O  O100  1  0.52823219  0.75311600  0.23400028  1  -0.524317  0  -0.154251  -0.345219  0  2.048717  0
O  O101  1  0.66681640  0.71394650  0.23382780  1  -0.455798  0  -0.122942  -0.308674  0  1.914839  0
O  O102  1  0.53945763  0.17355522  0.90710996  1  -1.085886  0  -0.198007  -0.191227  0  2.543671  0
O  O103  1  0.26615247  0.63241718  0.09311464  1  -1.082118  0  -0.198066  -0.190751  0  2.541529  0
Zn  Zn104  1  0.47832619  0.84974719  0.33550520  1  1.245187  0  0.722159  0.642085  0  2.486298  0
Zn  Zn105  1  0.51436943  0.14285317  0.66477661  1  1.246495  0  0.722446  0.642456  0  2.486274  0
Zn  Zn106  1  0.34072043  0.01156819  0.34499293  1  1.195756  0  0.749224  0.601676  0  2.494334  0
Zn  Zn107  1  0.66690123  0.99616044  0.65530244  1  1.195933  0  0.748655  0.601016  0  2.494665  0
