# generated using pymatgen
data_CuH14C17NO4
_symmetry_space_group_name_H-M   'P 1'
_cell_length_a   9.69620694
_cell_length_b   11.08936244
_cell_length_c   18.31842042
_cell_angle_alpha   97.16534387
_cell_angle_beta   90.00003607
_cell_angle_gamma   90.00020350
_symmetry_Int_Tables_number   1
_chemical_formula_structural   CuH14C17NO4
_chemical_formula_sum   'Cu4 H56 C68 N4 O16'
_cell_volume   1954.30105237
_cell_formula_units_Z   4
loop_
 _symmetry_equiv_pos_site_id
 _symmetry_equiv_pos_as_xyz
  1  'x, y, z'
loop_
 _atom_site_type_symbol
 _atom_site_label
 _atom_site_symmetry_multiplicity
 _atom_site_fract_x
 _atom_site_fract_y
 _atom_site_fract_z
 _atom_site_occupancy
 _atom_site_pbe_bader_charge
 _atom_site_pbe_bader_spin_density
 _atom_site_pbe_cm5_charge
 _atom_site_pbe_ddec_charge
 _atom_site_pbe_ddec_spin_density
 _atom_site_pbe_ddec_sum_bond_order
 _atom_site_pbe_magmom
Cu  Cu0  1  0.13132818  0.48320927  0.99934835  1  1.079788  0.549071  0.686758  0.764549  0.705986  2.389295  0.546
Cu  Cu1  1  0.63132862  0.51678846  0.50065419  1  1.079824  0.549053  0.686752  0.764549  0.705976  2.389352  0.546
Cu  Cu2  1  0.86867372  0.51678449  0.00065162  1  1.078342  -0.549069  0.686708  0.764463  -0.705992  2.389297  -0.546
Cu  Cu3  1  0.36867224  0.48321348  0.49934802  1  1.078215  -0.54906  0.686776  0.764534  -0.70597  2.389263  -0.546
H  H4  1  0.34347945  0.63506764  0.94690513  1  0.109305  -6.6e-05  0.120879  0.104279  -5.4e-05  0.998353  0.0
H  H5  1  0.84348038  0.36492988  0.55309583  1  0.109187  -6.7e-05  0.120857  0.10424  -5.4e-05  0.998366  0.0
H  H6  1  0.65651935  0.36492795  0.05309606  1  0.109142  6.7e-05  0.120862  0.104239  5.4e-05  0.99835  0.0
H  H7  1  0.15651945  0.63507025  0.44690297  1  0.109186  6.6e-05  0.120854  0.104274  5.3e-05  0.998352  0.0
H  H8  1  0.33438302  0.32190379  0.11079226  1  0.079818  6e-06  0.104037  0.157695  2.5e-05  0.992182  0.0
H  H9  1  0.83438148  0.67809225  0.38920832  1  0.079818  6e-06  0.104013  0.157714  2.5e-05  0.992129  0.0
H  H10  1  0.66561784  0.67808816  0.88920866  1  0.079562  -6e-06  0.103999  0.157718  -2.5e-05  0.992101  0.0
H  H11  1  0.16561835  0.32190969  0.61079117  1  0.079574  -6e-06  0.104001  0.157712  -2.5e-05  0.992149  0.0
H  H12  1  0.46472655  0.22769007  0.06457226  1  0.031245  -1.6e-05  0.094458  0.131141  -1e-06  0.998506  0.0
H  H13  1  0.96472339  0.77230731  0.43542791  1  0.031266  -1.6e-05  0.094476  0.131159  -1e-06  0.99853  0.0
H  H14  1  0.53527431  0.77230551  0.93542839  1  0.031292  1.6e-05  0.094445  0.13112  1e-06  0.998392  0.0
H  H15  1  0.03527438  0.22769191  0.56457083  1  0.03126  1.6e-05  0.09447  0.131172  1e-06  0.998459  0.0
H  H16  1  0.30314484  0.25206131  0.02068654  1  0.098606  -4.7e-05  0.102782  0.157209  -1.5e-05  1.011773  0.0
H  H17  1  0.80314472  0.74793373  0.47931286  1  0.096275  -4.7e-05  0.102772  0.15717  -1.5e-05  1.011834  0.0
H  H18  1  0.69685500  0.74793246  0.97931452  1  0.096263  4.7e-05  0.102791  0.157192  1.5e-05  1.011835  0.0
H  H19  1  0.19685614  0.25206639  0.52068486  1  0.098596  4.7e-05  0.10279  0.157197  1.5e-05  1.011817  0.0
H  H20  1  0.23953144  0.60492295  0.79304625  1  0.112987  0.00031  0.102223  0.104411  0.000268  1.015131  0.0
H  H21  1  0.73952545  0.39509059  0.70695861  1  0.113362  0.00031  0.102186  0.10433  0.000268  1.015028  0.0
H  H22  1  0.76047149  0.39508263  0.20695351  1  0.113238  -0.00031  0.102232  0.104442  -0.000268  1.015093  0.0
H  H23  1  0.26047335  0.60491409  0.29305200  1  0.112991  -0.00031  0.102247  0.104451  -0.000268  1.015099  0.0
H  H24  1  0.25078437  0.68015192  0.66967470  1  0.103951  -0.000211  0.10084  0.10812  -0.000116  1.010261  0.0
H  H25  1  0.75077410  0.31985620  0.83032975  1  0.103921  -0.000211  0.100847  0.108148  -0.000115  1.010317  0.0
H  H26  1  0.74920515  0.31985457  0.33032786  1  0.103887  0.000211  0.100854  0.108155  0.000116  1.01028  0.0
H  H27  1  0.24920201  0.68014030  0.16967642  1  0.103843  0.000211  0.100846  0.108161  0.000116  1.010288  0.0
H  H28  1  0.03473910  0.71651415  0.60369996  1  0.05032  -1.1e-05  0.09499  0.086156  -4e-06  1.026165  0.0
H  H29  1  0.53472463  0.28349054  0.89630144  1  0.050401  -1.1e-05  0.094999  0.086141  -4e-06  1.026115  0.0
H  H30  1  0.96525454  0.28349052  0.39630301  1  0.05004  1.1e-05  0.094956  0.086119  4e-06  1.026143  0.0
H  H31  1  0.46524839  0.71650959  0.10369955  1  0.050093  1.1e-05  0.094987  0.086142  4e-06  1.026113  0.0
H  H32  1  0.80671823  0.67040974  0.65686240  1  0.110194  0.000207  0.10323  0.112421  0.000105  1.000031  0.0
H  H33  1  0.30670666  0.32959946  0.84313670  1  0.110114  0.000207  0.103236  0.112451  0.000105  1.000043  0.0
H  H34  1  0.19327748  0.32959493  0.34314275  1  0.11013  -0.000207  0.10319  0.112402  -0.000106  1.000007  0.0
H  H35  1  0.69327460  0.67041156  0.15685692  1  0.110016  -0.000207  0.103195  0.112442  -0.000105  0.999966  0.0
H  H36  1  0.79710614  0.59613171  0.77980309  1  0.057448  -0.000296  0.102905  0.103255  -0.000254  1.024729  0.0
H  H37  1  0.29710092  0.40388110  0.72019682  1  0.057374  -0.000296  0.102848  0.103161  -0.000254  1.02471  0.0
H  H38  1  0.20289472  0.40386570  0.22020097  1  0.057509  0.000296  0.102916  0.103277  0.000254  1.024704  0.0
H  H39  1  0.70289788  0.59613719  0.27979843  1  0.057505  0.000296  0.102909  0.10328  0.000254  1.024699  0.0
H  H40  1  0.16409893  0.09763512  0.91799544  1  0.084464  0.000358  0.103264  0.105186  0.000292  1.002979  0.0
H  H41  1  0.66410618  0.90235453  0.58199941  1  0.084561  0.000358  0.10331  0.105187  0.000292  1.002996  0.0
H  H42  1  0.83589987  0.90235409  0.08199708  1  0.0845  -0.000358  0.103304  0.105189  -0.000292  1.00299  0.0
H  H43  1  0.33590705  0.09765195  0.41799987  1  0.084577  -0.000359  0.103295  0.105152  -0.000292  1.003025  0.0
H  H44  1  0.12293696  0.87604337  0.87956652  1  0.068808  -0.000225  0.099771  0.097149  -0.000122  0.997881  0.0
H  H45  1  0.62295040  0.12394978  0.62043076  1  0.069255  -0.000225  0.099729  0.097171  -0.000122  0.99778  0.0
H  H46  1  0.87705772  0.12394857  0.12042730  1  0.06886  0.000225  0.099746  0.097131  0.000122  0.99791  0.0
H  H47  1  0.37705562  0.87605761  0.37956804  1  0.069394  0.000225  0.099701  0.097131  0.000122  0.998009  0.0
H  H48  1  0.88360228  0.79667405  0.86899311  1  0.084083  6e-06  0.097225  0.092555  -1.1e-05  1.046553  0.0
H  H49  1  0.38361574  0.20332722  0.63100706  1  0.084165  6e-06  0.097292  0.092617  -1.1e-05  1.046473  0.0
H  H50  1  0.11639033  0.20332516  0.13100290  1  0.084124  -6e-06  0.097272  0.092614  1.1e-05  1.046553  0.0
H  H51  1  0.61638719  0.79667472  0.36899352  1  0.084143  -6e-06  0.097291  0.092668  1.1e-05  1.046491  0.0
H  H52  1  0.68466603  0.93794449  0.89363698  1  0.069397  0.00021  0.098657  0.094773  0.00011  1.00839  0.0
H  H53  1  0.18466960  0.06205523  0.60636628  1  0.069463  0.00021  0.098675  0.094747  0.00011  1.008301  0.0
H  H54  1  0.31533174  0.06205745  0.10636087  1  0.069404  -0.00021  0.098667  0.094776  -0.00011  1.008386  0.0
H  H55  1  0.81533229  0.93793945  0.39364031  1  0.069378  -0.00021  0.098653  0.094764  -0.00011  1.008364  0.0
H  H56  1  0.72703053  0.15883653  0.93139215  1  0.050018  -0.000319  0.100006  0.099452  -0.000262  1.026217  0.0
H  H57  1  0.22703308  0.84115969  0.56860703  1  0.050103  -0.000319  0.099992  0.099482  -0.000263  1.026219  0.0
H  H58  1  0.27297240  0.84116268  0.06860549  1  0.050015  0.000319  0.09999  0.09947  0.000263  1.026252  0.0
H  H59  1  0.77298222  0.15883589  0.43139634  1  0.049867  0.000319  0.100025  0.099495  0.000262  1.026058  0.0
C  C60  1  0.41487737  0.57450098  0.97053207  1  0.489646  -0.000755  0.053052  -0.003265  -0.000514  3.912856  -0.001
C  C61  1  0.91487645  0.42549767  0.52946846  1  0.489683  -0.000755  0.053081  -0.003214  -0.000514  3.912955  -0.001
C  C62  1  0.58512040  0.42549279  0.02946844  1  0.4897  0.000755  0.053108  -0.003147  0.000514  3.912754  0.001
C  C63  1  0.08512029  0.57450427  0.47053048  1  0.48968  0.000755  0.053082  -0.003201  0.000514  3.912851  0.001
C  C64  1  0.44330304  0.40248088  0.02760336  1  0.571329  -0.000689  0.129002  0.268054  -0.000446  3.960605  -0.001
C  C65  1  0.94330334  0.59751552  0.47239728  1  0.571371  -0.000689  0.128966  0.268053  -0.000446  3.96082  -0.001
C  C66  1  0.55669679  0.59751379  0.97239776  1  0.570661  0.000689  0.129004  0.268113  0.000446  3.960879  0.001
C  C67  1  0.05669546  0.40248370  0.52760255  1  0.571378  0.000688  0.12896  0.268016  0.000446  3.960752  0.001
C  C68  1  0.38384454  0.29431840  0.05733556  1  -0.09363  6.6e-05  -0.236369  -0.458425  -5e-06  3.942667  0.0
C  C69  1  0.88384421  0.70567690  0.44266443  1  -0.091247  6.6e-05  -0.236316  -0.458404  -5e-06  3.942694  0.0
C  C70  1  0.61615529  0.70567446  0.94266598  1  -0.090966  -6.6e-05  -0.236369  -0.458473  5e-06  3.942835  0.0
C  C71  1  0.11615562  0.29432231  0.55733376  1  -0.093294  -6.6e-05  -0.236329  -0.45843  5e-06  3.942687  0.0
C  C72  1  0.01107401  0.55668265  0.86848686  1  1.523826  -2.2e-05  0.212361  0.568885  -3.3e-05  4.167104  0.0
C  C73  1  0.51107019  0.44332378  0.63151411  1  1.523575  -2.5e-05  0.2124  0.568943  -3.4e-05  4.167149  0.0
C  C74  1  0.98892892  0.44331293  0.13151051  1  1.524011  2.3e-05  0.212455  0.569015  3.5e-05  4.167156  0.0
C  C75  1  0.48893480  0.55668453  0.36848858  1  1.523904  2.1e-05  0.212387  0.568989  3.3e-05  4.166975  0.0
C  C76  1  0.01771375  0.59730162  0.79377023  1  -0.093994  -1.6e-05  -0.020065  -0.037431  -6e-06  3.976896  0.0
C  C77  1  0.51771192  0.40271301  0.70623409  1  -0.093714  -1.5e-05  -0.020026  -0.037506  -6e-06  3.977182  0.0
C  C78  1  0.98229123  0.40269759  0.20622851  1  -0.094064  1.6e-05  -0.020065  -0.037557  6e-06  3.976972  0.0
C  C79  1  0.48228585  0.59729893  0.29377051  1  -0.093986  1.3e-05  -0.020006  -0.037417  4e-06  3.976835  0.0
C  C80  1  0.14578345  0.62059215  0.76282696  1  -0.01031  -0.000957  -0.08573  -0.097205  -0.000616  3.969513  -0.001
C  C81  1  0.64577434  0.37942108  0.73717839  1  -0.010611  -0.000957  -0.085639  -0.096887  -0.000616  3.969646  -0.001
C  C82  1  0.85421535  0.37941161  0.23717430  1  -0.010518  0.000958  -0.085728  -0.097105  0.000617  3.969341  0.001
C  C83  1  0.35421208  0.62058541  0.26282526  1  -0.010289  0.000957  -0.085758  -0.097239  0.000616  3.969533  0.001
C  C84  1  0.15164558  0.66322130  0.69445004  1  -0.068152  -0.00076  -0.090973  -0.080922  -0.000538  3.991273  -0.001
C  C85  1  0.65164154  0.33678650  0.80555163  1  -0.067757  -0.000759  -0.091041  -0.08123  -0.000537  3.991511  -0.001
C  C86  1  0.84835012  0.33678155  0.30555007  1  -0.068167  0.000759  -0.091047  -0.081126  0.000537  3.991439  0.001
C  C87  1  0.34835004  0.66321908  0.19444922  1  -0.068149  0.000759  -0.091031  -0.081036  0.000537  3.991413  0.001
C  C88  1  0.02965150  0.68276803  0.65701835  1  -0.107873  0.000106  -0.088516  -0.069853  6.7e-05  3.995592  0.0
C  C89  1  0.52964433  0.31722846  0.84297970  1  -0.108183  0.000106  -0.088559  -0.06969  6.7e-05  3.995623  0.0
C  C90  1  0.97034111  0.31723483  0.34298229  1  -0.107636  -0.000105  -0.088512  -0.06983  -6.7e-05  3.9956  0.0
C  C91  1  0.47034519  0.68276257  0.15701897  1  -0.107479  -0.000105  -0.088476  -0.069802  -6.7e-05  3.99564  0.0
C  C92  1  0.90165638  0.65799925  0.68695995  1  -0.006726  0.000629  -0.091609  -0.085812  0.000474  3.995698  0.001
C  C93  1  0.40165308  0.34200118  0.81304234  1  -0.006487  0.000629  -0.091628  -0.085979  0.000474  3.995817  0.001
C  C94  1  0.09834036  0.34199724  0.31304186  1  -0.006526  -0.000629  -0.091554  -0.085718  -0.000474  3.995532  -0.001
C  C95  1  0.59834160  0.65800350  0.18696117  1  -0.006661  -0.000629  -0.091557  -0.08576  -0.000474  3.995697  -0.001
C  C96  1  0.89579115  0.61565099  0.75539016  1  -0.027969  0.001132  -0.086511  -0.100405  0.0007  3.979097  0.001
C  C97  1  0.39578588  0.38435669  0.74461104  1  -0.028231  0.001132  -0.086428  -0.100206  0.0007  3.978911  0.001
C  C98  1  0.10420971  0.38434460  0.24461104  1  -0.028073  -0.001132  -0.08645  -0.100344  -0.0007  3.979051  -0.001
C  C99  1  0.60420776  0.61565525  0.25539084  1  -0.027988  -0.001132  -0.086552  -0.1005  -0.0007  3.97912  -0.001
C  C100  1  0.97131598  0.27287993  0.95183543  1  1.519643  -0.000478  0.213559  0.573022  -0.000422  4.164258  -0.001
C  C101  1  0.47131290  0.72711617  0.54816110  1  1.518968  -0.000479  0.213588  0.573097  -0.000423  4.163998  -0.001
C  C102  1  0.02868900  0.72711473  0.04816132  1  1.518988  0.000479  0.213653  0.573188  0.000423  4.164  0.001
C  C103  1  0.52869622  0.27288577  0.45183894  1  1.518379  0.000476  0.213481  0.572694  0.000422  4.164224  0.001
C  C104  1  0.94790036  0.14102178  0.92684375  1  -0.029679  -2.5e-05  -0.020643  -0.037546  -1.6e-05  3.980219  0.0
C  C105  1  0.44790196  0.85897425  0.57315659  1  -0.02963  -2.7e-05  -0.020596  -0.037469  -1.7e-05  3.980033  0.0
C  C106  1  0.05209947  0.85897289  0.07315465  1  -0.02961  2.5e-05  -0.020621  -0.037544  1.6e-05  3.980233  0.0
C  C107  1  0.55210303  0.14102769  0.42684344  1  -0.029544  2.2e-05  -0.020663  -0.037501  1.4e-05  3.980336  0.0
C  C108  1  0.05968173  0.06151990  0.91208343  1  -0.00504  -0.001054  -0.081839  -0.08799  -0.000651  3.966017  -0.001
C  C109  1  0.55968708  0.93846941  0.58791190  1  -0.005357  -0.001054  -0.081819  -0.087929  -0.00065  3.966031  -0.001
C  C110  1  0.94032016  0.93847294  0.08791155  1  -0.005173  0.001054  -0.081807  -0.087971  0.00065  3.966142  0.001
C  C111  1  0.44032203  0.06152617  0.41208601  1  -0.005116  0.001054  -0.081856  -0.088039  0.00065  3.966256  0.001
C  C112  1  0.03618358  0.93812534  0.89091931  1  -0.14877  -0.00063  -0.089879  -0.082508  -0.000455  4.00767  -0.001
C  C113  1  0.53619985  0.06186845  0.60907854  1  -0.148672  -0.00063  -0.090007  -0.082743  -0.000455  4.007446  -0.001
C  C114  1  0.96381213  0.06187023  0.10907370  1  -0.149074  0.00063  -0.089911  -0.082483  0.000455  4.007527  0.001
C  C115  1  0.46381751  0.93812895  0.39091788  1  -0.149797  0.00063  -0.089837  -0.082385  0.000455  4.00765  0.001
C  C116  1  0.90143523  0.89335513  0.88463198  1  0.032837  -3e-06  -0.084998  -0.062566  3e-06  3.97856  0.0
C  C117  1  0.40144931  0.10663985  0.61536990  1  0.032399  -3e-06  -0.085075  -0.062646  3e-06  3.978691  0.0
C  C118  1  0.09856357  0.10664317  0.11536395  1  0.032957  3e-06  -0.085009  -0.062653  -3e-06  3.978573  0.0
C  C119  1  0.59856702  0.89335937  0.38463430  1  0.033054  3e-06  -0.085054  -0.062818  -3e-06  3.978635  0.0
C  C120  1  0.78988250  0.97256929  0.89881645  1  -0.07198  0.000616  -0.094864  -0.092129  0.000452  4.028231  0.001
C  C121  1  0.28989212  0.02743441  0.60118496  1  -0.071972  0.000616  -0.094758  -0.09188  0.000452  4.028226  0.001
C  C122  1  0.21011836  0.02743083  0.10118017  1  -0.071668  -0.000616  -0.09487  -0.092008  -0.000452  4.028219  -0.001
C  C123  1  0.71012009  0.97257480  0.39881999  1  -0.071996  -0.000616  -0.094827  -0.09192  -0.000452  4.028293  -0.001
C  C124  1  0.81278764  0.09594722  0.91976697  1  -0.012769  0.000981  -0.087964  -0.098979  0.000607  3.988954  0.001
C  C125  1  0.31278324  0.90405473  0.58023268  1  -0.012838  0.000981  -0.088011  -0.09916  0.000607  3.988808  0.001
C  C126  1  0.18721735  0.90405381  0.08022699  1  -0.012831  -0.000981  -0.08802  -0.09916  -0.000607  3.988916  -0.001
C  C127  1  0.68721865  0.09594994  0.41977302  1  -0.012505  -0.000981  -0.088012  -0.099156  -0.000607  3.988951  -0.001
N  N128  1  0.35880062  0.47931067  0.99767906  1  -1.226803  -0.000975  -0.313964  -0.242657  -0.000301  3.456362  0.0
N  N129  1  0.85880109  0.52068780  0.50232307  1  -1.226871  -0.000973  -0.313988  -0.242671  -0.0003  3.456567  0.0
N  N130  1  0.64120024  0.52068310  0.00232255  1  -1.226091  0.000974  -0.31399  -0.242691  0.000301  3.456213  0.0
N  N131  1  0.14119771  0.47931414  0.49767696  1  -1.226825  0.000975  -0.313982  -0.242719  0.000301  3.456422  0.0
O  O132  1  0.12449254  0.52731409  0.89689089  1  -1.103447  0.086178  -0.311551  -0.521333  0.055895  2.384105  0.078
O  O133  1  0.62449190  0.47269271  0.60311069  1  -1.103428  0.086187  -0.311607  -0.521476  0.055901  2.384233  0.078
O  O134  1  0.87551038  0.47268058  0.10310696  1  -1.103422  -0.086175  -0.311607  -0.521444  -0.055893  2.384229  -0.078
O  O135  1  0.37551618  0.52731741  0.39689159  1  -1.103309  -0.08618  -0.3116  -0.521447  -0.055897  2.38434  -0.078
O  O136  1  0.89220621  0.55664176  0.89850510  1  -1.102928  -0.085548  -0.310604  -0.518505  -0.055849  2.393961  -0.077
O  O137  1  0.39220307  0.44336136  0.60149521  1  -1.103001  -0.085544  -0.310618  -0.518461  -0.055846  2.393971  -0.077
O  O138  1  0.10779568  0.44334927  0.10148975  1  -1.103067  0.085543  -0.310668  -0.518531  0.055845  2.393925  0.077
O  O139  1  0.60780295  0.55664422  0.39850946  1  -1.103148  0.085544  -0.310606  -0.518516  0.055845  2.393735  0.077
O  O140  1  0.09579638  0.30947774  0.96041855  1  -1.102528  0.08725  -0.311206  -0.518167  0.056488  2.371364  0.079
O  O141  1  0.59579551  0.69051806  0.53957893  1  -1.102339  0.087259  -0.311203  -0.518174  0.056492  2.371223  0.079
O  O142  1  0.90420757  0.69051784  0.03957719  1  -1.102365  -0.087248  -0.311202  -0.518157  -0.056486  2.371271  -0.079
O  O143  1  0.40421669  0.30948116  0.46042363  1  -1.102127  -0.087247  -0.311172  -0.517977  -0.056485  2.371354  -0.079
O  O144  1  0.86378851  0.33918867  0.96325976  1  -1.114447  -0.08326  -0.312671  -0.532567  -0.054098  2.402574  -0.075
O  O145  1  0.36378823  0.66080800  0.53674005  1  -1.113968  -0.083254  -0.312705  -0.532628  -0.054094  2.402552  -0.075
O  O146  1  0.13621545  0.66080327  0.03673897  1  -1.114062  0.083254  -0.312763  -0.532721  0.054094  2.402493  0.075
O  O147  1  0.63622191  0.33919759  0.46326408  1  -1.113586  0.083253  -0.312627  -0.532425  0.054092  2.402462  0.075
