# generated using pymatgen
data_KH3(CO)4
_symmetry_space_group_name_H-M   'P 1'
_cell_length_a   4.44362281
_cell_length_b   7.88294853
_cell_length_c   16.11035741
_cell_angle_alpha   89.99973210
_cell_angle_beta   90.00024053
_cell_angle_gamma   89.99990808
_symmetry_Int_Tables_number   1
_chemical_formula_structural   KH3(CO)4
_chemical_formula_sum   'K4 H12 C16 O16'
_cell_volume   564.32729185
_cell_formula_units_Z   4
loop_
 _symmetry_equiv_pos_site_id
 _symmetry_equiv_pos_as_xyz
  1  'x, y, z'
loop_
 _atom_site_type_symbol
 _atom_site_label
 _atom_site_symmetry_multiplicity
 _atom_site_fract_x
 _atom_site_fract_y
 _atom_site_fract_z
 _atom_site_occupancy
 _atom_site_hle17_bader_spin_density
 _atom_site_hle17_ddec_charge
 _atom_site_hle17_ddec_spin_density
 _atom_site_hle17_ddec_sum_bond_order
 _atom_site_hle17_magmom
 _atom_site_hse06_10hf_bader_spin_density
 _atom_site_hse06_10hf_ddec_charge
 _atom_site_hse06_10hf_ddec_spin_density
 _atom_site_hse06_10hf_ddec_sum_bond_order
 _atom_site_hse06_10hf_magmom
 _atom_site_hse06_bader_spin_density
 _atom_site_hse06_ddec_charge
 _atom_site_hse06_ddec_spin_density
 _atom_site_hse06_ddec_sum_bond_order
 _atom_site_hse06_magmom
 _atom_site_pbe_bader_spin_density
 _atom_site_pbe_cm5_charge
 _atom_site_pbe_ddec_charge
 _atom_site_pbe_ddec_spin_density
 _atom_site_pbe_ddec_sum_bond_order
 _atom_site_pbe_magmom
K  K0  1  0.75945937  0.24820404  0.99907236  1  0  0.938057  0  0.433855  0  0  0.887998  0  0.614047  0  0  0.902672  0  0.591193  0  0  0.769345  0.876975  0  0.630424  0
K  K1  1  0.24054056  0.75179234  0.49907139  1  0  0.938049  0  0.433834  0  0  0.887996  0  0.614006  0  0  0.902671  0  0.591153  0  0  0.769336  0.876975  0  0.630382  0
K  K2  1  0.24054873  0.74821134  0.99907148  1  0  0.938054  0  0.433832  0  0  0.887989  0  0.61402  0  0  0.902664  0  0.591167  0  0  0.769328  0.876968  0  0.630397  0
K  K3  1  0.75946245  0.25179138  0.49907165  1  0  0.938051  0  0.433842  0  0  0.887992  0  0.614027  0  0  0.902665  0  0.591174  0  0  0.769337  0.87697  0  0.630405  0
H  H4  1  0.58136644  0.56611520  0.82197836  1  0  0.117046  0  0.951229  0  0  0.124825  0  1.012356  0  0  0.128754  0  1.01032  0  0  0.116884  0.122012  0  1.013953  0
H  H5  1  0.41862638  0.43389175  0.32197585  1  0  0.117083  0  0.951201  0  0  0.124865  0  1.01232  0  0  0.128796  0  1.01029  0  0  0.11691  0.122052  0  1.013917  0
H  H6  1  0.41863057  0.06610947  0.82197573  1  0  0.117091  0  0.951201  0  0  0.124867  0  1.012314  0  0  0.128799  0  1.010283  0  0  0.116913  0.122054  0  1.013912  0
H  H7  1  0.58137351  0.93388480  0.32197786  1  0  0.117048  0  0.951213  0  0  0.12484  0  1.012319  0  0  0.12877  0  1.010286  0  0  0.116885  0.122028  0  1.013916  0
H  H8  1  0.58261661  0.56819125  0.67688971  1  0  0.117653  0  0.950476  0  0  0.12567  0  1.01133  0  0  0.129601  0  1.009367  0  0  0.117051  0.122838  0  1.012926  0
H  H9  1  0.41738084  0.43180947  0.17688783  1  0  0.11764  0  0.950434  0  0  0.125695  0  1.011269  0  0  0.129636  0  1.009291  0  0  0.117045  0.122824  0  1.01291  0
H  H10  1  0.41738052  0.06818806  0.67688770  1  0  0.117635  0  0.950439  0  0  0.125693  0  1.011277  0  0  0.129629  0  1.009304  0  0  0.117049  0.122821  0  1.012917  0
H  H11  1  0.58261468  0.93180505  0.17688984  1  0  0.117646  0  0.950476  0  0  0.125691  0  1.011314  0  0  0.129623  0  1.009351  0  0  0.117063  0.122848  0  1.012924  0
H  H12  1  0.00640976  0.28899234  0.74886264  1  0  0.384048  0  0.934687  0  0  0.353605  0  1.011108  0  0  0.366357  0  0.997235  0  0  0.288777  0.34478  0  1.018011  0
H  H13  1  0.99359325  0.71101023  0.24886267  1  0  0.384072  0  0.934689  0  0  0.353628  0  1.011108  0  0  0.366379  0  0.997209  0  0  0.288798  0.344802  0  1.018014  0
H  H14  1  0.99359005  0.78898882  0.74886266  1  0  0.384098  0  0.934628  0  0  0.353654  0  1.011042  0  0  0.366405  0  0.997162  0  0  0.288821  0.344829  0  1.017947  0
H  H15  1  0.00640846  0.21100615  0.24886265  1  0  0.384016  0  0.934746  0  0  0.353577  0  1.011162  0  0  0.366329  0  0.997279  0  0  0.288777  0.344751  0  1.018067  0
C  C16  1  0.21841530  0.39475929  0.85053450  1  0  0.681103  0  3.893774  0  0  0.637461  0  4.192547  0  0  0.671723  0  4.180962  0  0  0.208539  0.614267  0  4.19975  0
C  C17  1  0.78157795  0.60524358  0.35053390  1  0  0.681104  0  3.893725  0  0  0.637472  0  4.192506  0  0  0.671735  0  4.180919  0  0  0.208576  0.614278  0  4.199707  0
C  C18  1  0.78158345  0.89476103  0.85053427  1  0  0.681256  0  3.893701  0  0  0.637603  0  4.192478  0  0  0.671867  0  4.180888  0  0  0.208563  0.614409  0  4.199683  0
C  C19  1  0.21842330  0.10524311  0.35053351  1  0  0.681151  0  3.893765  0  0  0.637535  0  4.192514  0  0  0.671798  0  4.180927  0  0  0.208584  0.61434  0  4.199716  0
C  C20  1  0.41312072  0.48817250  0.79089338  1  0  -0.149783  0  3.627884  0  0  -0.168563  0  3.884542  0  0  -0.172899  0  3.896927  0  0  -0.071734  -0.165759  0  3.876356  0
C  C21  1  0.58687390  0.51183347  0.29089151  1  0  -0.14988  0  3.62789  0  0  -0.168671  0  3.884582  0  0  -0.173016  0  3.896978  0  0  -0.071806  -0.165861  0  3.876378  0
C  C22  1  0.58687464  0.98816808  0.79089167  1  0  -0.149946  0  3.627898  0  0  -0.168703  0  3.884566  0  0  -0.173049  0  3.896961  0  0  -0.071796  -0.165894  0  3.876364  0
C  C23  1  0.41312899  0.01182902  0.29089322  1  0  -0.149867  0  3.627931  0  0  -0.168647  0  3.884587  0  0  -0.172988  0  3.896977  0  0  -0.071759  -0.165839  0  3.876394  0
C  C24  1  0.41387175  0.48939072  0.70737692  1  0  -0.149918  0  3.626127  0  0  -0.16976  0  3.883033  0  0  -0.174046  0  3.895314  0  0  -0.07173  -0.166994  0  3.874935  0
C  C25  1  0.58612165  0.51061479  0.20737506  1  0  -0.149851  0  3.626049  0  0  -0.169763  0  3.882934  0  0  -0.174053  0  3.895214  0  0  -0.071758  -0.166966  0  3.874851  0
C  C26  1  0.58612238  0.98938630  0.70737583  1  0  -0.14974  0  3.625956  0  0  -0.169641  0  3.882847  0  0  -0.173928  0  3.89513  0  0  -0.07168  -0.166845  0  3.874765  0
C  C27  1  0.41387327  0.01060906  0.20737739  1  0  -0.149844  0  3.626086  0  0  -0.16973  0  3.883046  0  0  -0.174017  0  3.895327  0  0  -0.071733  -0.166954  0  3.874951  0
C  C28  1  0.21967404  0.39732275  0.64715602  1  0  0.680775  0  3.895941  0  0  0.63796  0  4.193568  0  0  0.672248  0  4.181946  0  0  0.207248  0.614756  0  4.200771  0
C  C29  1  0.78032523  0.60268333  0.14715542  1  0  0.680631  0  3.896127  0  0  0.637909  0  4.193617  0  0  0.672196  0  4.181998  0  0  0.20729  0.614708  0  4.200811  0
C  C30  1  0.78032397  0.89731689  0.64715579  1  0  0.680624  0  3.895997  0  0  0.637816  0  4.193629  0  0  0.672104  0  4.18201  0  0  0.207221  0.614614  0  4.200825  0
C  C31  1  0.21967529  0.10267651  0.14715566  1  0  0.680807  0  3.895967  0  0  0.637973  0  4.193639  0  0  0.672261  0  4.182017  0  0  0.207236  0.614768  0  4.200838  0
O  O32  1  0.26107246  0.41822348  0.92671158  1  0  -0.69749  0  1.929481  0  0  -0.65739  0  2.163398  0  0  -0.678082  0  2.150511  0  0  -0.441972  -0.642906  0  2.171869  0
O  O33  1  0.73892640  0.58177486  0.42671098  1  0  -0.697473  0  1.929379  0  0  -0.657375  0  2.163289  0  0  -0.678067  0  2.150403  0  0  -0.441995  -0.64289  0  2.171759  0
O  O34  1  0.73893184  0.91822906  0.92671130  1  0  -0.697558  0  1.929392  0  0  -0.657449  0  2.163301  0  0  -0.678141  0  2.150414  0  0  -0.442  -0.642967  0  2.171773  0
O  O35  1  0.26107602  0.08177942  0.42671127  1  0  -0.697488  0  1.929366  0  0  -0.6574  0  2.163274  0  0  -0.678092  0  2.150388  0  0  -0.44199  -0.642916  0  2.171744  0
O  O36  1  0.01286225  0.29033158  0.82343392  1  0  -0.610102  0  2.064099  0  0  -0.555226  0  2.286575  0  0  -0.582061  0  2.277131  0  0  -0.339059  -0.536605  0  2.29127  0
O  O37  1  0.98713735  0.70966647  0.32343333  1  0  -0.610089  0  2.064145  0  0  -0.555214  0  2.286614  0  0  -0.582049  0  2.277157  0  0  -0.339048  -0.536598  0  2.29132  0
O  O38  1  0.98713640  0.79033314  0.82343393  1  0  -0.610149  0  2.064122  0  0  -0.555269  0  2.2866  0  0  -0.582105  0  2.27715  0  0  -0.339056  -0.536649  0  2.291299  0
O  O39  1  0.01286320  0.20966746  0.32343393  1  0  -0.610093  0  2.064213  0  0  -0.555219  0  2.286654  0  0  -0.582055  0  2.277205  0  0  -0.339071  -0.536604  0  2.291364  0
O  O40  1  0.01411913  0.29239498  0.67367436  1  0  -0.612803  0  2.058133  0  0  -0.558123  0  2.280254  0  0  -0.585021  0  2.27095  0  0  -0.340088  -0.539466  0  2.284897  0
O  O41  1  0.98588278  0.70760578  0.17367501  1  0  -0.612771  0  2.058201  0  0  -0.55812  0  2.280275  0  0  -0.585017  0  2.27096  0  0  -0.340127  -0.539465  0  2.284922  0
O  O42  1  0.98588182  0.79239400  0.67367562  1  0  -0.612784  0  2.058158  0  0  -0.558096  0  2.28026  0  0  -0.584993  0  2.270953  0  0  -0.340133  -0.539442  0  2.284908  0
O  O43  1  0.01411784  0.20760295  0.17367314  1  0  -0.612802  0  2.058207  0  0  -0.558121  0  2.280354  0  0  -0.58502  0  2.271048  0  0  -0.340104  -0.539462  0  2.284997  0
O  O44  1  0.26361957  0.42262454  0.57116205  1  0  -0.69861  0  1.930241  0  0  -0.658487  0  2.163547  0  0  -0.679274  0  2.150703  0  0  -0.44325  -0.643925  0  2.171975  0
O  O45  1  0.73638984  0.57737339  0.07116208  1  0  -0.698498  0  1.930345  0  0  -0.658398  0  2.163598  0  0  -0.679186  0  2.150756  0  0  -0.443214  -0.643837  0  2.172021  0
O  O46  1  0.73638851  0.92262252  0.57116114  1  0  -0.698559  0  1.930239  0  0  -0.658439  0  2.163542  0  0  -0.679227  0  2.150699  0  0  -0.443242  -0.643877  0  2.171964  0
O  O47  1  0.26362315  0.07737287  0.07116174  1  0  -0.698644  0  1.930262  0  0  -0.658509  0  2.163589  0  0  -0.679297  0  2.150743  0  0  -0.443231  -0.643947  0  2.172016  0
