# generated using pymatgen
data_Zn4H18C43N4(O8F5)2
_symmetry_space_group_name_H-M   'P 1'
_cell_length_a   9.71305685
_cell_length_b   11.06877314
_cell_length_c   22.09994093
_cell_angle_alpha   89.93964943
_cell_angle_beta   88.76674818
_cell_angle_gamma   89.54234434
_symmetry_Int_Tables_number   1
_chemical_formula_structural   Zn4H18C43N4(O8F5)2
_chemical_formula_sum   'Zn4 H18 C43 N4 O16 F10'
_cell_volume   2375.37343601
_cell_formula_units_Z   1
loop_
 _symmetry_equiv_pos_site_id
 _symmetry_equiv_pos_as_xyz
  1  'x, y, z'
loop_
 _atom_site_type_symbol
 _atom_site_label
 _atom_site_symmetry_multiplicity
 _atom_site_fract_x
 _atom_site_fract_y
 _atom_site_fract_z
 _atom_site_occupancy
 _atom_site_pbe_bader_charge
 _atom_site_pbe_bader_spin_density
 _atom_site_pbe_cm5_charge
 _atom_site_pbe_ddec_charge
 _atom_site_pbe_ddec_spin_density
 _atom_site_pbe_ddec_sum_bond_order
 _atom_site_pbe_magmom
Zn  Zn0  1  0.63933764  0.49768237  0.50229539  1  1.27941  0  0.669386  0.82946  0  2.419651  0
Zn  Zn1  1  0.35870860  0.50864218  0.49961173  1  1.285634  0  0.669308  0.827267  0  2.417416  0
Zn  Zn2  1  0.36122967  0.49805310  0.00347925  1  1.296979  0  0.670364  0.833448  0  2.431897  0
Zn  Zn3  1  0.64302333  0.50404870  0.99902183  1  1.293792  0  0.667117  0.828308  0  2.412574  0
H  H4  1  0.14545381  0.33814744  0.46449642  1  0.18221  0  0.147195  0.157284  0  0.967255  0
H  H5  1  0.85122722  0.67266697  0.53622859  1  0.208917  0  0.14719  0.157095  0  0.970828  0
H  H6  1  0.28045492  0.87746488  0.49884879  1  0.143833  0  0.112781  0.142402  0  0.998354  0
H  H7  1  0.69941966  0.12882552  0.50258906  1  0.140754  0  0.115124  0.14553  0  0.992175  0
H  H8  1  0.27861693  0.48408080  0.81003656  1  0.097636  0  0.097416  0.104583  0  1.017176  0
H  H9  1  0.81340191  0.59592471  0.80387306  1  0.05232  0  0.09208  0.100064  0  0.992297  0
H  H10  1  0.82617700  0.43497826  0.80329088  1  0.052141  0  0.092958  0.101986  0  0.986487  0
H  H11  1  0.82217358  0.43615217  0.68935628  1  0.045435  0  0.092708  0.102849  0  0.988157  0
H  H12  1  0.80859263  0.59701996  0.68994039  1  0.042295  0  0.09217  0.099786  0  0.987655  0
H  H13  1  0.73720228  0.49760886  0.19229149  1  0.137383  0  0.116009  0.14518  0  0.982682  0
H  H14  1  0.29808261  0.50113687  0.31029042  1  0.133743  0  0.116163  0.145351  0  0.982372  0
H  H15  1  0.85667548  0.33898882  0.04385840  1  0.200142  0  0.149162  0.158487  0  0.958263  0
H  H16  1  0.14750913  0.66042511  0.95949090  1  0.187783  0  0.148956  0.158379  0  0.958962  0
H  H17  1  0.70591805  0.87379378  0.00367997  1  0.158159  0  0.115115  0.145469  0  0.990044  0
H  H18  1  0.28502494  0.12846028  0.99959081  1  0.135721  0  0.11408  0.143629  0  0.993322  0
H  H19  1  0.20292486  0.55745838  0.66611140  1  0.081157  0  0.087553  0.128966  0  1.007618  0
H  H20  1  0.22902674  0.40051903  0.66025224  1  0.05824  0  0.091785  0.135207  0  0.990255  0
H  H21  1  0.15106460  0.46170386  0.72747153  1  0.037368  0  0.086187  0.119145  0  1.008636  0
C  C22  1  0.50613151  0.73895651  0.49974236  1  1.597219  0  0.21907  0.616964  0  4.152132  0
C  C23  1  0.50232363  0.50181122  0.61832293  1  1.514435  0  0.217125  0.607775  0  4.153203  0
C  C24  1  0.47455466  0.26729424  0.50192834  1  1.589628  0  0.218795  0.61588  0  4.154304  0
C  C25  1  0.51202142  0.49868176  0.38365369  1  1.58616  0  0.217952  0.615474  0  4.150434  0
C  C26  1  0.48141661  0.73714654  0.00263172  1  1.549067  0  0.218921  0.615987  0  4.151235  0
C  C27  1  0.49668880  0.50139407  0.88363940  1  1.551264  0  0.216797  0.604983  0  4.15725  0
C  C28  1  0.50870055  0.26510432  0.00121502  1  1.634918  0  0.21849  0.615428  0  4.154199  0
C  C29  1  0.52101998  0.49987732  0.11887291  1  1.570216  0  0.217561  0.614545  0  4.154333  0
C  C30  1  0.93664124  0.40919806  0.47891750  1  1.190249  0  0.260748  0.390127  0  4.049557  0
C  C31  1  0.06048166  0.60195681  0.52144288  1  1.096324  0  0.257442  0.385374  0  4.050601  0
C  C32  1  0.07982763  0.41306488  0.47957615  1  0.557462  0  0.080836  -0.020706  0  3.828319  0
C  C33  1  0.91726989  0.59819050  0.52074549  1  0.616067  0  0.080152  -0.0262  0  3.83388  0
C  C34  1  0.47816120  0.13158482  0.50220950  1  0.074601  0  -0.015967  -0.106736  0  3.948337  0
C  C35  1  0.50163969  0.87459465  0.50125549  1  0.07209  0  -0.014754  -0.104564  0  3.948257  0
C  C36  1  0.36181298  0.05734303  0.50132708  1  0.474026  0  0.100859  0.265369  0  4.040432  0
C  C37  1  0.61793028  0.94885359  0.50269707  1  0.46859  0  0.100985  0.265604  0  4.043567  0
C  C38  1  0.37269490  0.93244601  0.50048457  1  -0.037594  0  -0.089652  -0.199443  0  3.972304  0
C  C39  1  0.60715602  0.07367474  0.50268328  1  -0.041394  0  -0.089292  -0.19925  0  3.971284  0
C  C40  1  0.49772214  0.49872716  0.81623180  1  -0.032129  0  -0.015341  -0.066003  0  3.99518  0
C  C41  1  0.49452538  0.49819710  0.68571908  1  0.011798  0  -0.014758  -0.137626  0  3.913654  0
C  C42  1  0.61854905  0.50435427  0.78137150  1  0.044833  0  -0.009118  0.055086  0  3.898851  0
C  C43  1  0.36946383  0.48931124  0.72044277  1  0.08288  0  0.001031  0.161996  0  3.922753  0
C  C44  1  0.61584686  0.50430402  0.71832813  1  -0.139639  0  -0.006159  0.063267  0  3.90473  0
C  C45  1  0.37480194  0.49041300  0.78386148  1  -0.081557  0  -0.091092  -0.172297  0  3.944644  0
C  C46  1  0.77403926  0.51325001  0.78313490  1  0.010184  0  -0.15547  -0.198951  0  3.897194  0
C  C47  1  0.77127941  0.51367669  0.71161376  1  -0.036967  0  -0.155256  -0.197585  0  3.89554  0
C  C48  1  0.51864598  0.49821241  0.31579100  1  0.013212  0  -0.015634  -0.104985  0  3.952366  0
C  C49  1  0.51633132  0.49990559  0.18677598  1  0.009331  0  -0.01542  -0.105284  0  3.950912  0
C  C50  1  0.64123026  0.49703936  0.28079440  1  0.518916  0  0.102027  0.267688  0  4.039096  0
C  C51  1  0.39383626  0.50110433  0.22183050  1  0.508591  0  0.102837  0.268742  0  4.041792  0
C  C52  1  0.64041124  0.49809932  0.21807059  1  -0.005316  0  -0.091139  -0.205397  0  3.982032  0
C  C53  1  0.39477414  0.50016973  0.28450577  1  0.004478  0  -0.090895  -0.203669  0  3.984609  0
C  C54  1  0.06471336  0.41009701  0.02992584  1  1.148849  0  0.259506  0.389321  0  4.049222  0
C  C55  1  0.93977575  0.58883474  0.97307188  1  1.126373  0  0.257661  0.384384  0  4.055359  0
C  C56  1  0.92182265  0.41053073  0.02544045  1  0.574  0  0.080686  -0.022317  0  3.829378  0
C  C57  1  0.08249529  0.58861984  0.97766143  1  0.624029  0  0.081132  -0.020178  0  3.833478  0
C  C58  1  0.50608435  0.12950913  0.00206906  1  -0.032206  0  -0.015491  -0.104965  0  3.95102  0
C  C59  1  0.48473289  0.87273196  0.00234735  1  0.065858  0  -0.015825  -0.105658  0  3.948467  0
C  C60  1  0.62307495  0.05441230  0.00336586  1  0.364879  0  0.101724  0.266005  0  4.044495  0
C  C61  1  0.36772650  0.94787744  0.00110269  1  0.446446  0  0.101439  0.265951  0  4.042199  0
C  C62  1  0.61320578  0.92961178  0.00325864  1  0.060541  0  -0.090004  -0.201037  0  3.974354  0
C  C63  1  0.37765435  0.07262198  0.00089282  1  0.088124  0  -0.089795  -0.200213  0  3.976372  0
C  C64  1  0.23038440  0.47656810  0.69216989  1  -0.121468  0  -0.242779  -0.407958  0  3.982645  0
N  N65  1  0.85684075  0.49895016  0.49921409  1  -1.215434  0  -0.283912  -0.210365  0  3.482036  0
N  N66  1  0.14045143  0.51205723  0.50130056  1  -1.205892  0  -0.285829  -0.216895  0  3.476414  0
N  N67  1  0.14354974  0.49662878  0.00653562  1  -1.214176  0  -0.284989  -0.214193  0  3.475797  0
N  N68  1  0.86086499  0.50244857  0.99648789  1  -1.23185  0  -0.285579  -0.213693  0  3.485033  0
O  O69  1  0.61787047  0.68495149  0.51244970  1  -1.156489  0  -0.314291  -0.551824  0  2.324984  0
O  O70  1  0.39388931  0.68821513  0.48582353  1  -1.159158  0  -0.320066  -0.549778  0  2.338289  0
O  O71  1  0.39271117  0.52539261  0.58954915  1  -1.165722  0  -0.313725  -0.548092  0  2.364221  0
O  O72  1  0.62080776  0.48237553  0.59371531  1  -1.148264  0  -0.318749  -0.541654  0  2.303691  0
O  O73  1  0.35916021  0.32141587  0.50891853  1  -1.153357  0  -0.316978  -0.552464  0  2.323811  0
O  O74  1  0.59069281  0.31807799  0.49467779  1  -1.169103  0  -0.316129  -0.551401  0  2.359974  0
O  O75  1  0.62303831  0.51797637  0.41138264  1  -1.137438  0  -0.317117  -0.542127  0  2.342962  0
O  O76  1  0.39402997  0.48068008  0.40836256  1  -1.168232  0  -0.319861  -0.546714  0  2.297578  0
O  O77  1  0.36559596  0.68503248  0.00794786  1  -1.158112  0  -0.315165  -0.546298  0  2.324461  0
O  O78  1  0.59824320  0.68464186  0.99772607  1  -1.155464  0  -0.317054  -0.551387  0  2.354035  0
O  O79  1  0.61353639  0.49021018  0.90868999  1  -1.145559  0  -0.31827  -0.545055  0  2.311685  0
O  O80  1  0.38094401  0.51497980  0.91130023  1  -1.162889  0  -0.323077  -0.554031  0  2.314086  0
O  O81  1  0.62282717  0.31828540  0.00851784  1  -1.15685  0  -0.315558  -0.55242  0  2.331922  0
O  O82  1  0.39291733  0.31662798  0.99318272  1  -1.157863  0  -0.317936  -0.547316  0  2.34797  0
O  O83  1  0.40725697  0.48700132  0.09227266  1  -1.151466  0  -0.316409  -0.547518  0  2.367236  0
O  O84  1  0.63867421  0.51188532  0.09301814  1  -1.164107  0  -0.321222  -0.546087  0  2.283006  0
F  F85  1  0.87490942  0.31169788  0.45729404  1  -0.607103  0  -0.049107  -0.100487  0  1.360379  0
F  F86  1  0.12222258  0.69903972  0.54377747  1  -0.609971  0  -0.050721  -0.105589  0  1.36044  0
F  F87  1  0.23245283  0.10572265  0.50017314  1  -0.628264  0  -0.109716  -0.150958  0  1.338505  0
F  F88  1  0.74729197  0.90034074  0.50296357  1  -0.628505  0  -0.109641  -0.15119  0  1.338126  0
F  F89  1  0.76628784  0.49349283  0.30722686  1  -0.623258  0  -0.110106  -0.146391  0  1.340753  0
F  F90  1  0.26852075  0.50422130  0.19575218  1  -0.621918  0  -0.108088  -0.143256  0  1.347776  0
F  F91  1  0.12707908  0.32001949  0.05890920  1  -0.609903  0  -0.049844  -0.101499  0  1.353983  0
F  F92  1  0.87722952  0.67877440  0.94389845  1  -0.609752  0  -0.052149  -0.106038  0  1.35524  0
F  F93  1  0.75195998  0.10180122  0.00419524  1  -0.626977  0  -0.110269  -0.150626  0  1.339564  0
F  F94  1  0.23886433  0.90070749  0.99922017  1  -0.625346  0  -0.109188  -0.149455  0  1.340594  0
