# generated using pymatgen
data_DyH9(CO2)4
_symmetry_space_group_name_H-M   'P 1'
_cell_length_a   6.73818367
_cell_length_b   10.63922466
_cell_length_c   11.14249509
_cell_angle_alpha   84.28224373
_cell_angle_beta   88.34513522
_cell_angle_gamma   90.00796058
_symmetry_Int_Tables_number   1
_chemical_formula_structural   DyH9(CO2)4
_chemical_formula_sum   'Dy4 H36 C16 O32'
_cell_volume   794.48551960
_cell_formula_units_Z   4
loop_
 _symmetry_equiv_pos_site_id
 _symmetry_equiv_pos_as_xyz
  1  'x, y, z'
loop_
 _atom_site_type_symbol
 _atom_site_label
 _atom_site_symmetry_multiplicity
 _atom_site_fract_x
 _atom_site_fract_y
 _atom_site_fract_z
 _atom_site_occupancy
 _atom_site_hle17_bader_spin_density
 _atom_site_hle17_ddec_charge
 _atom_site_hle17_ddec_spin_density
 _atom_site_hle17_ddec_sum_bond_order
 _atom_site_hle17_magmom
 _atom_site_hse06_10hf_bader_spin_density
 _atom_site_hse06_10hf_ddec_charge
 _atom_site_hse06_10hf_ddec_spin_density
 _atom_site_hse06_10hf_ddec_sum_bond_order
 _atom_site_hse06_10hf_magmom
 _atom_site_hse06_bader_spin_density
 _atom_site_hse06_ddec_charge
 _atom_site_hse06_ddec_spin_density
 _atom_site_hse06_ddec_sum_bond_order
 _atom_site_hse06_magmom
 _atom_site_pbe_bader_spin_density
 _atom_site_pbe_cm5_charge
 _atom_site_pbe_ddec_charge
 _atom_site_pbe_ddec_spin_density
 _atom_site_pbe_ddec_sum_bond_order
 _atom_site_pbe_magmom
Dy  Dy0  1  0.48254135  0.84486829  0.59421884  1  0  2.289817  0  1.666316  0  0  2.148813  0  2.129273  0  0  2.268829  0  1.95045  0  0  1.481758  2.114168  0  2.160849  0
Dy  Dy1  1  0.51746070  0.15513289  0.40578086  1  0  2.289846  0  1.666308  0  0  2.148825  0  2.129292  0  0  2.268855  0  1.95044  0  0  1.481792  2.114173  0  2.160892  0
Dy  Dy2  1  0.00253887  0.84958019  0.10153731  1  0  2.303738  0  1.66719  0  0  2.164575  0  2.129689  0  0  2.281794  0  1.954318  0  0  1.480516  2.130044  0  2.162337  0
Dy  Dy3  1  0.99746168  0.15041816  0.89846268  1  0  2.303747  0  1.667128  0  0  2.164554  0  2.129654  0  0  2.281796  0  1.954254  0  0  1.480507  2.13006  0  2.162237  0
H  H4  1  0.01360710  0.71945850  0.45099187  1  0  0.122466  0  0.941473  0  0  0.128907  0  1.007826  0  0  0.132651  0  1.003895  0  0  0.122819  0.126496  0  1.010169  0
H  H5  1  0.98639347  0.28053890  0.54900551  1  0  0.122417  0  0.941546  0  0  0.128898  0  1.007855  0  0  0.132641  0  1.003921  0  0  0.122821  0.126486  0  1.010202  0
H  H6  1  0.98741680  0.61278769  0.58512789  1  0  0.101641  0  0.907603  0  0  0.111195  0  0.970329  0  0  0.114093  0  0.967451  0  0  0.11343  0.109255  0  0.97222  0
H  H7  1  0.01257931  0.38721159  0.41486938  1  0  0.10162  0  0.907511  0  0  0.111145  0  0.970276  0  0  0.114038  0  0.967397  0  0  0.11342  0.10921  0  0.972157  0
H  H8  1  0.71128522  0.51917971  0.44275863  1  0  0.093561  0  0.935355  0  0  0.103901  0  0.999545  0  0  0.106354  0  0.997145  0  0  0.11291  0.102296  0  1.000973  0
H  H9  1  0.28871238  0.48082147  0.55724024  1  0  0.093524  0  0.935435  0  0  0.103871  0  0.999596  0  0  0.10633  0  0.997197  0  0  0.112919  0.102269  0  1.001021  0
H  H10  1  0.76028264  0.65511279  0.33978226  1  0  0.107124  0  0.94556  0  0  0.11696  0  1.009161  0  0  0.119636  0  1.007328  0  0  0.118095  0.114993  0  1.010809  0
H  H11  1  0.23971050  0.34488839  0.66021668  1  0  0.107151  0  0.945489  0  0  0.11697  0  1.009102  0  0  0.119651  0  1.007271  0  0  0.118074  0.115005  0  1.010752  0
H  H12  1  0.33510681  0.84064508  0.85311533  1  0  0.429444  0  0.860778  0  0  0.400625  0  0.926398  0  0  0.41091  0  0.91149  0  0  0.307939  0.393307  0  0.937314  0
H  H13  1  0.66489522  0.15935137  0.14688481  1  0  0.429459  0  0.860768  0  0  0.400654  0  0.92635  0  0  0.410937  0  0.911443  0  0  0.307962  0.393341  0  0.937259  0
H  H14  1  0.40352196  0.98117675  0.81908692  1  0  0.424309  0  0.876002  0  0  0.393999  0  0.940973  0  0  0.405493  0  0.924138  0  0  0.306873  0.385906  0  0.953074  0
H  H15  1  0.59648006  0.01881971  0.18091502  1  0  0.424287  0  0.876008  0  0  0.393993  0  0.940967  0  0  0.405485  0  0.924133  0  0  0.306872  0.3859  0  0.953069  0
H  H16  1  0.52670512  0.57185723  0.70075740  1  0  0.428165  0  0.87998  0  0  0.394158  0  0.949531  0  0  0.4057  0  0.932875  0  0  0.289289  0.386205  0  0.961095  0
H  H17  1  0.47328800  0.42814489  0.29924503  1  0  0.428209  0  0.879946  0  0  0.394188  0  0.949508  0  0  0.405731  0  0.932852  0  0  0.289302  0.386242  0  0.961062  0
H  H18  1  0.43869500  0.10002627  0.65962788  1  0  0.42243  0  0.882601  0  0  0.39674  0  0.939319  0  0  0.406562  0  0.925331  0  0  0.290614  0.389861  0  0.949474  0
H  H19  1  0.56130407  0.89997491  0.34037186  1  0  0.422396  0  0.882661  0  0  0.396705  0  0.939381  0  0  0.406525  0  0.925396  0  0  0.290583  0.389825  0  0.949538  0
H  H20  1  0.33574959  0.62825048  0.76374703  1  0  0.425234  0  0.88473  0  0  0.391241  0  0.953746  0  0  0.403312  0  0.93637  0  0  0.288626  0.382843  0  0.965947  0
H  H21  1  0.66424206  0.37174975  0.23625202  1  0  0.425215  0  0.884746  0  0  0.391219  0  0.95377  0  0  0.403287  0  0.936399  0  0  0.288621  0.382819  0  0.965974  0
H  H22  1  0.73465259  0.65601333  0.84999068  1  0  0.115028  0  0.92992  0  0  0.12711  0  0.988464  0  0  0.129989  0  0.986078  0  0  0.12138  0.125126  0  0.990189  0
H  H23  1  0.26534796  0.34398974  0.15000975  1  0  0.115014  0  0.929916  0  0  0.127074  0  0.988472  0  0  0.129954  0  0.986081  0  0  0.121355  0.125088  0  0.990195  0
H  H24  1  0.80292749  0.52327675  0.95068598  1  0  0.089601  0  0.930145  0  0  0.099301  0  0.99606  0  0  0.101489  0  0.994054  0  0  0.111386  0.097794  0  0.99735  0
H  H25  1  0.19707159  0.47672632  0.04931358  1  0  0.089565  0  0.930173  0  0  0.099244  0  0.996103  0  0  0.101431  0  0.994087  0  0  0.111355  0.097738  0  0.997392  0
H  H26  1  0.52282781  0.59981929  0.10971445  1  0  0.102376  0  0.914418  0  0  0.112063  0  0.976877  0  0  0.114838  0  0.974304  0  0  0.114049  0.110173  0  0.978524  0
H  H27  1  0.47717718  0.40018096  0.89028709  1  0  0.102369  0  0.914416  0  0  0.112055  0  0.976873  0  0  0.11483  0  0.974301  0  0  0.114039  0.110166  0  0.978517  0
H  H28  1  0.47695725  0.70096024  0.97529962  1  0  0.104249  0  0.952052  0  0  0.112298  0  1.018801  0  0  0.115238  0  1.015897  0  0  0.118455  0.110389  0  1.020511  0
H  H29  1  0.52304181  0.29903905  0.02470209  1  0  0.104227  0  0.952049  0  0  0.112272  0  1.018807  0  0  0.115213  0  1.015903  0  0  0.118441  0.110365  0  1.020519  0
H  H30  1  0.85822545  0.93610339  0.33816670  1  0  0.44187  0  0.840423  0  0  0.412445  0  0.90971  0  0  0.423662  0  0.893328  0  0  0.308398  0.404723  0  0.92118  0
H  H31  1  0.14177659  0.06389590  0.66183227  1  0  0.441821  0  0.84047  0  0  0.412401  0  0.909769  0  0  0.423616  0  0.893389  0  0  0.308374  0.404675  0  0.921245  0
H  H32  1  0.97811962  0.56386880  0.20059014  1  0  0.427512  0  0.876889  0  0  0.395136  0  0.943443  0  0  0.40637  0  0.927139  0  0  0.291714  0.387487  0  0.954599  0
H  H33  1  0.02188242  0.43612766  0.79940731  1  0  0.427498  0  0.876896  0  0  0.395121  0  0.943452  0  0  0.406356  0  0.927148  0  0  0.2917  0.38747  0  0.954611  0
H  H34  1  0.26878075  0.06064119  0.09044659  1  0  0.441194  0  0.843347  0  0  0.417532  0  0.895167  0  0  0.427162  0  0.881347  0  0  0.294472  0.411018  0  0.904756  0
H  H35  1  0.73121683  0.93935526  0.90955363  1  0  0.44116  0  0.843396  0  0  0.417494  0  0.895224  0  0  0.427126  0  0.881399  0  0  0.294453  0.410979  0  0.904814  0
H  H36  1  0.16359756  0.62357209  0.26009669  1  0  0.436095  0  0.862564  0  0  0.403211  0  0.92928  0  0  0.415165  0  0.911976  0  0  0.292596  0.394971  0  0.941277  0
H  H37  1  0.83640300  0.37642437  0.73990078  1  0  0.436088  0  0.862561  0  0  0.403198  0  0.9293  0  0  0.415155  0  0.91199  0  0  0.292584  0.394956  0  0.941297  0
H  H38  1  0.07289428  0.99149135  0.31205874  1  0  0.442285  0  0.851911  0  0  0.412055  0  0.914163  0  0  0.424213  0  0.89642  0  0  0.308612  0.403621  0  0.926608  0
H  H39  1  0.92710924  0.00850700  0.68794120  1  0  0.442279  0  0.851921  0  0  0.412057  0  0.914161  0  0  0.424213  0  0.896419  0  0  0.308625  0.403623  0  0.926606  0
C  C40  1  0.96645606  0.80919339  0.61179855  1  0  0.746793  0  3.803046  0  0  0.698035  0  4.099071  0  0  0.733227  0  4.0914  0  0  0.242313  0.674493  0  4.105844  0
C  C41  1  0.03355044  0.19080685  0.38820116  1  0  0.746889  0  3.80275  0  0  0.698101  0  4.098817  0  0  0.733291  0  4.091149  0  0  0.242369  0.674565  0  4.105582  0
C  C42  1  0.93037503  0.70049666  0.53729778  1  0  -0.089406  0  3.61834  0  0  -0.140935  0  3.874958  0  0  -0.139379  0  3.876137  0  0  -0.064545  -0.142209  0  3.875501  0
C  C43  1  0.06962553  0.29950169  0.46270131  1  0  -0.089347  0  3.618312  0  0  -0.140897  0  3.874959  0  0  -0.139323  0  3.87611  0  0  -0.064555  -0.142172  0  3.875499  0
C  C44  1  0.67437929  0.61970396  0.42184498  1  0  -0.08422  0  3.626993  0  0  -0.136578  0  3.884189  0  0  -0.134189  0  3.885675  0  0  -0.069445  -0.138184  0  3.884249  0
C  C45  1  0.32561830  0.38029722  0.57815388  1  0  -0.084247  0  3.62705  0  0  -0.136582  0  3.884179  0  0  -0.134219  0  3.885702  0  0  -0.069452  -0.138187  0  3.884248  0
C  C46  1  0.45416028  0.63515266  0.39904930  1  0  0.694771  0  3.862438  0  0  0.63954  0  4.174657  0  0  0.672951  0  4.167719  0  0  0.218772  0.617073  0  4.179897  0
C  C47  1  0.54583285  0.36485040  0.60095215  1  0  0.694867  0  3.862335  0  0  0.639664  0  4.174495  0  0  0.673084  0  4.167555  0  0  0.21882  0.617168  0  4.179771  0
C  C48  1  0.04265715  0.65136719  0.89330270  1  0  0.701764  0  3.839918  0  0  0.643411  0  4.154229  0  0  0.676989  0  4.147302  0  0  0.226234  0.620747  0  4.159595  0
C  C49  1  0.95734191  0.34863494  0.10669964  1  0  0.70184  0  3.839913  0  0  0.643469  0  4.154218  0  0  0.677044  0  4.147294  0  0  0.226298  0.620804  0  4.15959  0
C  C50  1  0.82625124  0.62555478  0.92820249  1  0  -0.078766  0  3.629752  0  0  -0.130799  0  3.887648  0  0  -0.128568  0  3.88949  0  0  -0.064087  -0.132316  0  3.887582  0
C  C51  1  0.17374933  0.37444924  0.07179606  1  0  -0.078748  0  3.629786  0  0  -0.130686  0  3.887546  0  0  -0.128451  0  3.889406  0  0  -0.064047  -0.132197  0  3.887468  0
C  C52  1  0.56418590  0.69001510  0.05737822  1  0  -0.080385  0  3.610766  0  0  -0.132974  0  3.868632  0  0  -0.130977  0  3.869865  0  0  -0.06259  -0.134327  0  3.868698  0
C  C53  1  0.43581316  0.30998514  0.94262341  1  0  -0.080366  0  3.610801  0  0  -0.132953  0  3.868682  0  0  -0.130958  0  3.869914  0  0  -0.0626  -0.134309  0  3.868759  0
C  C54  1  0.51597111  0.79630531  0.13447701  1  0  0.732819  0  3.822276  0  0  0.680369  0  4.123776  0  0  0.715702  0  4.114983  0  0  0.236423  0.656843  0  4.130665  0
C  C55  1  0.48402795  0.20369587  0.86552363  1  0  0.732759  0  3.822379  0  0  0.680299  0  4.123876  0  0  0.715639  0  4.11508  0  0  0.23637  0.656763  0  4.130784  0
O  O56  1  0.81596526  0.87103002  0.64712578  1  0  -0.717028  0  1.990875  0  0  -0.657611  0  2.230028  0  0  -0.693172  0  2.213886  0  0  -0.369613  -0.639257  0  2.23782  0
O  O57  1  0.18404272  0.12897116  0.35287382  1  0  -0.717048  0  1.990835  0  0  -0.657596  0  2.229988  0  0  -0.69316  0  2.213846  0  0  -0.369662  -0.639243  0  2.237781  0
O  O58  1  0.14259256  0.83475135  0.63520177  1  0  -0.724996  0  2.05674  0  0  -0.672442  0  2.316158  0  0  -0.708342  0  2.300231  0  0  -0.391347  -0.654241  0  2.323235  0
O  O59  1  0.85740947  0.16524605  0.36479918  1  0  -0.725082  0  2.056433  0  0  -0.672513  0  2.315849  0  0  -0.708419  0  2.299923  0  0  -0.391366  -0.654309  0  2.322922  0
O  O60  1  0.72239665  0.69059048  0.51923127  1  0  -0.346306  0  2.491229  0  0  -0.272106  0  2.738745  0  0  -0.295488  0  2.744106  0  0  -0.26968  -0.260792  0  2.735443  0
O  O61  1  0.27760094  0.30941070  0.48076760  1  0  -0.3463  0  2.491269  0  0  -0.272078  0  2.738736  0  0  -0.295463  0  2.744107  0  0  -0.269667  -0.260762  0  2.735435  0
O  O62  1  0.35875178  0.71486648  0.45475088  1  0  -0.703955  0  2.060558  0  0  -0.655416  0  2.322739  0  0  -0.689061  0  2.309849  0  0  -0.380917  -0.638573  0  2.329345  0
O  O63  1  0.64124582  0.28513470  0.54524708  1  0  -0.703978  0  2.060323  0  0  -0.655472  0  2.322503  0  0  -0.689115  0  2.309601  0  0  -0.380946  -0.638626  0  2.329144  0
O  O64  1  0.37915544  0.56796094  0.32351794  1  0  -0.635079  0  1.99332  0  0  -0.564163  0  2.205829  0  0  -0.590772  0  2.195797  0  0  -0.303529  -0.545118  0  2.211306  0
O  O65  1  0.62083918  0.43203834  0.67648205  1  0  -0.635131  0  1.993467  0  0  -0.564231  0  2.205969  0  0  -0.59084  0  2.19593  0  0  -0.303536  -0.545151  0  2.211435  0
O  O66  1  0.41869885  0.05510239  0.58873255  1  0  -1.187083  0  1.763619  0  0  -1.125761  0  1.995994  0  0  -1.174744  0  1.959563  0  0  -0.788766  -1.106642  0  2.014015  0
O  O67  1  0.58129727  0.94489973  0.41126535  1  0  -1.187043  0  1.763655  0  0  -1.125702  0  1.996006  0  0  -1.17469  0  1.959575  0  0  -0.788729  -1.106582  0  2.014022  0
O  O68  1  0.46803894  0.65275159  0.72412229  1  0  -0.952852  0  1.902298  0  0  -0.908695  0  2.117893  0  0  -0.938885  0  2.079187  0  0  -0.661898  -0.894364  0  2.141099  0
O  O69  1  0.53195716  0.34724865  0.27587758  1  0  -0.952881  0  1.902297  0  0  -0.908704  0  2.117917  0  0  -0.938896  0  2.079214  0  0  -0.661907  -0.894369  0  2.141114  0
O  O70  1  0.44400663  0.89249762  0.81262621  1  0  -0.87025  0  1.828924  0  0  -0.820684  0  2.01519  0  0  -0.846517  0  1.977219  0  0  -0.604532  -0.807994  0  2.03815  0
O  O71  1  0.55599541  0.10750356  0.18737258  1  0  -0.870262  0  1.828944  0  0  -0.820698  0  2.015194  0  0  -0.84653  0  1.977227  0  0  -0.604562  -0.80801  0  2.038155  0
O  O72  1  0.66298198  0.85234498  0.17758499  1  0  -0.743944  0  2.068953  0  0  -0.674371  0  2.305437  0  0  -0.709346  0  2.291284  0  0  -0.367022  -0.65531  0  2.312962  0
O  O73  1  0.33701857  0.14765714  0.82241733  1  0  -0.74391  0  2.06903  0  0  -0.674313  0  2.305501  0  0  -0.709306  0  2.291359  0  0  -0.366975  -0.65525  0  2.313025  0
O  O74  1  0.33823521  0.82314983  0.15484601  1  0  -0.682229  0  2.036148  0  0  -0.62818  0  2.291813  0  0  -0.662111  0  2.277082  0  0  -0.371253  -0.610479  0  2.298505  0
O  O75  1  0.66176534  0.17685324  0.84515532  1  0  -0.682188  0  2.036114  0  0  -0.628118  0  2.291748  0  0  -0.662049  0  2.277012  0  0  -0.371222  -0.610414  0  2.29844  0
O  O76  1  0.77204174  0.69327319  0.02790398  1  0  -0.342394  0  2.485714  0  0  -0.267696  0  2.732397  0  0  -0.290768  0  2.737341  0  0  -0.267967  -0.256445  0  2.729301  0
O  O77  1  0.22796030  0.30672894  0.97209563  1  0  -0.342437  0  2.485812  0  0  -0.267778  0  2.732496  0  0  -0.290848  0  2.737435  0  0  -0.267987  -0.256534  0  2.729405  0
O  O78  1  0.13200604  0.74079835  0.93763894  1  0  -0.723447  0  2.057136  0  0  -0.668581  0  2.314383  0  0  -0.702291  0  2.299864  0  0  -0.362937  -0.651674  0  2.322774  0
O  O79  1  0.86799746  0.25920095  0.06236361  1  0  -0.723546  0  2.057218  0  0  -0.668684  0  2.314475  0  0  -0.702395  0  2.299955  0  0  -0.362987  -0.651784  0  2.322872  0
O  O80  1  0.12045939  0.58111292  0.81944811  1  0  -0.620099  0  1.994762  0  0  -0.549326  0  2.207822  0  0  -0.575921  0  2.197892  0  0  -0.29607  -0.530333  0  2.213264  0
O  O81  1  0.87954265  0.41888637  0.18055086  1  0  -0.620007  0  1.994716  0  0  -0.549245  0  2.207799  0  0  -0.575835  0  2.197865  0  0  -0.296044  -0.530253  0  2.213244  0
O  O82  1  0.15234095  0.03546353  0.04892350  1  0  -1.192949  0  1.748328  0  0  -1.137747  0  1.986773  0  0  -1.185769  0  1.949447  0  0  -0.814645  -1.118795  0  2.004283  0
O  O83  1  0.84766108  0.96453482  0.95107736  1  0  -1.192946  0  1.748381  0  0  -1.137745  0  1.98684  0  0  -1.185766  0  1.949511  0  0  -0.814621  -1.118796  0  2.004345  0
O  O84  1  0.03923931  0.64570964  0.21588386  1  0  -0.948548  0  1.900304  0  0  -0.906478  0  2.112149  0  0  -0.935467  0  2.073615  0  0  -0.649953  -0.892612  0  2.13507  0
O  O85  1  0.96076573  0.35428871  0.78411067  1  0  -0.948512  0  1.900363  0  0  -0.906444  0  2.112166  0  0  -0.935433  0  2.073628  0  0  -0.649936  -0.892586  0  2.135088  0
O  O86  1  0.98705109  0.91817511  0.29875525  1  0  -0.900331  0  1.835889  0  0  -0.85309  0  2.034744  0  0  -0.880569  0  1.993255  0  0  -0.636867  -0.840196  0  2.05887  0
O  O87  1  0.01295244  0.08182324  0.70124380  1  0  -0.900284  0  1.835912  0  0  -0.853019  0  2.034732  0  0  -0.880522  0  1.993292  0  0  -0.636862  -0.840127  0  2.058856  0
