# generated using pymatgen
data_ZnH20C20(NO3)2
_symmetry_space_group_name_H-M   'P 1'
_cell_length_a   7.21947093
_cell_length_b   11.28410513
_cell_length_c   11.37122368
_cell_angle_alpha   90.41170920
_cell_angle_beta   96.69158582
_cell_angle_gamma   106.00234488
_symmetry_Int_Tables_number   1
_chemical_formula_structural   ZnH20C20(NO3)2
_chemical_formula_sum   'Zn2 H40 C40 N4 O12'
_cell_volume   883.64772150
_cell_formula_units_Z   2
loop_
 _symmetry_equiv_pos_site_id
 _symmetry_equiv_pos_as_xyz
  1  'x, y, z'
loop_
 _atom_site_type_symbol
 _atom_site_label
 _atom_site_symmetry_multiplicity
 _atom_site_fract_x
 _atom_site_fract_y
 _atom_site_fract_z
 _atom_site_occupancy
 _atom_site_hle17_bader_spin_density
 _atom_site_hle17_ddec_charge
 _atom_site_hle17_ddec_spin_density
 _atom_site_hle17_ddec_sum_bond_order
 _atom_site_hle17_magmom
 _atom_site_hse06_10hf_bader_spin_density
 _atom_site_hse06_10hf_ddec_charge
 _atom_site_hse06_10hf_ddec_spin_density
 _atom_site_hse06_10hf_ddec_sum_bond_order
 _atom_site_hse06_10hf_magmom
 _atom_site_hse06_bader_spin_density
 _atom_site_hse06_ddec_charge
 _atom_site_hse06_ddec_spin_density
 _atom_site_hse06_ddec_sum_bond_order
 _atom_site_hse06_magmom
 _atom_site_pbe_bader_spin_density
 _atom_site_pbe_cm5_charge
 _atom_site_pbe_ddec_charge
 _atom_site_pbe_ddec_spin_density
 _atom_site_pbe_ddec_sum_bond_order
 _atom_site_pbe_magmom
Zn  Zn0  1  0.75456897  0.25030135  0.32172076  1  0  1.061267  0  1.781507  0  0  0.885249  0  2.21907  0  0  0.932396  0  2.166556  0  0  0.675162  0.852237  0  2.255006  0
Zn  Zn1  1  0.24543503  0.74970096  0.67827946  1  0  1.061218  0  1.781587  0  0  0.885203  0  2.21915  0  0  0.932343  0  2.166644  0  0  0.675149  0.852202  0  2.255077  0
H  H2  1  0.00530019  0.85907726  0.39312807  1  0  0.109525  0  0.951744  0  0  0.122595  0  1.015766  0  0  0.12342  0  1.017677  0  0  0.098303  0.122003  0  1.014531  0
H  H3  1  0.99470133  0.14092228  0.60687462  1  0  0.109611  0  0.951704  0  0  0.122673  0  1.015699  0  0  0.123484  0  1.017626  0  0  0.098333  0.12208  0  1.014464  0
H  H4  1  0.76384827  0.84977467  0.41288524  1  0  0.112507  0  0.950247  0  0  0.125892  0  1.015002  0  0  0.127832  0  1.014373  0  0  0.101683  0.124487  0  1.015559  0
H  H5  1  0.23614910  0.15022204  0.58711013  1  0  0.112494  0  0.950337  0  0  0.125856  0  1.015095  0  0  0.127797  0  1.014465  0  0  0.101667  0.124452  0  1.015649  0
H  H6  1  0.93909182  0.97348407  0.13711550  1  0  0.081977  0  0.976462  0  0  0.094448  0  1.038314  0  0  0.096956  0  1.037112  0  0  0.095534  0.092652  0  1.039226  0
H  H7  1  0.06091023  0.02651727  0.86287843  1  0  0.082016  0  0.976415  0  0  0.094465  0  1.03829  0  0  0.096973  0  1.03709  0  0  0.095535  0.092668  0  1.039206  0
H  H8  1  0.83899506  0.86672037  0.93810888  1  0  0.084239  0  0.960782  0  0  0.096012  0  1.022147  0  0  0.099061  0  1.02013  0  0  0.095186  0.093774  0  1.023722  0
H  H9  1  0.16100962  0.13327366  0.06188958  1  0  0.08428  0  0.960774  0  0  0.09607  0  1.022109  0  0  0.09912  0  1.020088  0  0  0.095212  0.093828  0  1.023684  0
H  H10  1  0.65928477  0.64467322  0.92158111  1  0  0.090386  0  0.980875  0  0  0.098611  0  1.04639  0  0  0.101819  0  1.044384  0  0  0.093929  0.096293  0  1.047917  0
H  H11  1  0.34070985  0.35532348  0.07841584  1  0  0.090398  0  0.980868  0  0  0.098645  0  1.046344  0  0  0.10185  0  1.044345  0  0  0.093945  0.096325  0  1.04787  0
H  H12  1  0.56951459  0.53271519  0.10286267  1  0  0.083378  0  0.98795  0  0  0.095674  0  1.051229  0  0  0.097908  0  1.050577  0  0  0.09611  0.09403  0  1.051779  0
H  H13  1  0.43047968  0.46728705  0.89713957  1  0  0.083458  0  0.987896  0  0  0.095775  0  1.051134  0  0  0.097994  0  1.050497  0  0  0.096145  0.094132  0  1.051683  0
H  H14  1  0.51105928  0.63948591  0.35879328  1  0  0.102055  0  0.964922  0  0  0.115185  0  1.02883  0  0  0.116009  0  1.030678  0  0  0.094265  0.114618  0  1.027581  0
H  H15  1  0.48894666  0.36051456  0.64120354  1  0  0.102108  0  0.964949  0  0  0.11522  0  1.028866  0  0  0.116043  0  1.030717  0  0  0.094275  0.114655  0  1.027614  0
H  H16  1  0.75606631  0.64693282  0.40747817  1  0  0.115821  0  0.94995  0  0  0.12896  0  1.013748  0  0  0.131525  0  1.011843  0  0  0.10106  0.1271  0  1.015173  0
H  H17  1  0.24393617  0.35306945  0.59251756  1  0  0.115813  0  0.949954  0  0  0.128946  0  1.013754  0  0  0.131526  0  1.011832  0  0  0.101042  0.127087  0  1.015176  0
H  H18  1  0.51623671  0.08850421  0.50008092  1  0  0.076856  0  0.95669  0  0  0.086015  0  1.021842  0  0  0.088349  0  1.019422  0  0  0.11793  0.084232  0  1.023746  0
H  H19  1  0.48375300  0.91149708  0.49992189  1  0  0.07687  0  0.956682  0  0  0.086  0  1.021867  0  0  0.088335  0  1.019445  0  0  0.117962  0.084221  0  1.023765  0
H  H20  1  0.51703848  0.07370063  0.71627422  1  0  0.124676  0  0.97182  0  0  0.131867  0  1.034524  0  0  0.135955  0  1.032646  0  0  0.110152  0.12887  0  1.036099  0
H  H21  1  0.48296444  0.92629893  0.28372856  1  0  0.12472  0  0.971788  0  0  0.131914  0  1.034495  0  0  0.136013  0  1.032602  0  0  0.110173  0.12892  0  1.036064  0
H  H22  1  0.96466311  0.42428027  0.75119562  1  0  0.108303  0  0.974477  0  0  0.116556  0  1.040082  0  0  0.120045  0  1.038343  0  0  0.10759  0.114016  0  1.041553  0
H  H23  1  0.03533795  0.57571834  0.24880440  1  0  0.10827  0  0.974453  0  0  0.116567  0  1.040025  0  0  0.120057  0  1.038284  0  0  0.107585  0.114022  0  1.041503  0
H  H24  1  0.94794866  0.41912626  0.53466004  1  0  0.090178  0  0.95797  0  0  0.09678  0  1.025596  0  0  0.099657  0  1.022256  0  0  0.119663  0.094637  0  1.028081  0
H  H25  1  0.05205126  0.58086959  0.46534077  1  0  0.090171  0  0.957992  0  0  0.096779  0  1.025591  0  0  0.099656  0  1.022249  0  0  0.119646  0.094635  0  1.028076  0
H  H26  1  0.66413690  0.04843215  0.89910427  1  0  0.112814  0  0.947353  0  0  0.123284  0  1.007904  0  0  0.126351  0  1.006889  0  0  0.112467  0.121081  0  1.008775  0
H  H27  1  0.33586442  0.95157017  0.10090018  1  0  0.112853  0  0.947331  0  0  0.123348  0  1.007836  0  0  0.126418  0  1.006815  0  0  0.112466  0.121142  0  1.008708  0
H  H28  1  0.67697017  0.05925277  0.11902508  1  0  0.075813  0  0.971657  0  0  0.080857  0  1.043872  0  0  0.083066  0  1.042481  0  0  0.114205  0.079247  0  1.044873  0
H  H29  1  0.32303062  0.94075504  0.88097760  1  0  0.075796  0  0.971608  0  0  0.080841  0  1.043834  0  0  0.083041  0  1.042474  0  0  0.11417  0.079231  0  1.044838  0
H  H30  1  0.84220673  0.43985656  0.13143919  1  0  0.072278  0  0.981128  0  0  0.077819  0  1.053347  0  0  0.080236  0  1.051294  0  0  0.112774  0.076024  0  1.054914  0
H  H31  1  0.15778650  0.56015023  0.86855685  1  0  0.072255  0  0.981106  0  0  0.077825  0  1.053323  0  0  0.080242  0  1.051269  0  0  0.112774  0.07603  0  1.054894  0
H  H32  1  0.83039966  0.44739100  0.91223876  1  0  0.106578  0  0.953337  0  0  0.11691  0  1.014891  0  0  0.119777  0  1.014257  0  0  0.109906  0.114834  0  1.015524  0
H  H33  1  0.16960041  0.55261216  0.08775681  1  0  0.106655  0  0.953288  0  0  0.116965  0  1.014847  0  0  0.11983  0  1.014216  0  0  0.109944  0.11489  0  1.015479  0
H  H34  1  0.33174338  0.13120423  0.31389629  1  0  0.426046  0  0.8683  0  0  0.395691  0  0.931205  0  0  0.406229  0  0.915744  0  0  0.290792  0.388213  0  0.942168  0
H  H35  1  0.66825613  0.86879069  0.68610361  1  0  0.426044  0  0.868325  0  0  0.39569  0  0.931224  0  0  0.406228  0  0.915762  0  0  0.290803  0.388212  0  0.942187  0
H  H36  1  0.41542438  0.26670791  0.27175026  1  0  0.404297  0  0.912322  0  0  0.371988  0  0.979363  0  0  0.38387  0  0.962109  0  0  0.280145  0.363596  0  0.991523  0
H  H37  1  0.58457475  0.73328608  0.72824960  1  0  0.40436  0  0.912257  0  0  0.372077  0  0.979248  0  0  0.383958  0  0.961994  0  0  0.280223  0.363688  0  0.991404  0
H  H38  1  0.17500791  0.36925825  0.33261561  1  0  0.430278  0  0.858833  0  0  0.401768  0  0.917797  0  0  0.412295  0  0.902416  0  0  0.293475  0.394277  0  0.92874  0
H  H39  1  0.82499827  0.63073946  0.66738120  1  0  0.430319  0  0.858762  0  0  0.40176  0  0.917822  0  0  0.412286  0  0.902441  0  0  0.293438  0.394266  0  0.928771  0
H  H40  1  0.09461876  0.23094410  0.37077219  1  0  0.403593  0  0.915908  0  0  0.37027  0  0.984363  0  0  0.382465  0  0.966678  0  0  0.280318  0.361681  0  0.996788  0
H  H41  1  0.90538293  0.76905268  0.62922786  1  0  0.4036  0  0.915902  0  0  0.370274  0  0.984362  0  0  0.38247  0  0.966676  0  0  0.280315  0.361687  0  0.996785  0
C  C42  1  0.91679954  0.02121079  0.34911807  1  0  0.727267  0  3.805282  0  0  0.676117  0  4.109147  0  0  0.710317  0  4.100183  0  0  0.217681  0.652924  0  4.114381  0
C  C43  1  0.08319956  0.97878965  0.65088446  1  0  0.72729  0  3.805307  0  0  0.676072  0  4.109258  0  0  0.710273  0  4.10029  0  0  0.217542  0.652881  0  4.11449  0
C  C44  1  0.87397061  0.88140981  0.35265536  1  0  -0.314289  0  3.698543  0  0  -0.357618  0  3.939435  0  0  -0.363224  0  3.947595  0  0  -0.167861  -0.35367  0  3.93368  0
C  C45  1  0.12603135  0.11858786  0.64734030  1  0  -0.314353  0  3.698638  0  0  -0.357601  0  3.939481  0  0  -0.363203  0  3.94764  0  0  -0.167805  -0.35365  0  3.933721  0
C  C46  1  0.80676486  0.81498627  0.23294772  1  0  0.06866  0  3.709093  0  0  0.0844  0  3.944794  0  0  0.084101  0  3.970025  0  0  -0.011536  0.084611  0  3.927659  0
C  C47  1  0.19323861  0.18501509  0.76704718  1  0  0.068702  0  3.709127  0  0  0.084405  0  3.944837  0  0  0.084122  0  3.970038  0  0  -0.011493  0.084616  0  3.927702  0
C  C48  1  0.85537411  0.87659885  0.12957056  1  0  -0.139409  0  3.776055  0  0  -0.157762  0  4.024882  0  0  -0.161115  0  4.047456  0  0  -0.103056  -0.155368  0  4.009428  0
C  C49  1  0.14462825  0.12339975  0.87042602  1  0  -0.139427  0  3.775998  0  0  -0.157748  0  4.02482  0  0  -0.161102  0  4.047384  0  0  -0.103085  -0.155353  0  4.009365  0
C  C50  1  0.80188866  0.81701201  0.01783601  1  0  -0.067365  0  3.79772  0  0  -0.083032  0  4.051001  0  0  -0.084587  0  4.072874  0  0  -0.101316  -0.081804  0  4.035944  0
C  C51  1  0.19811141  0.18298752  0.98216483  1  0  -0.067487  0  3.797658  0  0  -0.083171  0  4.050938  0  0  -0.084726  0  4.072812  0  0  -0.101369  -0.081937  0  4.035878  0
C  C52  1  0.70077518  0.69227703  0.00847997  1  0  -0.076248  0  3.790049  0  0  -0.091511  0  4.045267  0  0  -0.09341  0  4.066986  0  0  -0.103866  -0.090083  0  4.030326  0
C  C53  1  0.29921863  0.30772428  0.99151960  1  0  -0.076222  0  3.790129  0  0  -0.091501  0  4.045355  0  0  -0.0934  0  4.06707  0  0  -0.103886  -0.090071  0  4.030409  0
C  C54  1  0.65159712  0.62980592  0.11081121  1  0  -0.139406  0  3.773154  0  0  -0.158239  0  4.021952  0  0  -0.161297  0  4.044601  0  0  -0.10414  -0.155998  0  4.006531  0
C  C55  1  0.34839577  0.37019631  0.88919181  1  0  -0.139538  0  3.773308  0  0  -0.158375  0  4.022104  0  0  -0.161422  0  4.044767  0  0  -0.10416  -0.156135  0  4.006687  0
C  C56  1  0.70113577  0.68883747  0.22349655  1  0  0.066824  0  3.69387  0  0  0.083345  0  3.928617  0  0  0.082811  0  3.95366  0  0  -0.010953  0.083712  0  3.911577  0
C  C57  1  0.29886370  0.31116389  0.77650514  1  0  0.066885  0  3.693837  0  0  0.083398  0  3.928598  0  0  0.082859  0  3.953638  0  0  -0.010961  0.083764  0  3.911561  0
C  C58  1  0.64071188  0.61842825  0.33249591  1  0  -0.311398  0  3.680608  0  0  -0.353467  0  3.919132  0  0  -0.358984  0  3.926673  0  0  -0.167133  -0.349569  0  3.913774  0
C  C59  1  0.35928994  0.38157221  0.66750416  1  0  -0.311535  0  3.680622  0  0  -0.353523  0  3.919205  0  0  -0.359047  0  3.92674  0  0  -0.167139  -0.349626  0  3.913847  0
C  C60  1  0.59687959  0.47933985  0.31214668  1  0  0.721882  0  3.81676  0  0  0.673618  0  4.115733  0  0  0.707685  0  4.106951  0  0  0.215115  0.650521  0  4.120817  0
C  C61  1  0.40312642  0.52066064  0.68785278  1  0  0.722054  0  3.816214  0  0  0.673593  0  4.115494  0  0  0.707655  0  4.106714  0  0  0.215138  0.650499  0  4.120576  0
C  C62  1  0.61602525  0.15959787  0.55984232  1  0  0.131029  0  3.704271  0  0  0.097607  0  3.963042  0  0  0.105052  0  3.979164  0  0  0.048868  0.092722  0  3.952211  0
C  C63  1  0.38397204  0.84040164  0.44015921  1  0  0.131096  0  3.704172  0  0  0.097706  0  3.962964  0  0  0.105151  0  3.979087  0  0  0.048872  0.092819  0  3.952135  0
C  C64  1  0.61866900  0.15216721  0.68204067  1  0  -0.151632  0  3.67292  0  0  -0.171018  0  3.92303  0  0  -0.177944  0  3.941953  0  0  -0.07781  -0.166554  0  3.910494  0
C  C65  1  0.38132774  0.84782769  0.31795992  1  0  -0.151675  0  3.672959  0  0  -0.171135  0  3.923077  0  0  -0.17807  0  3.941994  0  0  -0.077851  -0.16667  0  3.91054  0
C  C66  1  0.74315459  0.24848929  0.75579407  1  0  0.094423  0  3.747701  0  0  0.107525  0  3.975084  0  0  0.111368  0  3.995996  0  0  0.017225  0.105093  0  3.960824  0
C  C67  1  0.25684285  0.75150744  0.24420394  1  0  0.094333  0  3.747815  0  0  0.107589  0  3.975048  0  0  0.111434  0  3.99596  0  0  0.017243  0.105155  0  3.960786  0
C  C68  1  0.86060779  0.34727804  0.70085455  1  0  -0.143058  0  3.685423  0  0  -0.163891  0  3.93581  0  0  -0.170282  0  3.954835  0  0  -0.074612  -0.159841  0  3.923226  0
C  C69  1  0.13939428  0.65271965  0.29914553  1  0  -0.142977  0  3.685369  0  0  -0.163898  0  3.935714  0  0  -0.170286  0  3.954736  0  0  -0.074605  -0.159845  0  3.923124  0
C  C70  1  0.85279286  0.34560378  0.57834715  1  0  0.143156  0  3.680677  0  0  0.11109  0  3.934128  0  0  0.118347  0  3.950479  0  0  0.05195  0.106319  0  3.923192  0
C  C71  1  0.14720285  0.65439202  0.42165251  1  0  0.14316  0  3.680543  0  0  0.111111  0  3.934  0  0  0.118362  0  3.950355  0  0  0.051992  0.106341  0  3.923063  0
C  C72  1  0.74880557  0.24793442  0.88581647  1  0  0.108031  0  3.74318  0  0  0.118548  0  3.969379  0  0  0.122348  0  3.991294  0  0  0.021499  0.116182  0  3.954421  0
C  C73  1  0.25119423  0.75206786  0.11418348  1  0  0.10816  0  3.743203  0  0  0.118578  0  3.969447  0  0  0.12237  0  3.991376  0  0  0.021473  0.116213  0  3.954485  0
C  C74  1  0.70262962  0.13785811  0.94637597  1  0  -0.147503  0  3.677892  0  0  -0.164591  0  3.92425  0  0  -0.172231  0  3.946033  0  0  -0.073905  -0.159672  0  3.909665  0
C  C75  1  0.29737059  0.86214509  0.05362490  1  0  -0.147566  0  3.677714  0  0  -0.164648  0  3.924106  0  0  -0.172285  0  3.945887  0  0  -0.073901  -0.159726  0  3.909518  0
C  C76  1  0.71107689  0.14286970  0.06909043  1  0  0.135883  0  3.695048  0  0  0.104012  0  3.947531  0  0  0.110672  0  3.965959  0  0  0.050665  0.099715  0  3.935029  0
C  C77  1  0.28892547  0.85713535  0.93090970  1  0  0.135899  0  3.695093  0  0  0.104013  0  3.947637  0  0  0.110671  0  3.966056  0  0  0.050713  0.099715  0  3.935137  0
C  C78  1  0.80700209  0.35544953  0.07630892  1  0  0.125188  0  3.7165  0  0  0.093868  0  3.968413  0  0  0.100451  0  3.986634  0  0  0.046057  0.08964  0  3.956029  0
C  C79  1  0.19299119  0.64455728  0.92368888  1  0  0.125345  0  3.716344  0  0  0.093971  0  3.968249  0  0  0.100553  0  3.986464  0  0  0.04614  0.089742  0  3.95587  0
C  C80  1  0.80085691  0.35871959  0.95401608  1  0  -0.146888  0  3.697719  0  0  -0.164476  0  3.94476  0  0  -0.172022  0  3.966826  0  0  -0.076091  -0.159605  0  3.929921  0
C  C81  1  0.19913625  0.64128353  0.04598257  1  0  -0.147133  0  3.697839  0  0  -0.164642  0  3.944865  0  0  -0.17219  0  3.966944  0  0  -0.076171  -0.159771  0  3.930022  0
N  N82  1  0.73233828  0.25329108  0.50796653  1  0  -0.327754  0  3.281449  0  0  -0.250624  0  3.545913  0  0  -0.268683  0  3.562119  0  0  -0.324338  -0.23842  0  3.534827  0
N  N83  1  0.26765964  0.74670659  0.49203504  1  0  -0.327822  0  3.281375  0  0  -0.250709  0  3.545851  0  0  -0.268763  0  3.562056  0  0  -0.324386  -0.238506  0  3.53477  0
N  N84  1  0.76370990  0.24963650  0.13388555  1  0  -0.315002  0  3.2651  0  0  -0.235812  0  3.525643  0  0  -0.253859  0  3.541883  0  0  -0.318188  -0.223642  0  3.514509  0
N  N85  1  0.23628978  0.75037220  0.86611355  1  0  -0.31501  0  3.26506  0  0  -0.235836  0  3.525683  0  0  -0.25388  0  3.541921  0  0  -0.318215  -0.22367  0  3.514555  0
O  O86  1  0.77039199  0.06441237  0.33012105  1  0  -0.662245  0  2.032239  0  0  -0.589134  0  2.288967  0  0  -0.618038  0  2.278133  0  0  -0.319642  -0.568952  0  2.29575  0
O  O87  1  0.22960811  0.93558716  0.66988067  1  0  -0.662223  0  2.032238  0  0  -0.589084  0  2.288996  0  0  -0.617975  0  2.278152  0  0  -0.319571  -0.568902  0  2.29578  0
O  O88  1  0.09264230  0.08680961  0.36603994  1  0  -0.656751  0  1.978404  0  0  -0.592067  0  2.199238  0  0  -0.617724  0  2.1881  0  0  -0.319883  -0.574198  0  2.206434  0
O  O89  1  0.90735562  0.91319087  0.63397044  1  0  -0.656766  0  1.978296  0  0  -0.592084  0  2.199173  0  0  -0.61774  0  2.188036  0  0  -0.319832  -0.574214  0  2.206369  0
O  O90  1  0.42187897  0.41495692  0.28375105  1  0  -0.661074  0  1.964806  0  0  -0.59789  0  2.180964  0  0  -0.622852  0  2.168677  0  0  -0.322371  -0.58045  0  2.188945  0
O  O91  1  0.57813148  0.58504085  0.71624869  1  0  -0.661191  0  1.96449  0  0  -0.597909  0  2.180714  0  0  -0.622881  0  2.16845  0  0  -0.322391  -0.580467  0  2.188693  0
O  O92  1  0.74383267  0.43635940  0.32198012  1  0  -0.65979  0  2.045539  0  0  -0.588976  0  2.305457  0  0  -0.618124  0  2.295258  0  0  -0.319416  -0.568584  0  2.311726  0
O  O93  1  0.25617664  0.56364206  0.67802395  1  0  -0.659822  0  2.045373  0  0  -0.588937  0  2.305388  0  0  -0.618083  0  2.29519  0  0  -0.31943  -0.56855  0  2.311661  0
O  O94  1  0.43631017  0.18189359  0.27213992  1  0  -0.838057  0  1.87286  0  0  -0.783021  0  2.072089  0  0  -0.803376  0  2.037774  0  0  -0.588942  -0.768564  0  2.095929  0
O  O95  1  0.56368894  0.81810040  0.72785906  1  0  -0.838115  0  1.872932  0  0  -0.783084  0  2.072156  0  0  -0.803439  0  2.037846  0  0  -0.589032  -0.768629  0  2.095993  0
O  O96  1  0.06979601  0.31492985  0.37127168  1  0  -0.837333  0  1.889983  0  0  -0.779429  0  2.08891  0  0  -0.800615  0  2.054066  0  0  -0.584655  -0.764377  0  2.113103  0
O  O97  1  0.93020635  0.68506875  0.62872490  1  0  -0.837378  0  1.88998  0  0  -0.779445  0  2.088901  0  0  -0.800628  0  2.054057  0  0  -0.584624  -0.764386  0  2.113088  0
