# generated using pymatgen
data_UH20C15NO6
_symmetry_space_group_name_H-M   'P 1'
_cell_length_a   8.10415629
_cell_length_b   9.73743282
_cell_length_c   11.95310559
_cell_angle_alpha   70.59392372
_cell_angle_beta   87.66991568
_cell_angle_gamma   68.83378055
_symmetry_Int_Tables_number   1
_chemical_formula_structural   UH20C15NO6
_chemical_formula_sum   'U2 H40 C30 N2 O12'
_cell_volume   826.27393816
_cell_formula_units_Z   2
loop_
 _symmetry_equiv_pos_site_id
 _symmetry_equiv_pos_as_xyz
  1  'x, y, z'
loop_
 _atom_site_type_symbol
 _atom_site_label
 _atom_site_symmetry_multiplicity
 _atom_site_fract_x
 _atom_site_fract_y
 _atom_site_fract_z
 _atom_site_occupancy
 _atom_site_hle17_bader_spin_density
 _atom_site_hle17_ddec_charge
 _atom_site_hle17_ddec_spin_density
 _atom_site_hle17_ddec_sum_bond_order
 _atom_site_hle17_magmom
 _atom_site_hse06_10hf_bader_spin_density
 _atom_site_hse06_10hf_ddec_charge
 _atom_site_hse06_10hf_ddec_spin_density
 _atom_site_hse06_10hf_ddec_sum_bond_order
 _atom_site_hse06_10hf_magmom
 _atom_site_hse06_bader_spin_density
 _atom_site_hse06_ddec_charge
 _atom_site_hse06_ddec_spin_density
 _atom_site_hse06_ddec_sum_bond_order
 _atom_site_hse06_magmom
 _atom_site_pbe_bader_spin_density
 _atom_site_pbe_cm5_charge
 _atom_site_pbe_ddec_charge
 _atom_site_pbe_ddec_spin_density
 _atom_site_pbe_ddec_sum_bond_order
 _atom_site_pbe_magmom
U  U0  1  0.76730151  0.55249251  0.16532958  1  0  2.385925  0  4.235123  0  0  2.436915  0  4.905577  0  0  2.546663  0  4.870323  0  0  2.189476  2.359914  0  4.930654  0
U  U1  1  0.23269796  0.44748889  0.83467017  1  0  2.386133  0  4.234677  0  0  2.437168  0  4.905071  0  0  2.546822  0  4.869933  0  0  2.189556  2.360295  0  4.929943  0
H  H2  1  0.39343902  0.58872281  0.03781994  1  0  0.084241  0  0.965204  0  0  0.089433  0  1.036157  0  0  0.092472  0  1.0325  0  0  0.128498  0.087283  0  1.038578  0
H  H3  1  0.60655376  0.41128559  0.96217433  1  0  0.084294  0  0.965125  0  0  0.089457  0  1.03612  0  0  0.092495  0  1.032464  0  0  0.128484  0.0873  0  1.038538  0
H  H4  1  0.08579873  0.75923041  0.96225281  1  0  0.11455  0  0.963902  0  0  0.122408  0  1.028103  0  0  0.126236  0  1.026008  0  0  0.120838  0.119503  0  1.030109  0
H  H5  1  0.91420208  0.24078515  0.03774178  1  0  0.114743  0  0.963707  0  0  0.122557  0  1.027935  0  0  0.126397  0  1.025821  0  0  0.12083  0.119615  0  1.02998  0
H  H6  1  0.16098223  0.09684762  0.09703656  1  0  0.111889  0  0.955845  0  0  0.125376  0  1.009075  0  0  0.128463  0  1.008342  0  0  0.118006  0.123187  0  1.009733  0
H  H7  1  0.83902638  0.90315273  0.90296781  1  0  0.111918  0  0.95574  0  0  0.125287  0  1.00913  0  0  0.128375  0  1.008398  0  0  0.117964  0.12315  0  1.009721  0
H  H8  1  0.46864291  0.90937113  0.16761067  1  0  0.081576  0  0.936114  0  0  0.088564  0  1.001096  0  0  0.091533  0  0.997812  0  0  0.128673  0.086486  0  1.003296  0
H  H9  1  0.53136353  0.09062567  0.83239222  1  0  0.081576  0  0.936138  0  0  0.088561  0  1.001117  0  0  0.091532  0  0.997827  0  0  0.128676  0.086478  0  1.003322  0
H  H10  1  0.23160920  0.29334207  0.32852330  1  0  0.112815  0  0.942028  0  0  0.126329  0  1.00377  0  0  0.129048  0  1.002473  0  0  0.106696  0.1244  0  1.004805  0
H  H11  1  0.76839348  0.70666057  0.67147811  1  0  0.112775  0  0.942095  0  0  0.126298  0  1.003819  0  0  0.129013  0  1.002529  0  0  0.106697  0.12437  0  1.004853  0
H  H12  1  0.36135820  0.40342242  0.25266800  1  0  0.119133  0  0.919505  0  0  0.136956  0  0.974812  0  0  0.138262  0  0.975432  0  0  0.11535  0.136279  0  0.974109  0
H  H13  1  0.63864599  0.59657670  0.74732931  1  0  0.119153  0  0.919479  0  0  0.13698  0  0.974778  0  0  0.138283  0  0.975398  0  0  0.115363  0.1363  0  0.974077  0
H  H14  1  0.44524223  0.05753985  0.28876602  1  0  0.051265  0  0.936483  0  0  0.073105  0  0.993663  0  0  0.073198  0  0.994497  0  0  0.086277  0.072965  0  0.993095  0
H  H15  1  0.55475358  0.94246153  0.71123342  1  0  0.051259  0  0.936497  0  0  0.073098  0  0.993682  0  0  0.073192  0  0.994516  0  0  0.086265  0.072956  0  0.993113  0
H  H16  1  0.56237487  0.17209889  0.20055711  1  0  0.075355  0  0.940332  0  0  0.093561  0  0.99963  0  0  0.094353  0  1.000377  0  0  0.092596  0.092944  0  0.999293  0
H  H17  1  0.43762541  0.82789783  0.79944179  1  0  0.075352  0  0.940359  0  0  0.093562  0  0.999653  0  0  0.094354  0  1.0004  0  0  0.092598  0.092945  0  0.999316  0
H  H18  1  0.51509440  0.11830815  0.46585041  1  0  0.055366  0  0.957379  0  0  0.075583  0  1.019297  0  0  0.075861  0  1.020356  0  0  0.085703  0.07525  0  1.018713  0
H  H19  1  0.48490314  0.88169207  0.53414846  1  0  0.055375  0  0.957369  0  0  0.075583  0  1.019283  0  0  0.075864  0  1.020338  0  0  0.085698  0.075252  0  1.018698  0
H  H20  1  0.63714170  0.22576520  0.37848867  1  0  0.06603  0  0.949104  0  0  0.085691  0  1.010752  0  0  0.086506  0  1.010764  0  0  0.091576  0.085079  0  1.010671  0
H  H21  1  0.36285606  0.77423738  0.62150788  1  0  0.066035  0  0.949157  0  0  0.085683  0  1.010807  0  0  0.086498  0  1.01082  0  0  0.091577  0.085073  0  1.010723  0
H  H22  1  0.72632979  0.87622687  0.42459329  1  0  0.051791  0  0.946791  0  0  0.071942  0  1.00876  0  0  0.072795  0  1.00852  0  0  0.084318  0.071301  0  1.008777  0
H  H23  1  0.27367021  0.12377337  0.57540634  1  0  0.051774  0  0.946794  0  0  0.071927  0  1.008773  0  0  0.072784  0  1.008522  0  0  0.084309  0.071284  0  1.008793  0
H  H24  1  0.81849770  0.94759357  0.51323178  1  0  0.060558  0  0.939308  0  0  0.082695  0  0.997707  0  0  0.083008  0  0.998807  0  0  0.08863  0.082333  0  0.997107  0
H  H25  1  0.18149985  0.05240664  0.48676625  1  0  0.060539  0  0.939285  0  0  0.082701  0  0.997687  0  0  0.082965  0  0.998847  0  0  0.088609  0.082346  0  0.997081  0
H  H26  1  0.11821689  0.82964918  0.48013628  1  0  0.061147  0  0.955367  0  0  0.081519  0  1.016734  0  0  0.081802  0  1.018024  0  0  0.088239  0.081183  0  1.01603  0
H  H27  1  0.88178066  0.17035104  0.51986509  1  0  0.061162  0  0.955363  0  0  0.081532  0  1.016733  0  0  0.081816  0  1.018018  0  0  0.088239  0.081197  0  1.01603  0
H  H28  1  0.19718858  0.86713808  0.33779242  1  0  0.049421  0  0.952431  0  0  0.067171  0  1.01594  0  0  0.067553  0  1.016957  0  0  0.07895  0.06697  0  1.01512  0
H  H29  1  0.80281069  0.13286098  0.66220587  1  0  0.049433  0  0.952464  0  0  0.067191  0  1.015962  0  0  0.06757  0  1.016982  0  0  0.078958  0.06699  0  1.01514  0
H  H30  1  0.36609286  0.55691619  0.42961255  1  0  0.12164  0  0.93522  0  0  0.138177  0  0.990542  0  0  0.141026  0  0.989205  0  0  0.106258  0.136132  0  0.991588  0
H  H31  1  0.63390245  0.44308636  0.57038742  1  0  0.121696  0  0.93526  0  0  0.13825  0  0.990544  0  0  0.141099  0  0.989209  0  0  0.106283  0.136202  0  0.991592  0
H  H32  1  0.23923280  0.44129186  0.43769886  1  0  0.109691  0  0.935586  0  0  0.12347  0  1.000058  0  0  0.12541  0  0.999341  0  0  0.107581  0.122141  0  1.000591  0
H  H33  1  0.76076598  0.55870838  0.56230081  1  0  0.109722  0  0.935598  0  0  0.123506  0  1.000064  0  0  0.125447  0  0.999347  0  0  0.10758  0.122177  0  1.000597  0
H  H34  1  0.07729019  0.69489528  0.28935387  1  0  0.06962  0  0.941388  0  0  0.088068  0  1.000455  0  0  0.088285  0  1.001752  0  0  0.090818  0.087891  0  0.999703  0
H  H35  1  0.92270663  0.30510376  0.71064869  1  0  0.069583  0  0.941329  0  0  0.088025  0  1.000421  0  0  0.088241  0  1.001718  0  0  0.090786  0.087847  0  0.999667  0
H  H36  1  0.95768201  0.67701774  0.41571551  1  0  0.062822  0  0.952491  0  0  0.082314  0  1.012592  0  0  0.082779  0  1.013174  0  0  0.091222  0.081872  0  1.012295  0
H  H37  1  0.04231677  0.32298249  0.58428415  1  0  0.062779  0  0.952479  0  0  0.082264  0  1.012601  0  0  0.082729  0  1.013183  0  0  0.091211  0.081822  0  1.012303  0
H  H38  1  0.87011062  0.99240559  0.24958896  1  0  0.05742  0  0.940625  0  0  0.078867  0  0.99831  0  0  0.078626  0  1.000411  0  0  0.083609  0.079072  0  0.996842  0
H  H39  1  0.12988764  0.00759582  0.75040956  1  0  0.057456  0  0.940614  0  0  0.078906  0  0.9983  0  0  0.078664  0  1.000401  0  0  0.083631  0.079111  0  0.99683  0
H  H40  1  0.93414014  0.09307856  0.32739489  1  0  0.061735  0  0.938052  0  0  0.079363  0  1.002325  0  0  0.080518  0  1.001851  0  0  0.089564  0.078281  0  1.003108  0
H  H41  1  0.06585863  0.90692168  0.67260561  1  0  0.061738  0  0.938072  0  0  0.079374  0  1.002339  0  0  0.080529  0  1.001864  0  0  0.089561  0.078292  0  1.003121  0
C  C42  1  0.33696179  0.70225949  0.04953561  1  0  0.137881  0  3.705662  0  0  0.112084  0  3.965892  0  0  0.120862  0  3.982129  0  0  0.061771  0.106318  0  3.954615  0
C  C43  1  0.66303742  0.29774546  0.95046443  1  0  0.137809  0  3.705709  0  0  0.112054  0  3.965893  0  0  0.120831  0  3.982128  0  0  0.061774  0.106299  0  3.9546  0
C  C44  1  0.16288129  0.79978254  0.00717406  1  0  -0.129869  0  3.667753  0  0  -0.149262  0  3.911778  0  0  -0.155801  0  3.9302  0  0  -0.062288  -0.145067  0  3.899672  0
C  C45  1  0.83712154  0.20022834  0.99282342  1  0  -0.130023  0  3.66768  0  0  -0.149415  0  3.911675  0  0  -0.155962  0  3.930092  0  0  -0.062327  -0.145182  0  3.89958  0
C  C46  1  0.09225369  0.94621964  0.02240794  1  0  0.108491  0  3.712272  0  0  0.121261  0  3.93663  0  0  0.125422  0  3.957082  0  0  0.028156  0.118803  0  3.922514  0
C  C47  1  0.90775283  0.05379127  0.97758944  1  0  0.108311  0  3.712405  0  0  0.121162  0  3.936663  0  0  0.125322  0  3.957119  0  0  0.028198  0.118703  0  3.922552  0
C  C48  1  0.20526273  0.98555529  0.08178897  1  0  -0.128009  0  3.666836  0  0  -0.145333  0  3.90571  0  0  -0.152101  0  3.925203  0  0  -0.064122  -0.141096  0  3.892739  0
C  C49  1  0.79474560  0.01444860  0.91821361  1  0  -0.127985  0  3.666744  0  0  -0.145258  0  3.90564  0  0  -0.152027  0  3.925134  0  0  -0.064061  -0.14106  0  3.892652  0
C  C50  1  0.37825413  0.88149697  0.12153987  1  0  0.13854  0  3.712318  0  0  0.113544  0  3.972955  0  0  0.122298  0  3.989107  0  0  0.063726  0.107716  0  3.962007  0
C  C51  1  0.62174856  0.11850567  0.87846321  1  0  0.138594  0  3.712382  0  0  0.113628  0  3.972957  0  0  0.122381  0  3.989111  0  0  0.063715  0.107796  0  3.962028  0
C  C52  1  0.20962511  0.35993203  0.13974287  1  0  0.770207  0  3.743092  0  0  0.744305  0  4.032612  0  0  0.784977  0  4.017625  0  0  0.259716  0.71611  0  4.041777  0
C  C53  1  0.79037446  0.64006350  0.86025638  1  0  0.770169  0  3.743147  0  0  0.744197  0  4.032759  0  0  0.784878  0  4.017764  0  0  0.259683  0.716002  0  4.041918  0
C  C54  1  0.31832408  0.30685600  0.25602004  1  0  -0.282894  0  3.656935  0  0  -0.321781  0  3.897117  0  0  -0.329149  0  3.905091  0  0  -0.154416  -0.316678  0  3.891484  0
C  C55  1  0.68167715  0.69314426  0.74398038  1  0  -0.282895  0  3.657012  0  0  -0.321757  0  3.897203  0  0  -0.329122  0  3.905165  0  0  -0.154432  -0.31666  0  3.89157  0
C  C56  1  0.48492838  0.15797826  0.27829466  1  0  -0.067518  0  3.664  0  0  -0.1073  0  3.921133  0  0  -0.107169  0  3.935277  0  0  -0.1613  -0.107286  0  3.91145  0
C  C57  1  0.51507212  0.84202081  0.72170443  1  0  -0.067499  0  3.664035  0  0  -0.107292  0  3.92114  0  0  -0.107163  0  3.935285  0  0  -0.16128  -0.107282  0  3.911457  0
C  C58  1  0.59800824  0.12494838  0.39037738  1  0  -0.113574  0  3.686242  0  0  -0.152964  0  3.947868  0  0  -0.153995  0  3.962731  0  0  -0.166621  -0.152164  0  3.937677  0
C  C59  1  0.40199104  0.87505068  0.60962259  1  0  -0.113604  0  3.686283  0  0  -0.152952  0  3.947875  0  0  -0.15398  0  3.962724  0  0  -0.166611  -0.152152  0  3.937685  0
C  C60  1  0.76427484  0.97516747  0.42194383  1  0  -0.103647  0  3.682646  0  0  -0.145335  0  3.948298  0  0  -0.146261  0  3.963047  0  0  -0.165772  -0.144541  0  3.938086  0
C  C61  1  0.23572516  0.02483278  0.57805495  1  0  -0.103572  0  3.682557  0  0  -0.14531  0  3.948262  0  0  -0.146208  0  3.963004  0  0  -0.165745  -0.14452  0  3.938052  0
C  C62  1  0.23532447  0.50785175  0.58717694  1  0  0.689028  0  3.801069  0  0  0.654161  0  4.11124  0  0  0.6906  0  4.103638  0  0  0.208112  0.629462  0  4.114812  0
C  C63  1  0.76467481  0.49214731  0.41282303  1  0  0.689121  0  3.80102  0  0  0.654256  0  4.111188  0  0  0.690697  0  4.103592  0  0  0.208126  0.629559  0  4.114751  0
C  C64  1  0.08697228  0.84365342  0.38722087  1  0  -0.112449  0  3.691785  0  0  -0.150605  0  3.950725  0  0  -0.151947  0  3.96601  0  0  -0.170301  -0.149407  0  3.939899  0
C  C65  1  0.91302599  0.15634798  0.61277933  1  0  -0.112548  0  3.691876  0  0  -0.150693  0  3.950826  0  0  -0.152034  0  3.96611  0  0  -0.170334  -0.149492  0  3.939991  0
C  C66  1  0.23777475  0.54621662  0.45468145  1  0  -0.269097  0  3.674702  0  0  -0.303502  0  3.91543  0  0  -0.309339  0  3.922375  0  0  -0.160554  -0.299749  0  3.910896  0
C  C67  1  0.76222106  0.45378476  0.54531799  1  0  -0.269248  0  3.67486  0  0  -0.303648  0  3.915565  0  0  -0.309485  0  3.922504  0  0  -0.16056  -0.299896  0  3.911033  0
C  C68  1  0.08124944  0.69043397  0.38237300  1  0  -0.078271  0  3.683643  0  0  -0.116334  0  3.935965  0  0  -0.115827  0  3.949459  0  0  -0.165692  -0.11631  0  3.926546  0
C  C69  1  0.91874709  0.30956860  0.61762693  1  0  -0.078113  0  3.683575  0  0  -0.116188  0  3.935926  0  0  -0.11568  0  3.949421  0  0  -0.165656  -0.116163  0  3.926501  0
C  C70  1  0.91240968  0.98393394  0.33896560  1  0  -0.104237  0  3.673086  0  0  -0.143332  0  3.936321  0  0  -0.144282  0  3.95156  0  0  -0.166324  -0.142442  0  3.925608  0
C  C71  1  0.08758859  0.01606746  0.66103292  1  0  -0.10429  0  3.673084  0  0  -0.143399  0  3.936348  0  0  -0.144344  0  3.951572  0  0  -0.166344  -0.142512  0  3.925638  0
N  N72  1  0.44426688  0.74165362  0.10577426  1  0  -0.380003  0  3.269961  0  0  -0.345591  0  3.558135  0  0  -0.367692  0  3.581619  0  0  -0.378609  -0.330434  0  3.541889  0
N  N73  1  0.55572959  0.25835483  0.89422408  1  0  -0.380039  0  3.270132  0  0  -0.345657  0  3.558305  0  0  -0.367746  0  3.581782  0  0  -0.378627  -0.330514  0  3.542059  0
O  O74  1  0.68251278  0.39915442  0.18142546  1  0  -0.695052  0  1.603754  0  0  -0.700801  0  1.911469  0  0  -0.723468  0  1.900356  0  0  -0.753055  -0.686965  0  1.919778  0
O  O75  1  0.31750441  0.60082601  0.81857655  1  0  -0.695036  0  1.603433  0  0  -0.700816  0  1.911146  0  0  -0.723463  0  1.900055  0  0  -0.753033  -0.687009  0  1.919426  0
O  O76  1  0.84104003  0.71392222  0.14201564  1  0  -0.716366  0  1.58009  0  0  -0.729167  0  1.876836  0  0  -0.751527  0  1.867183  0  0  -0.765212  -0.715495  0  1.884032  0
O  O77  1  0.15895497  0.28606385  0.85799049  1  0  -0.7165  0  1.580074  0  0  -0.729329  0  1.876848  0  0  -0.751666  0  1.867216  0  0  -0.765278  -0.715685  0  1.884004  0
O  O78  1  0.04234404  0.38793568  0.14008435  1  0  -0.688064  0  2.06444  0  0  -0.677685  0  2.348818  0  0  -0.713586  0  2.338278  0  0  -0.382632  -0.651607  0  2.354949  0
O  O79  1  0.95765878  0.61205519  0.85991942  1  0  -0.688038  0  2.064415  0  0  -0.677646  0  2.348825  0  0  -0.713533  0  2.338287  0  0  -0.382617  -0.651585  0  2.354944  0
O  O80  1  0.28610321  0.37671516  0.04390726  1  0  -0.664651  0  2.060214  0  0  -0.651539  0  2.337136  0  0  -0.687387  0  2.330811  0  0  -0.359882  -0.625062  0  2.339676  0
O  O81  1  0.71390076  0.62328160  0.95609403  1  0  -0.664596  0  2.06018  0  0  -0.651467  0  2.33716  0  0  -0.687336  0  2.330832  0  0  -0.359873  -0.624968  0  2.339697  0
O  O82  1  0.37273852  0.40635649  0.65752343  1  0  -0.646924  0  1.939349  0  0  -0.637803  0  2.194943  0  0  -0.670675  0  2.190731  0  0  -0.360692  -0.613951  0  2.19581  0
O  O83  1  0.62726104  0.59363905  0.34247665  1  0  -0.646962  0  1.939348  0  0  -0.63784  0  2.194944  0  0  -0.670723  0  2.19073  0  0  -0.360725  -0.613974  0  2.195814  0
O  O84  1  0.09593654  0.57357374  0.63343959  1  0  -0.627545  0  1.952547  0  0  -0.614537  0  2.216765  0  0  -0.648325  0  2.21367  0  0  -0.356894  -0.590681  0  2.21812  0
O  O85  1  0.90406375  0.42642298  0.36656349  1  0  -0.627519  0  1.952495  0  0  -0.614529  0  2.216731  0  0  -0.648331  0  2.213636  0  0  -0.356859  -0.590645  0  2.218064  0
