# generated using pymatgen
data_UH18C14(NO4)2
_symmetry_space_group_name_H-M   'P 1'
_cell_length_a   6.44192697
_cell_length_b   9.63901854
_cell_length_c   14.16770777
_cell_angle_alpha   90.00029043
_cell_angle_beta   97.68496094
_cell_angle_gamma   90.00005764
_symmetry_Int_Tables_number   1
_chemical_formula_structural   UH18C14(NO4)2
_chemical_formula_sum   'U2 H36 C28 N4 O16'
_cell_volume   871.82615142
_cell_formula_units_Z   2
loop_
 _symmetry_equiv_pos_site_id
 _symmetry_equiv_pos_as_xyz
  1  'x, y, z'
loop_
 _atom_site_type_symbol
 _atom_site_label
 _atom_site_symmetry_multiplicity
 _atom_site_fract_x
 _atom_site_fract_y
 _atom_site_fract_z
 _atom_site_occupancy
 _atom_site_hle17_bader_spin_density
 _atom_site_hle17_ddec_charge
 _atom_site_hle17_ddec_spin_density
 _atom_site_hle17_ddec_sum_bond_order
 _atom_site_hle17_magmom
 _atom_site_hse06_10hf_bader_spin_density
 _atom_site_hse06_10hf_ddec_charge
 _atom_site_hse06_10hf_ddec_spin_density
 _atom_site_hse06_10hf_ddec_sum_bond_order
 _atom_site_hse06_10hf_magmom
 _atom_site_hse06_bader_spin_density
 _atom_site_hse06_ddec_charge
 _atom_site_hse06_ddec_spin_density
 _atom_site_hse06_ddec_sum_bond_order
 _atom_site_hse06_magmom
 _atom_site_pbe_bader_spin_density
 _atom_site_pbe_cm5_charge
 _atom_site_pbe_ddec_charge
 _atom_site_pbe_ddec_spin_density
 _atom_site_pbe_ddec_sum_bond_order
 _atom_site_pbe_magmom
U  U0  1  0.00000408  0.00000174  0.50000052  1  0  2.420515  0  4.106557  0  0  2.48202  0  4.755416  0  0  2.595359  0  4.719474  0  0  2.137556  2.40404  0  4.779411  0
U  U1  1  0.49999693  0.50000162  0.99999443  1  0  2.420368  0  4.10655  0  0  2.48181  0  4.755361  0  0  2.59516  0  4.719402  0  0  2.137458  2.403846  0  4.779363  0
H  H2  1  0.47672605  0.01782378  0.36978375  1  0  0.069373  0  0.947235  0  0  0.076494  0  1.014789  0  0  0.078098  0  1.009113  0  0  0.139726  0.075386  0  1.019024  0
H  H3  1  0.02327006  0.51782496  0.13021252  1  0  0.069329  0  0.947279  0  0  0.076444  0  1.014868  0  0  0.078046  0  1.009196  0  0  0.139691  0.075331  0  1.019092  0
H  H4  1  0.52326469  0.98217703  0.63021352  1  0  0.069325  0  0.947197  0  0  0.076431  0  1.014801  0  0  0.078034  0  1.009121  0  0  0.139679  0.075315  0  1.019036  0
H  H5  1  0.97673133  0.48217791  0.86977684  1  0  0.069339  0  0.947241  0  0  0.076461  0  1.0148  0  0  0.078066  0  1.00912  0  0  0.139699  0.07535  0  1.019034  0
H  H6  1  0.15759344  0.49578381  0.56275071  1  0  0.101071  0  0.95425  0  0  0.109882  0  1.017698  0  0  0.113635  0  1.015349  0  0  0.106047  0.107045  0  1.019739  0
H  H7  1  0.34240450  0.99578627  0.93725156  1  0  0.101072  0  0.954287  0  0  0.109895  0  1.017719  0  0  0.113647  0  1.015371  0  0  0.10608  0.107057  0  1.019759  0
H  H8  1  0.84241171  0.50421803  0.43725579  1  0  0.101103  0  0.954274  0  0  0.109904  0  1.017731  0  0  0.113658  0  1.01538  0  0  0.106037  0.10707  0  1.019774  0
H  H9  1  0.65759417  0.00421660  0.06274895  1  0  0.101082  0  0.954286  0  0  0.109905  0  1.01772  0  0  0.113659  0  1.015369  0  0  0.106078  0.107068  0  1.019763  0
H  H10  1  0.62370463  0.71994532  0.43335092  1  0  0.114839  0  0.951087  0  0  0.122718  0  1.014787  0  0  0.126379  0  1.012001  0  0  0.114054  0.120161  0  1.016849  0
H  H11  1  0.87629078  0.21994507  0.06665053  1  0  0.114804  0  0.951082  0  0  0.1227  0  1.014767  0  0  0.126352  0  1.011989  0  0  0.114036  0.120149  0  1.016809  0
H  H12  1  0.37630045  0.28005341  0.56665346  1  0  0.114877  0  0.950992  0  0  0.122726  0  1.01473  0  0  0.126384  0  1.011946  0  0  0.114042  0.120174  0  1.016775  0
H  H13  1  0.12370482  0.78005469  0.93335123  1  0  0.114824  0  0.951102  0  0  0.122709  0  1.014805  0  0  0.126363  0  1.012013  0  0  0.114054  0.120156  0  1.016872  0
H  H14  1  0.23448715  0.32964222  0.20257580  1  0  0.108891  0  0.964236  0  0  0.128249  0  1.028978  0  0  0.128869  0  1.028989  0  0  0.107861  0.127769  0  1.029084  0
H  H15  1  0.26551646  0.82963018  0.29743120  1  0  0.108747  0  0.96435  0  0  0.128166  0  1.029046  0  0  0.128773  0  1.029072  0  0  0.107834  0.127687  0  1.029156  0
H  H16  1  0.76551941  0.67037207  0.79742655  1  0  0.108794  0  0.9644  0  0  0.12817  0  1.029118  0  0  0.128822  0  1.029097  0  0  0.107826  0.127688  0  1.029225  0
H  H17  1  0.73448723  0.17035298  0.70257805  1  0  0.108827  0  0.964136  0  0  0.128189  0  1.028873  0  0  0.128827  0  1.028864  0  0  0.107824  0.127703  0  1.028981  0
H  H18  1  0.40183164  0.42089564  0.29224920  1  0  0.100389  0  0.93829  0  0  0.120372  0  1.002067  0  0  0.119947  0  1.003961  0  0  0.105993  0.120681  0  1.000775  0
H  H19  1  0.09817701  0.92089119  0.20776053  1  0  0.100314  0  0.938443  0  0  0.120364  0  1.002154  0  0  0.119942  0  1.004044  0  0  0.106023  0.120674  0  1.000856  0
H  H20  1  0.59817975  0.57911035  0.70775693  1  0  0.100341  0  0.938427  0  0  0.120375  0  1.002148  0  0  0.119952  0  1.004044  0  0  0.106012  0.120682  0  1.000853  0
H  H21  1  0.90183461  0.07910235  0.79225197  1  0  0.10039  0  0.938263  0  0  0.12034  0  1.002077  0  0  0.119914  0  1.003975  0  0  0.105974  0.120644  0  1.000778  0
H  H22  1  0.17673666  0.33030970  0.32355925  1  0  0.125059  0  0.936567  0  0  0.145591  0  0.994337  0  0  0.147741  0  0.99295  0  0  0.115797  0.143929  0  0.995467  0
H  H23  1  0.32326701  0.83030412  0.17644916  1  0  0.125011  0  0.936461  0  0  0.145569  0  0.994235  0  0  0.147727  0  0.992846  0  0  0.11578  0.143908  0  0.995363  0
H  H24  1  0.82326525  0.66969940  0.67644425  1  0  0.125047  0  0.936569  0  0  0.145646  0  0.994274  0  0  0.147805  0  0.992891  0  0  0.115794  0.143977  0  0.995406  0
H  H25  1  0.67674300  0.16968942  0.82356183  1  0  0.12504  0  0.936621  0  0  0.145557  0  0.994393  0  0  0.147703  0  0.993012  0  0  0.115803  0.143892  0  0.995522  0
H  H26  1  0.72413615  0.27860837  0.27617069  1  0  0.1128  0  0.920633  0  0  0.134789  0  0.97756  0  0  0.135817  0  0.97698  0  0  0.110926  0.133958  0  0.978103  0
H  H27  1  0.77586263  0.77860620  0.22383328  1  0  0.112769  0  0.920623  0  0  0.134796  0  0.977502  0  0  0.135825  0  0.976922  0  0  0.110912  0.133966  0  0.978046  0
H  H28  1  0.27586581  0.72139036  0.72383423  1  0  0.112805  0  0.920573  0  0  0.134802  0  0.977493  0  0  0.135851  0  0.976886  0  0  0.110916  0.133974  0  0.978035  0
H  H29  1  0.22413931  0.22138422  0.77617094  1  0  0.112724  0  0.92059  0  0  0.134777  0  0.977443  0  0  0.135829  0  0.976832  0  0  0.110926  0.133943  0  0.977984  0
H  H30  1  0.57966518  0.19342296  0.17723129  1  0  0.105017  0  0.940414  0  0  0.125664  0  1.001337  0  0  0.125801  0  1.001997  0  0  0.108269  0.125576  0  1.000831  0
H  H31  1  0.92033166  0.69341327  0.32276873  1  0  0.105062  0  0.940419  0  0  0.125743  0  1.001291  0  0  0.125881  0  1.001948  0  0  0.108266  0.12565  0  1.000792  0
H  H32  1  0.42033665  0.80658303  0.82277009  1  0  0.105029  0  0.940462  0  0  0.125713  0  1.001331  0  0  0.12585  0  1.001992  0  0  0.10827  0.125622  0  1.000833  0
H  H33  1  0.07967166  0.30656678  0.67723062  1  0  0.105028  0  0.940422  0  0  0.125667  0  1.001354  0  0  0.125802  0  1.002017  0  0  0.108285  0.125574  0  1.000851  0
H  H34  1  0.69765474  0.09428255  0.27807697  1  0  0.11636  0  0.959149  0  0  0.135919  0  1.02296  0  0  0.137356  0  1.02165  0  0  0.115744  0.134782  0  1.024125  0
H  H35  1  0.80234017  0.59427935  0.22192046  1  0  0.116392  0  0.959087  0  0  0.135915  0  1.022935  0  0  0.137349  0  1.02163  0  0  0.115738  0.134779  0  1.024098  0
H  H36  1  0.30233767  0.90571722  0.72192320  1  0  0.116318  0  0.959231  0  0  0.135879  0  1.023032  0  0  0.137311  0  1.02173  0  0  0.11572  0.13474  0  1.024191  0
H  H37  1  0.19766454  0.40571004  0.77807402  1  0  0.116358  0  0.959036  0  0  0.13589  0  1.022887  0  0  0.137332  0  1.021574  0  0  0.115743  0.134753  0  1.024054  0
C  C38  1  0.36761066  0.10523301  0.35485484  1  0  0.408345  0  3.752922  0  0  0.342653  0  4.038279  0  0  0.374274  0  4.036725  0  0  0.194515  0.321201  0  4.038488  0
C  C39  1  0.13238881  0.60523436  0.14514122  1  0  0.408481  0  3.752992  0  0  0.342742  0  4.038479  0  0  0.374362  0  4.03693  0  0  0.194579  0.321298  0  4.038668  0
C  C40  1  0.63238316  0.89476883  0.64514117  1  0  0.408632  0  3.752898  0  0  0.342897  0  4.038378  0  0  0.374523  0  4.036818  0  0  0.194617  0.321448  0  4.038574  0
C  C41  1  0.86761736  0.39476852  0.85485051  1  0  0.408612  0  3.752716  0  0  0.342904  0  4.038158  0  0  0.374527  0  4.036599  0  0  0.194644  0.321452  0  4.038365  0
C  C42  1  0.24670663  0.74695855  0.49657349  1  0  0.607816  0  3.93878  0  0  0.566158  0  4.246895  0  0  0.602118  0  4.240658  0  0  0.196547  0.541987  0  4.249763  0
C  C43  1  0.25328844  0.24696506  0.00342004  1  0  0.607946  0  3.938696  0  0  0.566303  0  4.246791  0  0  0.602261  0  4.240552  0  0  0.196604  0.542126  0  4.249664  0
C  C44  1  0.75329839  0.25304121  0.50342948  1  0  0.607864  0  3.938577  0  0  0.566216  0  4.246704  0  0  0.602175  0  4.240468  0  0  0.196605  0.542041  0  4.249582  0
C  C45  1  0.74670196  0.75304196  0.99656803  1  0  0.607771  0  3.938792  0  0  0.566131  0  4.246901  0  0  0.602087  0  4.240667  0  0  0.196536  0.54196  0  4.249771  0
C  C46  1  0.37727323  0.61949126  0.49736308  1  0  -0.058121  0  3.752924  0  0  -0.033395  0  3.979468  0  0  -0.039708  0  4.000904  0  0  -0.013682  -0.029656  0  3.965287  0
C  C47  1  0.12272169  0.11949561  0.00263561  1  0  -0.058205  0  3.752845  0  0  -0.03355  0  3.97948  0  0  -0.039862  0  4.000916  0  0  -0.013757  -0.029804  0  3.965285  0
C  C48  1  0.62273357  0.38051058  0.50264562  1  0  -0.058285  0  3.7532  0  0  -0.033635  0  3.979819  0  0  -0.039952  0  4.001257  0  0  -0.013754  -0.029894  0  3.965636  0
C  C49  1  0.87727048  0.88050934  0.99735820  1  0  -0.058277  0  3.753091  0  0  -0.033603  0  3.979682  0  0  -0.039916  0  4.001117  0  0  -0.013738  -0.029861  0  3.965497  0
C  C50  1  0.30816836  0.49630144  0.53580947  1  0  -0.068905  0  3.718347  0  0  -0.092166  0  3.967953  0  0  -0.092671  0  3.986512  0  0  -0.077567  -0.091698  0  3.955659  0
C  C51  1  0.19183115  0.99630505  0.96419289  1  0  -0.068859  0  3.718281  0  0  -0.092102  0  3.967906  0  0  -0.092608  0  3.986464  0  0  -0.077519  -0.091629  0  3.955605  0
C  C52  1  0.69184002  0.50370040  0.46420003  1  0  -0.068808  0  3.718308  0  0  -0.092025  0  3.967911  0  0  -0.092529  0  3.986471  0  0  -0.077452  -0.091561  0  3.955624  0
C  C53  1  0.80816269  0.00369886  0.03580384  1  0  -0.068872  0  3.718356  0  0  -0.092125  0  3.967966  0  0  -0.09263  0  3.986526  0  0  -0.077559  -0.091655  0  3.955672  0
C  C54  1  0.56996396  0.62310255  0.46147151  1  0  -0.059178  0  3.690406  0  0  -0.08291  0  3.93837  0  0  -0.082784  0  3.956794  0  0  -0.071936  -0.082992  0  3.925888  0
C  C55  1  0.93003432  0.12310422  0.03853044  1  0  -0.059081  0  3.690258  0  0  -0.082799  0  3.938246  0  0  -0.082667  0  3.956663  0  0  -0.071879  -0.082883  0  3.925761  0
C  C56  1  0.43004751  0.37689929  0.53853674  1  0  -0.059165  0  3.690541  0  0  -0.082841  0  3.93852  0  0  -0.082713  0  3.956946  0  0  -0.071915  -0.082917  0  3.926029  0
C  C57  1  0.06995957  0.87689866  0.96146770  1  0  -0.059084  0  3.690387  0  0  -0.082809  0  3.938368  0  0  -0.082666  0  3.956776  0  0  -0.071927  -0.082895  0  3.925883  0
C  C58  1  0.30135867  0.32908228  0.27808786  1  0  -0.184065  0  3.626155  0  0  -0.284337  0  3.868355  0  0  -0.281054  0  3.878682  0  0  -0.134514  -0.286334  0  3.861333  0
C  C59  1  0.19864494  0.82907590  0.22191914  1  0  -0.183808  0  3.626138  0  0  -0.284202  0  3.868327  0  0  -0.280919  0  3.878672  0  0  -0.134491  -0.2862  0  3.861304  0
C  C60  1  0.69864635  0.67092683  0.72191511  1  0  -0.183911  0  3.626298  0  0  -0.284291  0  3.868493  0  0  -0.281046  0  3.878804  0  0  -0.134521  -0.286281  0  3.86147  0
C  C61  1  0.80136185  0.17091453  0.77808957  1  0  -0.183953  0  3.625963  0  0  -0.284155  0  3.868128  0  0  -0.280886  0  3.878441  0  0  -0.134472  -0.286157  0  3.861105  0
C  C62  1  0.61838524  0.19140126  0.25508698  1  0  -0.179856  0  3.635081  0  0  -0.28072  0  3.87988  0  0  -0.277176  0  3.890494  0  0  -0.12625  -0.282838  0  3.872462  0
C  C63  1  0.88161162  0.69139722  0.24491374  1  0  -0.179935  0  3.635008  0  0  -0.280818  0  3.879773  0  0  -0.277273  0  3.890383  0  0  -0.126232  -0.282929  0  3.872354  0
C  C64  1  0.38161192  0.80860162  0.74491486  1  0  -0.179817  0  3.635181  0  0  -0.280711  0  3.879931  0  0  -0.277178  0  3.890534  0  0  -0.126227  -0.282826  0  3.872512  0
C  C65  1  0.11839172  0.30859113  0.75508631  1  0  -0.179853  0  3.63487  0  0  -0.280733  0  3.879691  0  0  -0.27721  0  3.890289  0  0  -0.126297  -0.282851  0  3.872272  0
N  N66  1  0.42781777  0.20483218  0.29931923  1  0  -0.070722  0  3.493224  0  0  0.032083  0  3.725542  0  0  0.010711  0  3.751641  0  0  -0.271383  0.046691  0  3.707186  0
N  N67  1  0.07218217  0.70482766  0.20068216  1  0  -0.070816  0  3.493218  0  0  0.031998  0  3.725603  0  0  0.010628  0  3.751697  0  0  -0.27144  0.046603  0  3.707241  0
N  N68  1  0.57217934  0.79517381  0.70068119  1  0  -0.070967  0  3.493353  0  0  0.031858  0  3.72572  0  0  0.010481  0  3.75183  0  0  -0.271421  0.046461  0  3.707359  0
N  N69  1  0.92782274  0.29516691  0.79931797  1  0  -0.070811  0  3.493189  0  0  0.031987  0  3.725538  0  0  0.010611  0  3.751646  0  0  -0.271418  0.046593  0  3.707178  0
O  O70  1  0.17370313  0.06127187  0.60331542  1  0  -0.730943  0  1.597399  0  0  -0.736557  0  1.896945  0  0  -0.756831  0  1.882639  0  0  -0.763437  -0.724686  0  1.907176  0
O  O71  1  0.32628853  0.56127716  0.89667573  1  0  -0.730769  0  1.597016  0  0  -0.736401  0  1.896579  0  0  -0.75671  0  1.882323  0  0  -0.763252  -0.724554  0  1.906866  0
O  O72  1  0.82628904  0.93872478  0.39667839  1  0  -0.730934  0  1.597137  0  0  -0.736615  0  1.896745  0  0  -0.756913  0  1.882467  0  0  -0.763261  -0.724768  0  1.907018  0
O  O73  1  0.67369881  0.43872572  0.10331430  1  0  -0.731033  0  1.597422  0  0  -0.736622  0  1.896936  0  0  -0.756906  0  1.882638  0  0  -0.763363  -0.724766  0  1.907195  0
O  O74  1  0.07571761  0.74570539  0.53275708  1  0  -0.620357  0  1.993025  0  0  -0.604077  0  2.256281  0  0  -0.63492  0  2.253299  0  0  -0.336917  -0.58209  0  2.257108  0
O  O75  1  0.42426834  0.24570900  0.96723516  1  0  -0.620343  0  1.993031  0  0  -0.604075  0  2.256298  0  0  -0.634915  0  2.253309  0  0  -0.336963  -0.582103  0  2.257141  0
O  O76  1  0.92428579  0.25429541  0.46724439  1  0  -0.620358  0  1.992926  0  0  -0.604032  0  2.256148  0  0  -0.634873  0  2.253161  0  0  -0.336914  -0.582054  0  2.256991  0
O  O77  1  0.57570615  0.75430218  0.03274571  1  0  -0.620272  0  1.99304  0  0  -0.603932  0  2.256233  0  0  -0.634775  0  2.253252  0  0  -0.33679  -0.581961  0  2.257082  0
O  O78  1  0.30540226  0.85985272  0.46033733  1  0  -0.6408  0  2.028237  0  0  -0.622159  0  2.295031  0  0  -0.655138  0  2.29246  0  0  -0.337114  -0.599184  0  2.295614  0
O  O79  1  0.19459627  0.35986048  0.03965680  1  0  -0.640915  0  2.02826  0  0  -0.622236  0  2.295007  0  0  -0.655215  0  2.292438  0  0  -0.337155  -0.59926  0  2.295585  0
O  O80  1  0.69459944  0.14014601  0.53966052  1  0  -0.640818  0  2.028233  0  0  -0.62217  0  2.295014  0  0  -0.655152  0  2.292453  0  0  -0.337157  -0.59919  0  2.295594  0
O  O81  1  0.80540225  0.64014447  0.96033946  1  0  -0.640799  0  2.028253  0  0  -0.62218  0  2.295045  0  0  -0.655161  0  2.292481  0  0  -0.3372  -0.599203  0  2.295627  0
O  O82  1  0.19687433  0.11032592  0.38887975  1  0  -0.567249  0  2.175957  0  0  -0.54525  0  2.458201  0  0  -0.578115  0  2.456255  0  0  -0.35155  -0.52167  0  2.4582  0
O  O83  1  0.30311881  0.61033025  0.11111388  1  0  -0.567242  0  2.176003  0  0  -0.545229  0  2.458261  0  0  -0.578098  0  2.456324  0  0  -0.351542  -0.521658  0  2.458262  0
O  O84  1  0.80311468  0.88967385  0.61111319  1  0  -0.567328  0  2.176034  0  0  -0.545309  0  2.458265  0  0  -0.578179  0  2.456323  0  0  -0.351555  -0.521729  0  2.458251  0
O  O85  1  0.69687799  0.38967782  0.88887806  1  0  -0.567387  0  2.175916  0  0  -0.545402  0  2.458186  0  0  -0.57827  0  2.456237  0  0  -0.351595  -0.521818  0  2.458169  0
