# generated using pymatgen
data_Cu2H4C6NClO2
_symmetry_space_group_name_H-M   'P 1'
_cell_length_a   3.60683915
_cell_length_b   10.39236631
_cell_length_c   18.88142721
_cell_angle_alpha   90.00173115
_cell_angle_beta   90.00040102
_cell_angle_gamma   90.00011845
_symmetry_Int_Tables_number   1
_chemical_formula_structural   Cu2H4C6NClO2
_chemical_formula_sum   'Cu8 H16 C24 N4 Cl4 O8'
_cell_volume   707.74374510
_cell_formula_units_Z   4
loop_
 _symmetry_equiv_pos_site_id
 _symmetry_equiv_pos_as_xyz
  1  'x, y, z'
loop_
 _atom_site_type_symbol
 _atom_site_label
 _atom_site_symmetry_multiplicity
 _atom_site_fract_x
 _atom_site_fract_y
 _atom_site_fract_z
 _atom_site_occupancy
 _atom_site_hle17_bader_spin_density
 _atom_site_hle17_ddec_charge
 _atom_site_hle17_ddec_spin_density
 _atom_site_hle17_ddec_sum_bond_order
 _atom_site_hle17_magmom
 _atom_site_hse06_10hf_bader_spin_density
 _atom_site_hse06_10hf_ddec_charge
 _atom_site_hse06_10hf_ddec_spin_density
 _atom_site_hse06_10hf_ddec_sum_bond_order
 _atom_site_hse06_10hf_magmom
 _atom_site_hse06_bader_spin_density
 _atom_site_hse06_ddec_charge
 _atom_site_hse06_ddec_spin_density
 _atom_site_hse06_ddec_sum_bond_order
 _atom_site_hse06_magmom
 _atom_site_pbe_bader_spin_density
 _atom_site_pbe_cm5_charge
 _atom_site_pbe_ddec_charge
 _atom_site_pbe_ddec_spin_density
 _atom_site_pbe_ddec_sum_bond_order
 _atom_site_pbe_magmom
Cu  Cu0  1  0.04506283  0.15400569  0.50191305  1  0  0.480786  0  1.777989  0  0  0.377621  0  2.270076  0  0  0.40204  0  2.191443  0  0  0.384713  0.362949  0  2.324595  0
Cu  Cu1  1  0.45494982  0.84599904  0.00191238  1  0  0.480724  0  1.778106  0  0  0.377545  0  2.27018  0  0  0.401977  0  2.191548  0  0  0.384698  0.362887  0  2.324682  0
Cu  Cu2  1  0.95494493  0.65400294  0.99808688  1  0  0.480754  0  1.778047  0  0  0.377606  0  2.270109  0  0  0.402033  0  2.19148  0  0  0.384726  0.362942  0  2.324618  0
Cu  Cu3  1  0.54506078  0.34600243  0.49809006  1  0  0.480684  0  1.778112  0  0  0.377524  0  2.270197  0  0  0.401968  0  2.191568  0  0  0.384727  0.36288  0  2.324699  0
Cu  Cu4  1  0.36766767  0.68045924  0.45685378  1  0  0.394425  0  1.987184  0  0  0.30151  0  2.484635  0  0  0.305123  0  2.430556  0  0  0.358095  0.301529  0  2.520976  0
Cu  Cu5  1  0.13235574  0.31955030  0.95685308  1  0  0.394427  0  1.987297  0  0  0.301586  0  2.484656  0  0  0.305225  0  2.430588  0  0  0.358104  0.301621  0  2.520983  0
Cu  Cu6  1  0.63231960  0.18044536  0.04315121  1  0  0.394447  0  1.987375  0  0  0.301616  0  2.484697  0  0  0.305184  0  2.430612  0  0  0.358127  0.301616  0  2.521028  0
Cu  Cu7  1  0.86765041  0.81954846  0.54314536  1  0  0.394409  0  1.987309  0  0  0.301458  0  2.48477  0  0  0.305092  0  2.430699  0  0  0.358068  0.301501  0  2.521106  0
H  H8  1  0.52638662  0.45932419  0.71283853  1  0  0.110598  0  0.959597  0  0  0.120138  0  1.022583  0  0  0.123274  0  1.021726  0  0  0.108363  0.117699  0  1.023832  0
H  H9  1  0.97366432  0.54067703  0.21283705  1  0  0.11054  0  0.959899  0  0  0.120102  0  1.022805  0  0  0.123235  0  1.021956  0  0  0.108368  0.117654  0  1.024076  0
H  H10  1  0.47363992  0.95931437  0.78716171  1  0  0.110637  0  0.959697  0  0  0.120181  0  1.022635  0  0  0.123317  0  1.021782  0  0  0.108411  0.117739  0  1.023905  0
H  H11  1  0.02636909  0.04068487  0.28716297  1  0  0.110635  0  0.959658  0  0  0.120179  0  1.022624  0  0  0.123313  0  1.021772  0  0  0.108405  0.117743  0  1.023873  0
H  H12  1  0.47598480  0.47153006  0.84572262  1  0  0.09504  0  0.932133  0  0  0.102415  0  0.997775  0  0  0.105973  0  0.994572  0  0  0.11499  0.099743  0  1.000308  0
H  H13  1  0.02400136  0.52847914  0.34571927  1  0  0.094878  0  0.931973  0  0  0.102274  0  0.997627  0  0  0.105829  0  0.994426  0  0  0.114919  0.099596  0  1.000167  0
H  H14  1  0.52402242  0.97152066  0.65427835  1  0  0.094993  0  0.931946  0  0  0.102356  0  0.997624  0  0  0.105911  0  0.994427  0  0  0.114959  0.099684  0  1.00016  0
H  H15  1  0.97595157  0.02847254  0.15428055  1  0  0.094862  0  0.93212  0  0  0.102295  0  0.997708  0  0  0.105853  0  0.994505  0  0  0.114944  0.099621  0  1.000246  0
H  H16  1  0.95581383  0.11633320  0.85506622  1  0  0.094734  0  0.938073  0  0  0.103577  0  0.999545  0  0  0.106734  0  0.997417  0  0  0.110797  0.101116  0  1.001454  0
H  H17  1  0.54412023  0.88368547  0.35507144  1  0  0.094759  0  0.938245  0  0  0.103628  0  0.999659  0  0  0.106781  0  0.997527  0  0  0.110839  0.101177  0  1.00155  0
H  H18  1  0.04416595  0.61632011  0.64492938  1  0  0.09472  0  0.938226  0  0  0.103576  0  0.99966  0  0  0.106728  0  0.997528  0  0  0.110799  0.101119  0  1.001554  0
H  H19  1  0.45579083  0.38367612  0.14493640  1  0  0.094714  0  0.938032  0  0  0.103549  0  0.999512  0  0  0.106715  0  0.997387  0  0  0.110746  0.101084  0  1.001424  0
H  H20  1  0.98451517  0.09167590  0.72281597  1  0  0.101424  0  0.986406  0  0  0.110244  0  1.053122  0  0  0.112735  0  1.053104  0  0  0.104961  0.108327  0  1.053671  0
H  H21  1  0.51550841  0.90833261  0.22281997  1  0  0.101293  0  0.986282  0  0  0.110112  0  1.053034  0  0  0.112602  0  1.053021  0  0  0.104925  0.108193  0  1.053573  0
H  H22  1  0.01549493  0.59165756  0.77717763  1  0  0.101303  0  0.986218  0  0  0.110099  0  1.053013  0  0  0.112588  0  1.052998  0  0  0.104935  0.108183  0  1.053547  0
H  H23  1  0.48451096  0.40833536  0.27718669  1  0  0.101388  0  0.986371  0  0  0.110194  0  1.05312  0  0  0.112685  0  1.053101  0  0  0.104935  0.108269  0  1.053674  0
C  C24  1  0.27048724  0.26391588  0.62891352  1  0  0.631475  0  3.856592  0  0  0.580445  0  4.134166  0  0  0.617666  0  4.126476  0  0  0.206346  0.554987  0  4.138535  0
C  C25  1  0.22953273  0.73608044  0.12890860  1  0  0.63168  0  3.856175  0  0  0.580654  0  4.133777  0  0  0.617875  0  4.12608  0  0  0.206527  0.555199  0  4.138147  0
C  C26  1  0.72952961  0.76391082  0.87108665  1  0  0.631666  0  3.856257  0  0  0.580785  0  4.133737  0  0  0.618  0  4.126038  0  0  0.206424  0.555326  0  4.138119  0
C  C27  1  0.77047433  0.23608948  0.37108831  1  0  0.63155  0  3.85657  0  0  0.580544  0  4.134134  0  0  0.61776  0  4.126441  0  0  0.206443  0.555089  0  4.1385  0
C  C28  1  0.25437486  0.27461724  0.70748446  1  0  -0.005928  0  3.726377  0  0  0.011716  0  3.956675  0  0  0.010865  0  3.973897  0  0  -0.001373  0.011839  0  3.945365  0
C  C29  1  0.24565071  0.72538436  0.20748839  1  0  -0.005826  0  3.726189  0  0  0.011705  0  3.956611  0  0  0.010858  0  3.973826  0  0  -0.001401  0.011826  0  3.945289  0
C  C30  1  0.74564762  0.77460594  0.79251324  1  0  -0.005953  0  3.726129  0  0  0.011398  0  3.956776  0  0  0.010556  0  3.973982  0  0  -0.001455  0.011522  0  3.94546  0
C  C31  1  0.75436460  0.22538523  0.29251788  1  0  -0.00589  0  3.726523  0  0  0.011651  0  3.956943  0  0  0.010809  0  3.974155  0  0  -0.001426  0.011768  0  3.945636  0
C  C32  1  0.39509465  0.38242238  0.74284930  1  0  -0.121773  0  3.712734  0  0  -0.143529  0  3.959562  0  0  -0.148387  0  3.979917  0  0  -0.080937  -0.140469  0  3.946575  0
C  C33  1  0.10490446  0.61756385  0.24284860  1  0  -0.121862  0  3.712973  0  0  -0.143585  0  3.959823  0  0  -0.148442  0  3.980174  0  0  -0.080967  -0.140536  0  3.946852  0
C  C34  1  0.60491195  0.88242542  0.75715125  1  0  -0.121739  0  3.712822  0  0  -0.143405  0  3.959715  0  0  -0.148267  0  3.980068  0  0  -0.080909  -0.140358  0  3.946747  0
C  C35  1  0.89507682  0.11757728  0.25715217  1  0  -0.121847  0  3.713004  0  0  -0.143592  0  3.959878  0  0  -0.148451  0  3.980231  0  0  -0.080993  -0.140542  0  3.946906  0
C  C36  1  0.36679420  0.38964795  0.81608586  1  0  0.10772  0  3.669805  0  0  0.079046  0  3.925814  0  0  0.085302  0  3.939509  0  0  0.035746  0.074554  0  3.917576  0
C  C37  1  0.13321863  0.61036250  0.31608137  1  0  0.108024  0  3.670216  0  0  0.079312  0  3.926197  0  0  0.085563  0  3.939903  0  0  0.035958  0.074887  0  3.917846  0
C  C38  1  0.63322077  0.88963351  0.68391851  1  0  0.107694  0  3.670332  0  0  0.078991  0  3.926289  0  0  0.085244  0  3.939998  0  0  0.035788  0.074532  0  3.918015  0
C  C39  1  0.86676537  0.11035169  0.18391769  1  0  0.108001  0  3.669849  0  0  0.079297  0  3.925843  0  0  0.085555  0  3.939531  0  0  0.035874  0.074829  0  3.917554  0
C  C40  1  0.07715772  0.19041716  0.82136115  1  0  0.1132  0  3.677121  0  0  0.083769  0  3.929609  0  0  0.089953  0  3.944068  0  0  0.035878  0.079341  0  3.920897  0
C  C41  1  0.42283311  0.80958878  0.32136566  1  0  0.112974  0  3.677221  0  0  0.083513  0  3.92967  0  0  0.089715  0  3.944111  0  0  0.035778  0.079018  0  3.921065  0
C  C42  1  0.92284198  0.69040837  0.67863356  1  0  0.112995  0  3.677413  0  0  0.083534  0  3.929808  0  0  0.089735  0  3.944254  0  0  0.035772  0.079063  0  3.921174  0
C  C43  1  0.57714397  0.30958424  0.17863935  1  0  0.113249  0  3.677061  0  0  0.083831  0  3.929517  0  0  0.090008  0  3.943981  0  0  0.035914  0.07941  0  3.920773  0
C  C44  1  0.09598171  0.17690236  0.74842536  1  0  -0.12684  0  3.733176  0  0  -0.148143  0  3.980352  0  0  -0.153049  0  4.00117  0  0  -0.084  -0.145064  0  3.967045  0
C  C45  1  0.40401205  0.82308513  0.24842742  1  0  -0.12661  0  3.733328  0  0  -0.147866  0  3.980484  0  0  -0.152773  0  4.001299  0  0  -0.083911  -0.144778  0  3.96717  0
C  C46  1  0.90400403  0.67690430  0.75156913  1  0  -0.1265  0  3.733244  0  0  -0.147702  0  3.98043  0  0  -0.152607  0  4.001243  0  0  -0.083884  -0.144616  0  3.967109  0
C  C47  1  0.59597899  0.32309809  0.25157729  1  0  -0.126896  0  3.733156  0  0  -0.148156  0  3.980344  0  0  -0.153063  0  4.00116  0  0  -0.083976  -0.145081  0  3.967043  0
N  N48  1  0.20576161  0.29595618  0.85540721  1  0  -0.275274  0  3.388011  0  0  -0.20365  0  3.687742  0  0  -0.210706  0  3.691478  0  0  -0.367883  -0.199518  0  3.684462  0
N  N49  1  0.29421658  0.70404297  0.35540450  1  0  -0.275274  0  3.388169  0  0  -0.203608  0  3.687869  0  0  -0.210668  0  3.691593  0  0  -0.367983  -0.199482  0  3.68459  0
N  N50  1  0.79422497  0.79595410  0.64459137  1  0  -0.275243  0  3.388211  0  0  -0.20348  0  3.687764  0  0  -0.210548  0  3.691504  0  0  -0.36785  -0.199363  0  3.684496  0
N  N51  1  0.70573758  0.20404049  0.14459400  1  0  -0.275319  0  3.388051  0  0  -0.20372  0  3.687857  0  0  -0.210765  0  3.691555  0  0  -0.36791  -0.19959  0  3.684573  0
Cl  Cl52  1  0.35036309  0.91998692  0.49008047  1  0  -0.460328  0  1.61252  0  0  -0.385572  0  2.053707  0  0  -0.399658  0  2.004181  0  0  -0.266817  -0.377655  0  2.089588  0
Cl  Cl53  1  0.14962269  0.08002252  0.99007423  1  0  -0.460375  0  1.612572  0  0  -0.38562  0  2.053672  0  0  -0.399685  0  2.004126  0  0  -0.266836  -0.377698  0  2.089543  0
Cl  Cl54  1  0.64963694  0.41997508  0.00992532  1  0  -0.460386  0  1.612516  0  0  -0.385688  0  2.05375  0  0  -0.399779  0  2.004232  0  0  -0.266849  -0.377773  0  2.089629  0
Cl  Cl55  1  0.85036514  0.58001884  0.50991812  1  0  -0.460348  0  1.612586  0  0  -0.385586  0  2.053765  0  0  -0.39967  0  2.004233  0  0  -0.26682  -0.377674  0  2.089647  0
O  O56  1  0.11817021  0.16487988  0.60107572  1  0  -0.578176  0  2.205974  0  0  -0.503927  0  2.495615  0  0  -0.53272  0  2.476969  0  0  -0.33043  -0.484159  0  2.507882  0
O  O57  1  0.38187373  0.83512934  0.10107318  1  0  -0.578405  0  2.205531  0  0  -0.50416  0  2.495228  0  0  -0.532962  0  2.476577  0  0  -0.330567  -0.484383  0  2.507493  0
O  O58  1  0.88185982  0.66486489  0.89892546  1  0  -0.578335  0  2.205621  0  0  -0.504133  0  2.495276  0  0  -0.532934  0  2.476627  0  0  -0.330495  -0.484353  0  2.507541  0
O  O59  1  0.61815898  0.33512636  0.39892803  1  0  -0.578207  0  2.205801  0  0  -0.503964  0  2.495488  0  0  -0.532762  0  2.476846  0  0  -0.330496  -0.484194  0  2.507755  0
O  O60  1  0.43418709  0.35456232  0.59577865  1  0  -0.560981  0  2.21762  0  0  -0.485603  0  2.497602  0  0  -0.515109  0  2.482193  0  0  -0.32845  -0.465173  0  2.507292  0
O  O61  1  0.06584557  0.64544468  0.09577571  1  0  -0.560984  0  2.218054  0  0  -0.485554  0  2.498  0  0  -0.515049  0  2.48258  0  0  -0.328465  -0.465129  0  2.5077  0
O  O62  1  0.56584981  0.85454841  0.90421932  1  0  -0.561044  0  2.217943  0  0  -0.485676  0  2.497874  0  0  -0.515171  0  2.482449  0  0  -0.328439  -0.465253  0  2.507585  0
O  O63  1  0.93416086  0.14544314  0.40422076  1  0  -0.561062  0  2.217782  0  0  -0.485651  0  2.497731  0  0  -0.515152  0  2.482315  0  0  -0.32848  -0.46522  0  2.507421  0
