# generated using pymatgen
data_Zn4H26C28S2O15
_symmetry_space_group_name_H-M   'P 1'
_cell_length_a   17.85373602
_cell_length_b   18.62339575
_cell_length_c   19.40661205
_cell_angle_alpha   118.86116682
_cell_angle_beta   116.06767049
_cell_angle_gamma   89.92059965
_symmetry_Int_Tables_number   1
_chemical_formula_structural   Zn4H26C28S2O15
_chemical_formula_sum   'Zn8 H52 C56 S4 O30'
_cell_volume   4890.81708150
_cell_formula_units_Z   2
loop_
 _symmetry_equiv_pos_site_id
 _symmetry_equiv_pos_as_xyz
  1  'x, y, z'
loop_
 _atom_site_type_symbol
 _atom_site_label
 _atom_site_symmetry_multiplicity
 _atom_site_fract_x
 _atom_site_fract_y
 _atom_site_fract_z
 _atom_site_occupancy
 _atom_site_pbe_bader_charge
 _atom_site_pbe_bader_spin_density
 _atom_site_pbe_cm5_charge
 _atom_site_pbe_ddec_charge
 _atom_site_pbe_ddec_spin_density
 _atom_site_pbe_ddec_sum_bond_order
 _atom_site_pbe_magmom
Zn  Zn0  1  0.87009929  0.45818332  0.92132270  1  1.303924  0  0.669279  0.953776  0  2.384921  0
Zn  Zn1  1  0.03684405  0.44940223  0.06909229  1  1.303363  0  0.665407  0.954277  0  2.399939  0
Zn  Zn2  1  0.03261535  0.61932767  0.06662670  1  1.3108  0  0.668173  0.947952  0  2.415117  0
Zn  Zn3  1  0.04649643  0.45628547  0.90943287  1  1.30899  0  0.667175  0.966436  0  2.335366  0
Zn  Zn4  1  0.62329360  0.03189786  0.06659283  1  1.312374  0  0.669635  0.955069  0  2.387833  0
Zn  Zn5  1  0.45910783  0.87216337  0.91507174  1  1.304838  0  0.668922  0.949662  0  2.409234  0
Zn  Zn6  1  0.46289678  0.04151485  0.91336344  1  1.314867  0  0.665636  0.954478  0  2.397559  0
Zn  Zn7  1  0.44150383  0.03598815  0.06817391  1  1.309022  0  0.66747  0.967103  0  2.335177  0
H  H8  1  0.78646628  0.68384315  0.87997836  1  0.029694  0  0.091473  0.086263  0  0.97831  0
H  H9  1  0.87230613  0.76922633  0.98347300  1  0.012466  0  0.092787  0.091451  0  0.984421  0
H  H10  1  0.78260304  0.86060798  0.98003017  1  0.042029  0  0.09254  0.091155  0  0.983586  0
H  H11  1  0.69702500  0.77449338  0.87695073  1  0.038932  0  0.091383  0.086029  0  0.98023  0
H  H12  1  0.80334877  0.89381091  0.12959148  1  0.066978  0  0.092576  0.094405  0  0.98533  0
H  H13  1  0.73237209  0.83285095  0.13444828  1  0.013708  0  0.089542  0.084081  0  0.980335  0
H  H14  1  0.89228568  0.80126607  0.13304699  1  0.033665  0  0.092729  0.094243  0  0.987089  0
H  H15  1  0.81969828  0.74005650  0.13608208  1  0.010361  0  0.089194  0.082847  0  0.980202  0
H  H16  1  0.68244141  0.59348793  0.88353287  1  0.036703  0  0.090854  0.091596  0  0.984725  0
H  H17  1  0.69636755  0.61644834  0.98808023  1  0.021426  0  0.08934  0.08591  0  0.98132  0
H  H18  1  0.60723876  0.70824397  0.98560109  1  0.02252  0  0.089236  0.085567  0  0.98242  0
H  H19  1  0.59349403  0.68542172  0.88120870  1  0.018161  0  0.090983  0.091026  0  0.985752  0
H  H20  1  0.09099804  0.18264550  0.87008847  1  0.016897  0  0.090274  0.083902  0  0.981099  0
H  H21  1  0.10847831  0.20862987  0.97744422  1  0.018558  0  0.092235  0.091006  0  0.983995  0
H  H22  1  0.19704810  0.11604511  0.97843997  1  0.03308  0  0.092398  0.091072  0  0.983425  0
H  H23  1  0.17943769  0.09111477  0.87131777  1  0.017329  0  0.090924  0.085744  0  0.98038  0
H  H24  1  0.32005770  0.23795237  0.12185529  1  0.028463  0  0.092174  0.092884  0  0.987088  0
H  H25  1  0.39181809  0.29970607  0.11852141  1  0.024411  0  0.08917  0.08329  0  0.980782  0
H  H26  1  0.23262702  0.33173955  0.12105757  1  0.040233  0  0.092452  0.093859  0  0.98983  0
H  H27  1  0.30389680  0.39177969  0.11562422  1  0.028561  0  0.089159  0.083156  0  0.980121  0
H  H28  1  0.19144032  0.26999151  0.86116417  1  0.036023  0  0.089824  0.088898  0  0.986627  0
H  H29  1  0.27818870  0.35564621  0.96108006  1  0.032333  0  0.089279  0.086676  0  0.981332  0
H  H30  1  0.36726202  0.26374438  0.96306930  1  0.04789  0  0.089237  0.086223  0  0.981809  0
H  H31  1  0.28063335  0.17826193  0.86326055  1  0.039119  0  0.089271  0.087851  0  0.987009  0
H  H32  1  0.82554628  0.19419519  0.91485165  1  0.014787  0  0.091165  0.086211  0  0.979661  0
H  H33  1  0.73447956  0.22335602  0.85893114  1  0.004534  0  0.093889  0.093921  0  0.981988  0
H  H34  1  0.64551131  0.12733818  0.85450445  1  0.041864  0  0.093243  0.092116  0  0.983297  0
H  H35  1  0.73730245  0.09953463  0.91151403  1  0.023567  0  0.09122  0.086004  0  0.978847  0
H  H36  1  0.59766102  0.24838976  0.94392226  1  0.02888  0  0.092207  0.09311  0  0.988172  0
H  H37  1  0.65428713  0.30549302  0.06371636  1  0.030877  0  0.088798  0.082239  0  0.981826  0
H  H38  1  0.68771259  0.34502220  0.94955094  1  0.024391  0  0.092882  0.095109  0  0.986787  0
H  H39  1  0.74443355  0.40069660  0.06933014  1  0.032673  0  0.089414  0.08378  0  0.980939  0
H  H40  1  0.90883459  0.27569573  0.08787870  1  0.037356  0  0.090031  0.08952  0  0.986868  0
H  H41  1  0.87577123  0.36008546  0.15072676  1  0.012553  0  0.088593  0.084646  0  0.982106  0
H  H42  1  0.78607318  0.26476553  0.14641681  1  0.042985  0  0.089187  0.086219  0  0.983273  0
H  H43  1  0.81917259  0.18047326  0.08364440  1  0.041827  0  0.090761  0.09041  0  0.984388  0
H  H44  1  0.08619863  0.71910831  0.90131125  1  0.013213  0  0.091194  0.08626  0  0.979235  0
H  H45  1  0.12203819  0.63482409  0.84060128  1  0.043138  0  0.092685  0.090747  0  0.981956  0
H  H46  1  0.20934195  0.73123201  0.84387567  1  0.067963  0  0.09322  0.091756  0  0.982682  0
H  H47  1  0.17474639  0.81530923  0.90668101  1  0.041672  0  0.09111  0.085476  0  0.978993  0
H  H48  1  0.33869712  0.69055780  0.92448537  1  0.042305  0  0.09294  0.09502  0  0.986754  0
H  H49  1  0.39803478  0.74676707  0.04414577  1  0.02394  0  0.089207  0.083217  0  0.980511  0
H  H50  1  0.25102972  0.59587390  0.92330558  1  0.051971  0  0.091728  0.091943  0  0.987612  0
H  H51  1  0.30985978  0.65393934  0.04311633  1  0.023272  0  0.088806  0.082145  0  0.981417  0
H  H52  1  0.16940920  0.80358669  0.07421565  1  0.022686  0  0.090646  0.091266  0  0.986732  0
H  H53  1  0.25966666  0.77657853  0.13270018  1  0.040642  0  0.089328  0.086884  0  0.979653  0
H  H54  1  0.35022284  0.86989515  0.13581680  1  0.030019  0  0.089002  0.085603  0  0.981283  0
H  H55  1  0.26004299  0.89844200  0.07928572  1  0.03124  0  0.089867  0.089026  0  0.985553  0
H  H56  1  0.61403568  0.28670206  0.57341911  1  0.603188  0  0.342729  0.368707  0  0.864568  0
H  H57  1  0.86736472  0.20574057  0.41163904  1  0.616609  0  0.342101  0.368137  0  0.865512  0
H  H58  1  0.21082566  0.87202605  0.42117245  1  0.617462  0  0.342686  0.3684  0  0.865505  0
H  H59  1  0.28352715  0.61970005  0.56209155  1  0.624355  0  0.342916  0.369076  0  0.864894  0
C  C60  1  0.85864641  0.36449575  0.00391067  1  1.533124  0  0.23374  0.599961  0  4.101754  0
C  C61  1  0.12045869  0.62027912  0.23649768  1  1.531862  0  0.210388  0.616692  0  4.229738  0
C  C62  1  0.85609107  0.63657315  0.00079954  1  1.538016  0  0.233714  0.601126  0  4.100142  0
C  C63  1  0.13512234  0.63061184  0.98359327  1  1.545749  0  0.23431  0.600924  0  4.099838  0
C  C64  1  0.87055658  0.37318947  0.74702927  1  1.547383  0  0.210229  0.617559  0  4.226813  0
C  C65  1  0.13623253  0.35472122  0.98458842  1  1.52228  0  0.234245  0.602946  0  4.095725  0
C  C66  1  0.63961816  0.85796419  0.99570255  1  1.558708  0  0.233457  0.599812  0  4.10159  0
C  C67  1  0.38155960  0.87130941  0.74561781  1  1.570014  0  0.210062  0.616075  0  4.231714  0
C  C68  1  0.64151773  0.13568291  0.99493866  1  1.523747  0  0.234357  0.601092  0  4.100636  0
C  C69  1  0.35300410  0.13223864  0.98776078  1  1.540195  0  0.234479  0.602151  0  4.097818  0
C  C70  1  0.61209149  0.11800849  0.23602947  1  1.54155  0  0.209984  0.617506  0  4.229869  0
C  C71  1  0.35114562  0.85780638  0.98857781  1  1.561226  0  0.233137  0.599037  0  4.099518  0
C  C72  1  0.72881342  0.29583991  0.59169153  1  0.651992  0  0.0844  0.277272  0  4.087632  0
C  C73  1  0.75212828  0.19574689  0.39188203  1  0.573761  0  0.08464  0.278316  0  4.087489  0
C  C74  1  0.81869021  0.32358658  0.64765850  1  -0.11676  0  -0.039319  -0.231777  0  3.917174  0
C  C75  1  0.66230273  0.16795331  0.33554264  1  -0.065277  0  -0.038914  -0.230881  0  3.914869  0
C  C76  1  0.77602688  0.24246210  0.48518498  1  -0.144466  0  -0.039773  -0.137914  0  4.154399  0
C  C77  1  0.70459171  0.24931331  0.49821152  1  -0.213046  0  -0.039947  -0.137251  0  4.143184  0
C  C78  1  0.19859413  0.75852432  0.39556149  1  0.572847  0  0.085718  0.27974  0  4.093216  0
C  C79  1  0.29807587  0.73296865  0.58703720  1  0.547598  0  0.08587  0.280092  0  4.086829  0
C  C80  1  0.16918403  0.67039036  0.33572898  1  -0.078956  0  -0.03944  -0.232712  0  3.925719  0
C  C81  1  0.32929439  0.82111652  0.64660710  1  -0.070551  0  -0.040342  -0.233187  0  3.926154  0
C  C82  1  0.25007121  0.71024641  0.49528703  1  -0.150502  0  -0.040193  -0.138327  0  4.151535  0
C  C83  1  0.24541219  0.78111068  0.48727041  1  -0.153115  0  -0.039877  -0.137853  0  4.155835  0
C  C84  1  0.80429229  0.73501085  0.94944885  1  -0.015745  0  -0.154893  -0.169247  0  3.849728  0
C  C85  1  0.74486358  0.79561348  0.94742426  1  -0.055929  0  -0.15491  -0.168576  0  3.852934  0
C  C86  1  0.69687630  0.79745769  0.99784987  1  0.054857  0  -0.015997  0.021979  0  3.811942  0
C  C87  1  0.76543000  0.82892799  0.09691649  1  -0.045984  0  -0.159442  -0.174922  0  3.863323  0
C  C88  1  0.82405992  0.76765895  0.09857538  1  -0.018786  0  -0.159023  -0.171474  0  3.861599  0
C  C89  1  0.79634127  0.69495019  0.00059775  1  0.036413  0  -0.016375  0.020691  0  3.812694  0
C  C90  1  0.70164318  0.64606724  0.95265542  1  -0.02843  0  -0.164821  -0.17784  0  3.891215  0
C  C91  1  0.64279518  0.70681991  0.95112638  1  0.006688  0  -0.16545  -0.176701  0  3.8918  0
C  C92  1  0.14152105  0.20531750  0.94017420  1  -0.001598  0  -0.154708  -0.166896  0  3.846891  0
C  C93  1  0.20050623  0.14406290  0.94103988  1  -0.031956  0  -0.155362  -0.170235  0  3.852136  0
C  C94  1  0.29541594  0.19283735  0.98628299  1  0.040413  0  -0.016748  0.021881  0  3.805889  0
C  C95  1  0.32362127  0.26568675  0.08433115  1  -0.021626  0  -0.159544  -0.173184  0  3.868823  0
C  C96  1  0.26525382  0.32711162  0.08313072  1  -0.040258  0  -0.159701  -0.173077  0  3.864775  0
C  C97  1  0.19586964  0.29588339  0.98430198  1  0.06908  0  -0.016681  0.021475  0  3.808312  0
C  C98  1  0.24071227  0.29134344  0.93111381  1  -0.031949  0  -0.164542  -0.178282  0  3.892624  0
C  C99  1  0.29971716  0.23052265  0.93248557  1  -0.055585  0  -0.164327  -0.17467  0  3.883602  0
C  C100  1  0.76931698  0.21677484  0.91748792  1  0.024138  0  -0.155471  -0.17176  0  3.852935  0
C  C101  1  0.71029998  0.15350836  0.91481551  1  -0.045773  0  -0.155135  -0.168556  0  3.852546  0
C  C102  1  0.70164992  0.19909622  0.00095584  1  0.054736  0  -0.016544  0.022133  0  3.809441  0
C  C103  1  0.66257236  0.27383614  0.00380702  1  -0.029842  0  -0.15913  -0.17149  0  3.865805  0
C  C104  1  0.72218674  0.33727423  0.00726903  1  -0.024431  0  -0.15959  -0.175048  0  3.866666  0
C  C105  1  0.80166230  0.30549708  0.00582639  1  0.054858  0  -0.016139  0.022659  0  3.809036  0
C  C106  1  0.85148365  0.29690379  0.08803169  1  -0.017473  0  -0.164468  -0.175811  0  3.88631  0
C  C107  1  0.79212336  0.23386492  0.08518821  1  -0.053706  0  -0.16464  -0.177814  0  3.888334  0
C  C108  1  0.14420477  0.69844610  0.90222991  1  -0.038195  0  -0.154946  -0.170085  0  3.848809  0
C  C109  1  0.20288933  0.76223232  0.90485248  1  -0.068872  0  -0.154586  -0.167304  0  3.844142  0
C  C110  1  0.29412317  0.79807433  0.98989852  1  0.032358  0  -0.01653  0.02258  0  3.806651  0
C  C111  1  0.33224288  0.72233940  0.98536461  1  -0.024872  0  -0.160223  -0.175098  0  3.861647  0
C  C112  1  0.27374870  0.65997360  0.98424175  1  -0.046883  0  -0.159776  -0.171628  0  3.870145  0
C  C113  1  0.19473090  0.69208728  0.98659191  1  0.051206  0  -0.015665  0.022943  0  3.806565  0
C  C114  1  0.22592050  0.78131836  0.07273014  1  -0.028819  0  -0.16512  -0.178283  0  3.886194  0
C  C115  1  0.28553054  0.84370678  0.07526153  1  -0.032268  0  -0.16493  -0.177042  0  3.892583  0
S  S116  1  0.87312428  0.29272048  0.58620718  1  0.253024  0  0.054709  0.105287  0  2.799518  0
S  S117  1  0.60758054  0.19917206  0.39676171  1  0.226651  0  0.054146  0.103668  0  2.782102  0
S  S118  1  0.19795486  0.61548029  0.39133804  1  0.236848  0  0.055825  0.10672  0  2.799285  0
S  S119  1  0.29932174  0.87590056  0.59096138  1  0.243042  0  0.055408  0.106043  0  2.803684  0
O  O120  1  0.99725407  0.49466871  0.99030506  1  -1.210479  0  -0.57185  -1.025226  0  2.538948  0
O  O121  1  0.82040430  0.38610641  0.94653085  1  -1.172999  0  -0.315957  -0.549463  0  2.345965  0
O  O122  1  0.10448096  0.53919344  0.19895026  1  -1.147678  0  -0.326061  -0.552137  0  2.331753  0
O  O123  1  0.93721177  0.67278798  0.05088142  1  -1.170814  0  -0.315965  -0.547642  0  2.353381  0
O  O124  1  0.93993257  0.38614917  0.05775118  1  -1.174744  0  -0.3135  -0.545164  0  2.364394  0
O  O125  1  0.82128477  0.55658333  0.95013713  1  -1.164413  0  -0.312703  -0.546229  0  2.358756  0
O  O126  1  0.09864198  0.66082900  0.19648811  1  -1.149447  0  -0.312577  -0.522017  0  2.330818  0
O  O127  1  0.10549800  0.66413018  0.03755567  1  -1.173645  0  -0.313676  -0.546071  0  2.38929  0
O  O128  1  0.95303879  0.39001245  0.78082468  1  -1.173855  0  -0.32624  -0.555722  0  2.320892  0
O  O129  1  0.11854185  0.55094983  0.92727164  1  -1.174482  0  -0.316599  -0.551126  0  2.320168  0
O  O130  1  0.82950970  0.39501008  0.79051996  1  -1.14957  0  -0.313912  -0.52436  0  2.332264  0
O  O131  1  0.10561532  0.37069373  0.03731504  1  -1.173636  0  -0.318074  -0.553583  0  2.360259  0
O  O132  1  0.12087732  0.38272974  0.93268160  1  -1.173327  0  -0.312749  -0.546767  0  2.338571  0
O  O133  1  0.49645464  0.99678243  0.99257782  1  -1.222473  0  -0.572573  -1.026924  0  2.54051  0
O  O134  1  0.67752432  0.93732993  0.04294357  1  -1.180539  0  -0.315682  -0.54857  0  2.336845  0
O  O135  1  0.40546905  0.83083030  0.78559553  1  -1.159195  0  -0.313637  -0.523135  0  2.331154  0
O  O136  1  0.56159878  0.11246700  0.93504657  1  -1.179126  0  -0.317454  -0.553023  0  2.349599  0
O  O137  1  0.55810466  0.82484094  0.94636499  1  -1.185792  0  -0.312251  -0.544998  0  2.373568  0
O  O138  1  0.67519262  0.10992465  0.04898806  1  -1.154871  0  -0.311781  -0.542457  0  2.359835  0
O  O139  1  0.39879563  0.95242017  0.78315150  1  -1.16065  0  -0.324902  -0.550627  0  2.333028  0
O  O140  1  0.38497189  0.11244330  0.93588297  1  -1.176365  0  -0.313296  -0.545423  0  2.374593  0
O  O141  1  0.52938799  0.10297668  0.19940460  1  -1.159796  0  -0.3263  -0.553925  0  2.304356  0
O  O142  1  0.36452967  0.10585992  0.04058761  1  -1.166923  0  -0.317982  -0.55482  0  2.329713  0
O  O143  1  0.65544807  0.09398795  0.19515723  1  -1.156495  0  -0.313939  -0.526164  0  2.344993  0
O  O144  1  0.37338300  0.82269001  0.92810657  1  -1.177492  0  -0.316497  -0.548693  0  2.357581  0
O  O145  1  0.37177275  0.93740799  0.04654193  1  -1.187687  0  -0.313033  -0.547381  0  2.345537  0
O  O146  1  0.67328171  0.31218733  0.62422563  1  -1.095539  0  -0.330407  -0.396479  0  2.273876  0
O  O147  1  0.80839422  0.17979162  0.36026933  1  -1.102413  0  -0.330881  -0.396474  0  2.27333  0
O  O148  1  0.18389540  0.81413098  0.36803988  1  -1.107126  0  -0.330687  -0.396382  0  2.270955  0
O  O149  1  0.31266239  0.67758779  0.61488523  1  -1.118822  0  -0.330717  -0.397283  0  2.268918  0
