# generated using pymatgen
data_Cd3H66C70(NO4)4
_symmetry_space_group_name_H-M   'P 1'
_cell_length_a   9.36857606
_cell_length_b   14.38797806
_cell_length_c   14.75332268
_cell_angle_alpha   70.73693789
_cell_angle_beta   87.82185817
_cell_angle_gamma   91.97738045
_symmetry_Int_Tables_number   1
_chemical_formula_structural   Cd3H66C70(NO4)4
_chemical_formula_sum   'Cd3 H66 C70 N4 O16'
_cell_volume   1873.64343396
_cell_formula_units_Z   1
loop_
 _symmetry_equiv_pos_site_id
 _symmetry_equiv_pos_as_xyz
  1  'x, y, z'
loop_
 _atom_site_type_symbol
 _atom_site_label
 _atom_site_symmetry_multiplicity
 _atom_site_fract_x
 _atom_site_fract_y
 _atom_site_fract_z
 _atom_site_occupancy
 _atom_site_pbe_bader_charge
 _atom_site_pbe_bader_spin_density
 _atom_site_pbe_cm5_charge
 _atom_site_pbe_ddec_charge
 _atom_site_pbe_ddec_spin_density
 _atom_site_pbe_ddec_sum_bond_order
 _atom_site_pbe_magmom
Cd  Cd0  1  0.38960385  0.38379757  0.31920259  1  1.304709  0  0.77214  0.995194  0  2.037564  0
Cd  Cd1  1  0.61039624  0.61620220  0.68079901  1  1.304746  0  0.772136  0.995155  0  2.03763  0
Cd  Cd2  1  0.49999586  0.50000276  0.49999831  1  1.40028  0  0.805063  1.112901  0  2.152433  0
H  H3  1  0.02751711  0.29218301  0.60785423  1  0.064688  0  0.105876  0.109827  0  1.005549  0
H  H4  1  0.97248324  0.70781901  0.39215135  1  0.064875  0  0.105864  0.109843  0  1.00551  0
H  H5  1  0.97909486  0.21451077  0.78371315  1  0.068928  0  0.09392  0.093403  0  1.069216  0
H  H6  1  0.02090882  0.78549351  0.21629225  1  0.06893  0  0.093898  0.093365  0  1.069278  0
H  H7  1  0.42247087  0.14517403  0.81718533  1  0.070858  0  0.095266  0.09591  0  1.035171  0
H  H8  1  0.57753213  0.85482133  0.18281489  1  0.070871  0  0.095237  0.095902  0  1.035235  0
H  H9  1  0.47058925  0.23003536  0.64190550  1  0.097761  0  0.102099  0.104583  0  1.03555  0
H  H10  1  0.52940721  0.76995842  0.35809345  1  0.097763  0  0.102088  0.104573  0  1.035533  0
H  H11  1  0.01624550  0.23670850  0.92361993  1  0.079054  0  0.098438  0.093292  0  1.051827  0
H  H12  1  0.98376227  0.76329360  0.07638333  1  0.07896  0  0.09845  0.093317  0  1.051833  0
H  H13  1  0.06399615  0.00430865  0.19045487  1  0.072825  0  0.10274  0.099823  0  1.029894  0
H  H14  1  0.93600604  0.99569113  0.80954529  1  0.072833  0  0.102744  0.09986  0  1.029885  0
H  H15  1  0.30669570  0.00899783  0.93512928  1  0.070607  0  0.100215  0.10173  0  1.022906  0
H  H16  1  0.69330344  0.99100486  0.06487071  1  0.070584  0  0.100207  0.10174  0  1.02286  0
H  H17  1  0.98887943  0.32283611  0.02195829  1  0.042441  0  0.096883  0.094597  0  1.019031  0
H  H18  1  0.01112722  0.67716451  0.97804617  1  0.042804  0  0.096867  0.094595  0  1.019062  0
H  H19  1  0.80261226  0.39876251  0.09604348  1  0.101514  0  0.102674  0.103185  0  1.026  0
H  H20  1  0.19739216  0.60123733  0.90395929  1  0.101529  0  0.102674  0.103188  0  1.026043  0
H  H21  1  0.66395009  0.11389671  0.29160889  1  0.090891  0  0.108581  0.114306  0  0.990741  0
H  H22  1  0.33604129  0.88610581  0.70838262  1  0.090872  0  0.108586  0.114362  0  0.990684  0
H  H23  1  0.84095867  0.03545408  0.21383013  1  0.077256  0  0.100867  0.104199  0  1.016926  0
H  H24  1  0.15903835  0.96455078  0.78616652  1  0.077181  0  0.100871  0.104196  0  1.016784  0
H  H25  1  0.24083751  0.92598631  0.26221130  1  0.043323  0  0.104917  0.107985  0  1.00074  0
H  H26  1  0.75916757  0.07400905  0.73778682  1  0.043771  0  0.10485  0.107896  0  1.000694  0
H  H27  1  0.29599531  0.75509836  0.35711638  1  0.127066  0  0.111026  0.114707  0  0.999245  0
H  H28  1  0.70400550  0.24489695  0.64288191  1  0.127031  0  0.111026  0.114668  0  0.999252  0
H  H29  1  0.32745947  0.67957845  0.09958747  1  0.111272  0  0.102156  0.103594  0  1.021607  0
H  H30  1  0.67254242  0.32041906  0.90040734  1  0.11141  0  0.102131  0.103531  0  1.021746  0
H  H31  1  0.27031702  0.84968340  0.00281092  1  0.081524  0  0.096631  0.095098  0  1.048315  0
H  H32  1  0.72968181  0.15031629  0.99718464  1  0.081435  0  0.09662  0.095088  0  1.048343  0
H  H33  1  0.95099750  0.38072434  0.43867143  1  0.086507  0  0.098078  0.158418  0  1.035587  0
H  H34  1  0.04899173  0.61927161  0.56133181  1  0.086367  0  0.098054  0.158419  0  1.035582  0
H  H35  1  0.78282604  0.31823854  0.44382095  1  0.068927  0  0.108734  0.170151  0  0.963199  0
H  H36  1  0.21716232  0.68176255  0.55617928  1  0.069059  0  0.108786  0.170194  0  0.963211  0
H  H37  1  0.80362300  0.39640967  0.51385987  1  0.101608  0  0.098421  0.164337  0  1.038543  0
H  H38  1  0.19636952  0.60358707  0.48614435  1  0.101689  0  0.098427  0.164373  0  1.038561  0
H  H39  1  0.86256432  0.60834037  0.14171445  1  0.008349  0  0.094736  0.098273  0  1.030554  0
H  H40  1  0.13743795  0.39165944  0.85828840  1  0.00841  0  0.094734  0.098265  0  1.030534  0
H  H41  1  0.73721706  0.63286074  0.22458275  1  0.09054  0  0.101115  0.121751  0  1.037005  0
H  H42  1  0.26278421  0.36714053  0.77541966  1  0.090591  0  0.101104  0.121738  0  1.037087  0
H  H43  1  0.69493364  0.53803448  0.17545647  1  0.111244  0  0.100493  0.127591  0  1.038774  0
H  H44  1  0.30506875  0.46196827  0.82454473  1  0.111678  0  0.100456  0.127551  0  1.038785  0
H  H45  1  0.03192855  0.51172707  0.19000905  1  0.034556  0  0.103535  0.116312  0  0.999301  0
H  H46  1  0.96807051  0.48827197  0.80999486  1  0.034731  0  0.103516  0.116338  0  0.999281  0
H  H47  1  0.96971965  0.38897628  0.25609342  1  0.081816  0  0.102568  0.124922  0  0.997325  0
H  H48  1  0.03027727  0.61102128  0.74391308  1  0.081795  0  0.10258  0.124933  0  0.997294  0
H  H49  1  0.06202162  0.46188844  0.31384606  1  0.062183  0  0.10671  0.125924  0  1.010672  0
H  H50  1  0.93797752  0.53811063  0.68616055  1  0.06217  0  0.106653  0.125874  0  1.010739  0
H  H51  1  0.33765191  0.42982781  0.98742532  1  0.039701  0  0.096718  0.145318  0  1.034255  0
H  H52  1  0.66235600  0.57017869  0.01257445  1  0.039522  0  0.096665  0.14529  0  1.034273  0
H  H53  1  0.38434580  0.48057241  0.07784293  1  0.110449  0  0.109695  0.178219  0  0.982083  0
H  H54  1  0.61566221  0.51943485  0.92215862  1  0.11031  0  0.109666  0.178167  0  0.982065  0
H  H55  1  0.20265669  0.47102575  0.05238916  1  0.047189  0  0.099807  0.150623  0  0.994191  0
H  H56  1  0.79735025  0.52898149  0.94761243  1  0.047352  0  0.099784  0.150566  0  0.994282  0
H  H57  1  0.41038902  0.17391276  0.04332050  1  0.059539  0  0.105242  0.12031  0  1.009059  0
H  H58  1  0.58961249  0.82609730  0.95667358  1  0.05937  0  0.10527  0.120355  0  1.008971  0
H  H59  1  0.50785035  0.28690885  0.02866045  1  0.078943  0  0.101572  0.115866  0  1.001976  0
H  H60  1  0.49214783  0.71309750  0.97133633  1  0.078962  0  0.101604  0.115893  0  1.001977  0
H  H61  1  0.33994607  0.28611272  0.97498614  1  0.067292  0  0.104419  0.120286  0  1.006941  0
H  H62  1  0.66005748  0.71389370  0.02501110  1  0.067262  0  0.104406  0.120267  0  1.006901  0
H  H63  1  0.33725813  0.10115076  0.18767874  1  0.053183  0  0.099109  0.108134  0  1.027469  0
H  H64  1  0.66273881  0.89885334  0.81231679  1  0.052803  0  0.099153  0.108182  0  1.027388  0
H  H65  1  0.20134908  0.15374911  0.24133239  1  0.079648  0  0.106256  0.126651  0  0.987066  0
H  H66  1  0.79864892  0.84625427  0.75866403  1  0.079679  0  0.10628  0.126704  0  0.987053  0
H  H67  1  0.38337853  0.16856069  0.26636202  1  0.108467  0  0.103713  0.128685  0  1.023253  0
H  H68  1  0.61661936  0.83144049  0.73363512  1  0.108687  0  0.103684  0.128681  0  1.023202  0
C  C69  1  0.25288899  0.26622420  0.61409865  1  -0.025776  0  -0.017574  -0.025558  0  3.97363  0
C  C70  1  0.74711117  0.73377559  0.38590497  1  -0.025214  0  -0.017496  -0.025345  0  3.973396  0
C  C71  1  0.11370405  0.26067877  0.65422441  1  -0.004728  0  -0.081351  -0.083548  0  3.962585  0
C  C72  1  0.88629407  0.73932321  0.34577856  1  -0.005291  0  -0.081406  -0.083736  0  3.962679  0
C  C73  1  0.08698951  0.21656533  0.75284398  1  -0.037547  0  -0.093823  -0.13696  0  3.978793  0
C  C74  1  0.91301521  0.78343968  0.24715911  1  -0.037345  0  -0.093777  -0.136824  0  3.978671  0
C  C75  1  0.19658641  0.17347651  0.81323714  1  -0.076867  0  -0.009158  0.059679  0  4.009135  0
C  C76  1  0.80341678  0.82652181  0.18676346  1  -0.077138  0  -0.009172  0.059582  0  4.009179  0
C  C77  1  0.33497753  0.17647945  0.77183095  1  -0.086957  0  -0.093729  -0.13784  0  3.980308  0
C  C78  1  0.66502483  0.82352402  0.22816798  1  -0.086895  0  -0.093711  -0.137843  0  3.980318  0
C  C79  1  0.36274371  0.22396164  0.67378054  1  0.015  0  -0.083445  -0.082937  0  3.967264  0
C  C80  1  0.63725624  0.77603590  0.32622044  1  0.015001  0  -0.083476  -0.083015  0  3.967002  0
C  C81  1  0.16590471  0.12834488  0.91794572  1  0.050845  0  -0.007489  0.077016  0  4.025703  0
C  C82  1  0.83410066  0.87165275  0.08205774  1  0.050987  0  -0.007488  0.07723  0  4.025747  0
C  C83  1  0.06805339  0.17058377  0.96514140  1  -0.062715  0  -0.088329  -0.179051  0  3.93574  0
C  C84  1  0.93195327  0.82941758  0.03486215  1  -0.062908  0  -0.088398  -0.17931  0  3.93597  0
C  C85  1  0.03240094  0.12803061  0.06374289  1  0.001964  0  -0.00805  0.074861  0  4.017397  0
C  C86  1  0.96759878  0.87196178  0.93626047  1  0.001757  0  -0.007925  0.075068  0  4.017325  0
C  C87  1  0.09490186  0.04028145  0.11461617  1  -0.095164  0  -0.084038  -0.172121  0  3.933192  0
C  C88  1  0.90510251  0.95971837  0.88538525  1  -0.094718  0  -0.084083  -0.172243  0  3.933108  0
C  C89  1  0.19458905  0.99677773  0.06977558  1  -0.077749  0  -0.010224  0.069145  0  4.027425  0
C  C90  1  0.80541423  0.00321989  0.93022931  1  -0.078131  0  -0.010211  0.069211  0  4.027467  0
C  C91  1  0.23068547  0.04238026  0.97142454  1  -0.021881  0  -0.087783  -0.178492  0  3.929165  0
C  C92  1  0.76931659  0.95761585  0.02857818  1  -0.021787  0  -0.08777  -0.178572  0  3.929219  0
C  C93  1  0.92793228  0.17346093  0.11172904  1  -0.011434  0  -0.004564  0.068874  0  3.995774  0
C  C94  1  0.07206889  0.82653958  0.88827159  1  -0.011241  0  -0.004584  0.0689  0  3.995887  0
C  C95  1  0.91589490  0.27633860  0.07977342  1  -0.036651  0  -0.091748  -0.130224  0  3.982453  0
C  C96  1  0.08410756  0.72366417  0.92022981  1  -0.036816  0  -0.091773  -0.130303  0  3.982558  0
C  C97  1  0.81341624  0.31933536  0.12145217  1  -0.084843  0  -0.086692  -0.097085  0  3.995042  0
C  C98  1  0.18658273  0.68066510  0.87854652  1  -0.085021  0  -0.086678  -0.09708  0  3.994974  0
C  C99  1  0.72163288  0.26118302  0.19789501  1  -0.088878  0  -0.017978  -0.026122  0  3.972959  0
C  C100  1  0.27836195  0.73882107  0.80210129  1  -0.08878  0  -0.017967  -0.026118  0  3.97299  0
C  C101  1  0.73493376  0.15887810  0.23185235  1  0.062296  0  -0.081926  -0.087071  0  3.972886  0
C  C102  1  0.26506004  0.84112599  0.76814534  1  0.061851  0  -0.082002  -0.087246  0  3.973086  0
C  C103  1  0.83563478  0.11554582  0.18869979  1  -0.114188  0  -0.091189  -0.137173  0  3.973386  0
C  C104  1  0.16435992  0.88445605  0.81129656  1  -0.113741  0  -0.091113  -0.137052  0  3.973186  0
C  C105  1  0.24989507  0.90074432  0.12511243  1  -0.044686  0  -0.007831  0.06197  0  4.002883  0
C  C106  1  0.75009846  0.09925387  0.87488721  1  -0.045274  0  -0.007839  0.061861  0  4.002728  0
C  C107  1  0.26056658  0.87282291  0.22544935  1  -0.010385  0  -0.090941  -0.13999  0  3.985281  0
C  C108  1  0.73943433  0.12717316  0.77455072  1  -0.010831  0  -0.090791  -0.139761  0  3.985075  0
C  C109  1  0.29154115  0.77712972  0.27921226  1  -0.119196  0  -0.079044  -0.085613  0  3.98104  0
C  C110  1  0.70845863  0.22286559  0.72078743  1  -0.119275  0  -0.079092  -0.085682  0  3.980992  0
C  C111  1  0.31492621  0.70671510  0.23419977  1  0.040585  0  -0.018476  -0.036669  0  3.957318  0
C  C112  1  0.68507371  0.29328461  0.76579643  1  0.040575  0  -0.018502  -0.036698  0  3.957549  0
C  C113  1  0.31012667  0.73491751  0.13400223  1  -0.131749  0  -0.086179  -0.092831  0  3.984042  0
C  C114  1  0.68986464  0.26508208  0.86599229  1  -0.131735  0  -0.086059  -0.092647  0  3.984418  0
C  C115  1  0.27944463  0.83064685  0.08015905  1  -0.011588  0  -0.092897  -0.137159  0  3.985147  0
C  C116  1  0.72056316  0.16936034  0.91983575  1  -0.010927  0  -0.092941  -0.137176  0  3.985167  0
C  C117  1  0.28674642  0.31560649  0.50922281  1  1.516846  0  0.200773  0.570376  0  4.197277  0
C  C118  1  0.71325060  0.68439328  0.49078296  1  1.516726  0  0.200736  0.570394  0  4.197238  0
C  C119  1  0.60943127  0.30877143  0.24011089  1  1.54908  0  0.185044  0.542097  0  4.25606  0
C  C120  1  0.39057009  0.69123350  0.75988760  1  1.562829  0  0.185077  0.542184  0  4.255827  0
C  C121  1  0.34465842  0.60256847  0.29220441  1  1.529458  0  0.212509  0.592204  0  4.207775  0
C  C122  1  0.65533693  0.39742675  0.70779072  1  1.529364  0  0.212534  0.592355  0  4.207528  0
C  C123  1  0.77759191  0.46988278  0.36536176  1  1.345048  0  0.243682  0.530683  0  4.020418  0
C  C124  1  0.22240388  0.53011620  0.63464025  1  1.345644  0  0.243656  0.530584  0  4.020334  0
C  C125  1  0.83533397  0.38755162  0.44503622  1  -0.106833  0  -0.244561  -0.525172  0  3.886759  0
C  C126  1  0.16465649  0.61244730  0.55496668  1  -0.106897  0  -0.244597  -0.525294  0  3.88678  0
C  C127  1  0.78194710  0.57526853  0.20039202  1  0.241863  0  -0.146509  -0.282869  0  3.912272  0
C  C128  1  0.21805418  0.42473274  0.79961039  1  0.241396  0  -0.146452  -0.282861  0  3.912302  0
C  C129  1  0.98483819  0.46377101  0.25942764  1  0.287657  0  -0.135549  -0.268029  0  3.901979  0
C  C130  1  0.01516300  0.53622733  0.74057710  1  0.287563  0  -0.135482  -0.268083  0  3.901971  0
C  C131  1  0.28662541  0.33796305  0.13888150  1  1.363335  0  0.237356  0.507529  0  4.068905  0
C  C132  1  0.71337716  0.66204411  0.86111757  1  1.363356  0  0.237374  0.507642  0  4.068958  0
C  C133  1  0.30433793  0.43440014  0.05755027  1  -0.083035  0  -0.239724  -0.515307  0  3.908421  0
C  C134  1  0.69567006  0.56560856  0.94244809  1  -0.082704  0  -0.239626  -0.51525  0  3.908616  0
C  C135  1  0.40033242  0.25088835  0.03849428  1  0.250382  0  -0.132916  -0.264332  0  3.900148  0
C  C136  1  0.59966588  0.74911876  0.96150496  1  0.250551  0  -0.132959  -0.264346  0  3.899915  0
C  C137  1  0.31161859  0.16375979  0.21070571  1  0.221237  0  -0.141221  -0.275474  0  3.901212  0
C  C138  1  0.68838062  0.83624655  0.78928968  1  0.221387  0  -0.141296  -0.275615  0  3.901095  0
N  N139  1  0.85037026  0.50398083  0.27950235  1  -1.17163  0  -0.276088  -0.023097  0  3.62329  0
N  N140  1  0.14962661  0.49601744  0.72050122  1  -1.171864  0  -0.276094  -0.022904  0  3.623185  0
N  N141  1  0.32641207  0.25369158  0.12653204  1  -1.181475  0  -0.275515  -0.023892  0  3.628017  0
N  N142  1  0.67358841  0.74631702  0.87346595  1  -1.18163  0  -0.275524  -0.023933  0  3.628017  0
O  O143  1  0.41735890  0.35118462  0.48327903  1  -1.15355  0  -0.341396  -0.604592  0  2.34815  0
O  O144  1  0.58263683  0.64881362  0.51672255  1  -1.153557  0  -0.341383  -0.604619  0  2.348218  0
O  O145  1  0.19455067  0.31976494  0.44823752  1  -1.157013  0  -0.312384  -0.528261  0  2.128919  0
O  O146  1  0.80545030  0.68022969  0.55176708  1  -1.157154  0  -0.312361  -0.528273  0  2.128926  0
O  O147  1  0.57890171  0.39667715  0.19297910  1  -1.169075  0  -0.328474  -0.56601  0  2.19735  0
O  O148  1  0.42110062  0.60332704  0.80701757  1  -1.182835  0  -0.328497  -0.566031  0  2.197225  0
O  O149  1  0.54594499  0.25898004  0.32082178  1  -1.157166  0  -0.336717  -0.563036  0  2.165011  0
O  O150  1  0.45405076  0.74102183  0.67917385  1  -1.157171  0  -0.336707  -0.563044  0  2.164883  0
O  O151  1  0.35731411  0.54264632  0.24539452  1  -1.142782  0  -0.324311  -0.552555  0  2.289767  0
O  O152  1  0.64269527  0.45735346  0.75459656  1  -1.142654  0  -0.32437  -0.552629  0  2.289686  0
O  O153  1  0.35198871  0.58230187  0.38237271  1  -1.170742  0  -0.329787  -0.594527  0  2.33767  0
O  O154  1  0.64799676  0.41768806  0.61762384  1  -1.170725  0  -0.329798  -0.594629  0  2.337554  0
O  O155  1  0.65887614  0.50603971  0.37548086  1  -1.172117  0  -0.317776  -0.555397  0  2.293124  0
O  O156  1  0.34112189  0.49396151  0.62452033  1  -1.172617  0  -0.317746  -0.555328  0  2.293126  0
O  O157  1  0.23484611  0.33634651  0.21978141  1  -1.162215  0  -0.319861  -0.535081  0  2.249745  0
O  O158  1  0.76515209  0.66365984  0.78021606  1  -1.162269  0  -0.319829  -0.535055  0  2.249661  0
