# generated using pymatgen
data_SnH17C15SN4
_symmetry_space_group_name_H-M   'P 1'
_cell_length_a   10.69890783
_cell_length_b   11.78372993
_cell_length_c   16.31530891
_cell_angle_alpha   82.98207882
_cell_angle_beta   82.84915338
_cell_angle_gamma   77.90725994
_symmetry_Int_Tables_number   1
_chemical_formula_structural   SnH17C15SN4
_chemical_formula_sum   'Sn4 H68 C60 S4 N16'
_cell_volume   1985.81893064
_cell_formula_units_Z   4
loop_
 _symmetry_equiv_pos_site_id
 _symmetry_equiv_pos_as_xyz
  1  'x, y, z'
loop_
 _atom_site_type_symbol
 _atom_site_label
 _atom_site_symmetry_multiplicity
 _atom_site_fract_x
 _atom_site_fract_y
 _atom_site_fract_z
 _atom_site_occupancy
 _atom_site_pbe_bader_charge
 _atom_site_pbe_bader_spin_density
 _atom_site_pbe_cm5_charge
 _atom_site_pbe_ddec_charge
 _atom_site_pbe_ddec_spin_density
 _atom_site_pbe_ddec_sum_bond_order
 _atom_site_pbe_magmom
Sn  Sn0  1  0.75962769  0.79589438  0.21998837  1  1.563242  0  0.463437  1.046712  0  3.457166  0
Sn  Sn1  1  0.24037206  0.20410352  0.78000890  1  1.563202  0  0.463406  1.046643  0  3.457202  0
Sn  Sn2  1  0.25122425  0.79531969  0.26472775  1  1.55517  0  0.474377  1.048508  0  3.407094  0
Sn  Sn3  1  0.74877912  0.20468340  0.73527918  1  1.555247  0  0.47443  1.048668  0  3.406892  0
H  H4  1  0.76459698  0.01491504  0.25412306  1  0.063718  0  0.082011  0.169887  0  1.046456  0
H  H5  1  0.23539918  0.98508203  0.74587273  1  0.063535  0  0.081973  0.169811  0  1.046494  0
H  H6  1  0.60128721  0.00241818  0.24841177  1  0.075269  0  0.078786  0.16544  0  1.07084  0
H  H7  1  0.39870611  0.99757891  0.75158486  1  0.07534  0  0.078768  0.165378  0  1.070842  0
H  H8  1  0.70630794  0.01923184  0.15531328  1  0.020287  0  0.08003  0.160324  0  1.069824  0
H  H9  1  0.29368143  0.98076616  0.84468359  1  0.020377  0  0.079995  0.160286  0  1.069809  0
H  H10  1  0.99999753  0.68323907  0.25404989  1  0.036012  0  0.080351  0.158096  0  1.078042  0
H  H11  1  0.99999892  0.31676386  0.74595120  1  0.036029  0  0.080335  0.158014  0  1.078088  0
H  H12  1  0.88365478  0.59839945  0.30001411  1  0.034295  0  0.080895  0.159536  0  1.077171  0
H  H13  1  0.11634653  0.40160453  0.69998617  1  0.034419  0  0.080871  0.159503  0  1.077226  0
H  H14  1  0.90430608  0.71902072  0.34896889  1  0.051131  0  0.081717  0.166731  0  1.059859  0
H  H15  1  0.09568844  0.28098419  0.65103002  1  0.051158  0  0.081704  0.166741  0  1.059844  0
H  H16  1  0.56052962  0.75665158  0.14476006  1  0.030076  0  0.079213  0.159453  0  1.068053  0
H  H17  1  0.43946726  0.24334199  0.85524027  1  0.030067  0  0.079175  0.159393  0  1.068118  0
H  H18  1  0.64857689  0.62060250  0.18755089  1  0.073732  0  0.081497  0.169528  0  1.043681  0
H  H19  1  0.35142093  0.37939107  0.81245059  1  0.073717  0  0.081446  0.169461  0  1.043805  0
H  H20  1  0.71112568  0.69083557  0.09246517  1  0.066759  0  0.084122  0.169681  0  1.059213  0
H  H21  1  0.28887007  0.30915889  0.90753334  1  0.066804  0  0.084103  0.169627  0  1.059299  0
H  H22  1  0.20134805  0.84263346  0.86524599  1  0.087061  0  0.095674  0.092764  0  1.074317  0
H  H23  1  0.79865327  0.15737052  0.13474817  1  0.086584  0  0.095687  0.09278  0  1.074286  0
H  H24  1  0.27854567  0.74278212  0.73848346  1  0.081875  0  0.094777  0.095483  0  1.029669  0
H  H25  1  0.72145485  0.25721665  0.26151306  1  0.081912  0  0.0948  0.095486  0  1.029683  0
H  H26  1  0.20463886  0.56256738  0.71875852  1  0.064329  0  0.091454  0.075144  0  1.0869  0
H  H27  1  0.79535976  0.43743140  0.28124060  1  0.064366  0  0.091464  0.075142  0  1.086882  0
H  H28  1  0.05132881  0.48224037  0.82834741  1  0.04043  0  0.100049  0.102067  0  1.010928  0
H  H29  1  0.94867079  0.51776275  0.17165493  1  0.040431  0  0.100074  0.102065  0  1.010924  0
H  H30  1  0.97398436  0.58352812  0.95543171  1  0.076552  0  0.101463  0.100895  0  1.025718  0
H  H31  1  0.02601754  0.41647760  0.04456960  1  0.076539  0  0.101443  0.100832  0  1.025654  0
H  H32  1  0.16789514  0.03113894  0.04529704  1  0.136726  0  0.111979  0.081741  0  1.044791  0
H  H33  1  0.83210410  0.96886593  0.95470762  1  0.13683  0  0.112038  0.081803  0  1.044638  0
H  H34  1  0.46183586  0.80537788  0.97687163  1  0.0864  0  0.113  0.115917  0  0.988622  0
H  H35  1  0.53816285  0.19462960  0.02312610  1  0.086754  0  0.11299  0.115899  0  0.988635  0
H  H36  1  0.31515700  0.15591324  0.04129403  1  0.072477  0  0.110937  0.113677  0  0.991056  0
H  H37  1  0.68484374  0.84408901  0.95870522  1  0.07251  0  0.110947  0.113734  0  0.990999  0
H  H38  1  0.38619142  0.94866113  0.30155138  1  0.053557  0  0.075717  0.157108  0  1.085537  0
H  H39  1  0.61381244  0.05135327  0.69844717  1  0.05377  0  0.075699  0.157061  0  1.085534  0
H  H40  1  0.27660279  0.01988203  0.22624770  1  0.050618  0  0.079102  0.168509  0  1.042473  0
H  H41  1  0.72338621  0.98011770  0.77375580  1  0.052581  0  0.079109  0.168493  0  1.042488  0
H  H42  1  0.42576783  0.92792283  0.19434710  1  0.058845  0  0.082495  0.166681  0  1.060196  0
H  H43  1  0.57422804  0.07208468  0.80565148  1  0.058559  0  0.082515  0.166736  0  1.060293  0
H  H44  1  0.31464379  0.70727738  0.11509963  1  0.058193  0  0.081855  0.163316  0  1.068464  0
H  H45  1  0.68534843  0.29274322  0.88490238  1  0.058593  0  0.081843  0.163318  0  1.068427  0
H  H46  1  0.17576018  0.65668893  0.16545180  1  0.038054  0  0.082888  0.168066  0  1.046406  0
H  H47  1  0.82423464  0.34332816  0.83455459  1  0.038041  0  0.082866  0.168053  0  1.046403  0
H  H48  1  0.33040230  0.59063181  0.19803270  1  0.075184  0  0.086064  0.175831  0  1.051631  0
H  H49  1  0.66959660  0.40937481  0.80196142  1  0.075044  0  0.086046  0.175814  0  1.051798  0
H  H50  1  0.03866156  0.84355346  0.37674478  1  0.061847  0  0.082745  0.169384  0  1.042275  0
H  H51  1  0.96134254  0.15644615  0.62325627  1  0.061782  0  0.082757  0.169419  0  1.042181  0
H  H52  1  0.18278766  0.81205462  0.42833760  1  0.024878  0  0.081987  0.163908  0  1.047874  0
H  H53  1  0.81720507  0.18794073  0.57167395  1  0.025333  0  0.081998  0.163916  0  1.047968  0
H  H54  1  0.12077279  0.69549085  0.39819051  1  0.037702  0  0.083028  0.169157  0  1.054682  0
H  H55  1  0.87922543  0.30450533  0.60181378  1  0.037835  0  0.083041  0.16916  0  1.054738  0
H  H56  1  0.37682595  0.35573281  0.29902835  1  0.08092  0  0.106993  0.109105  0  1.002234  0
H  H57  1  0.62317299  0.64425987  0.70097557  1  0.080746  0  0.107048  0.109212  0  1.002179  0
H  H58  1  0.40044456  0.13959866  0.31698458  1  0.085085  0  0.100636  0.101168  0  1.011761  0
H  H59  1  0.59955136  0.86039492  0.68302257  1  0.085605  0  0.100607  0.1012  0  1.011714  0
H  H60  1  0.55325026  0.01920759  0.41204303  1  0.06312  0  0.095699  0.1006  0  1.025335  0
H  H61  1  0.44675093  0.98078333  0.58796086  1  0.062825  0  0.095706  0.100638  0  1.025444  0
H  H62  1  0.68106106  0.11648266  0.48917673  1  0.056169  0  0.101425  0.098354  0  0.999514  0
H  H63  1  0.31895110  0.88350991  0.51082062  1  0.056304  0  0.101459  0.098424  0  0.999601  0
H  H64  1  0.65790548  0.33070357  0.47149760  1  0.066238  0  0.101345  0.100759  0  1.038928  0
H  H65  1  0.34210705  0.66928726  0.52849496  1  0.065993  0  0.101338  0.100737  0  1.038876  0
H  H66  1  0.67682181  0.63343193  0.49482648  1  0.131026  0  0.112535  0.078942  0  1.050585  0
H  H67  1  0.32317677  0.36656249  0.50517547  1  0.130927  0  0.112525  0.078944  0  1.050667  0
H  H68  1  0.92768808  0.39832188  0.39469608  1  0.093055  0  0.110609  0.109817  0  1.009444  0
H  H69  1  0.07231584  0.60167859  0.60530185  1  0.093071  0  0.110625  0.109825  0  1.009368  0
H  H70  1  0.84438954  0.65319257  0.57237906  1  0.090815  0  0.108457  0.110093  0  0.993045  0
H  H71  1  0.15561399  0.34680530  0.42761790  1  0.090701  0  0.108542  0.110235  0  0.993083  0
C  C72  1  0.70034416  0.98143577  0.22009627  1  -0.462366  0  -0.338881  -0.715398  0  3.749953  0
C  C73  1  0.29964975  0.01856305  0.77990017  1  -0.4624  0  -0.338783  -0.715187  0  3.749878  0
C  C74  1  0.90545785  0.68602854  0.28906409  1  -0.435303  0  -0.341937  -0.734012  0  3.781685  0
C  C75  1  0.09453893  0.31397461  0.71093541  1  -0.435487  0  -0.341862  -0.733856  0  3.781605  0
C  C76  1  0.65665677  0.70501785  0.15306835  1  -0.482658  0  -0.339646  -0.718183  0  3.745048  0
C  C77  1  0.34334123  0.29497484  0.84693074  1  -0.48261  0  -0.339542  -0.717994  0  3.745302  0
C  C78  1  0.01566642  0.87085144  0.10789301  1  0.713604  0  0.208819  0.222113  0  4.105557  0
C  C79  1  0.98433108  0.12914822  0.89210735  1  0.713569  0  0.208746  0.22206  0  4.105574  0
C  C80  1  0.03505914  0.77368791  0.99532526  1  0.960731  0  0.224196  0.200694  0  4.017647  0
C  C81  1  0.96494088  0.22631783  0.00467191  1  0.961336  0  0.224199  0.200704  0  4.017846  0
C  C82  1  0.08384062  0.71881728  0.91921804  1  -0.087483  0  -0.009966  0.021475  0  4.036713  0
C  C83  1  0.91615859  0.28118324  0.08078088  1  -0.087589  0  -0.010002  0.021426  0  4.036667  0
C  C84  1  0.16957961  0.76329667  0.85766313  1  0.000873  0  -0.091959  -0.118169  0  3.986237  0
C  C85  1  0.83041942  0.23670472  0.14233511  1  0.001313  0  -0.091976  -0.118199  0  3.986265  0
C  C86  1  0.21229765  0.70704849  0.78603854  1  -0.085571  0  -0.095636  -0.076503  0  3.997718  0
C  C87  1  0.78770269  0.29295115  0.21395914  1  -0.085393  0  -0.095619  -0.076436  0  3.99771  0
C  C88  1  0.17021144  0.60597542  0.77500712  1  -0.013439  0  -0.095219  -0.084068  0  4.005189  0
C  C89  1  0.82978794  0.39402422  0.22499187  1  -0.013634  0  -0.095228  -0.084039  0  4.005186  0
C  C90  1  0.08404794  0.56158013  0.83597000  1  -0.095943  0  -0.095331  -0.08214  0  4.014136  0
C  C91  1  0.91595108  0.43842126  0.16403070  1  -0.09599  0  -0.095408  -0.082282  0  4.014225  0
C  C92  1  0.04083982  0.61745311  0.90748771  1  0.057272  0  -0.087463  -0.113597  0  3.961357  0
C  C93  1  0.95916015  0.38254827  0.09251352  1  0.057232  0  -0.087388  -0.113418  0  3.961166  0
C  C94  1  0.24238857  0.95929845  0.02373513  1  0.588162  0  0.077931  0.040545  0  3.939084  0
C  C95  1  0.75760774  0.04071602  0.97626647  1  0.588888  0  0.077825  0.0405  0  3.939286  0
C  C96  1  0.37423432  0.97819491  0.01030309  1  0.011622  0  -0.00146  0.071276  0  4.005427  0
C  C97  1  0.62576398  0.02180997  0.98969981  1  0.011563  0  -0.00142  0.071308  0  4.005451  0
C  C98  1  0.47923545  0.89040747  0.98655144  1  -0.022476  0  -0.074421  -0.105234  0  3.93422  0
C  C99  1  0.52076703  0.10959999  0.01344844  1  -0.022881  0  -0.074419  -0.105293  0  3.93429  0
C  C100  1  0.39690621  0.08781025  0.02366002  1  -0.060174  0  -0.071208  -0.10102  0  3.933485  0
C  C101  1  0.60309547  0.91219198  0.97634039  1  -0.06018  0  -0.07133  -0.101256  0  3.933543  0
C  C102  1  0.34684532  0.94148295  0.24400270  1  -0.481938  0  -0.341511  -0.729934  0  3.778595  0
C  C103  1  0.65315581  0.05852190  0.75600120  1  -0.483908  0  -0.341543  -0.729969  0  3.778652  0
C  C104  1  0.27038902  0.67222453  0.17438869  1  -0.455338  0  -0.335278  -0.712509  0  3.741219  0
C  C105  1  0.72960878  0.32778732  0.82561303  1  -0.455716  0  -0.335246  -0.712494  0  3.741295  0
C  C106  1  0.13258597  0.78579671  0.38127034  1  -0.432785  0  -0.334851  -0.713072  0  3.757356  0
C  C107  1  0.86741696  0.21419942  0.61873479  1  -0.433226  0  -0.334904  -0.713162  0  3.757401  0
C  C108  1  0.52390842  0.66980169  0.36251732  1  0.738395  0  0.213379  0.228202  0  4.112336  0
C  C109  1  0.47609358  0.33019445  0.63748176  1  0.738418  0  0.213441  0.228362  0  4.112152  0
C  C110  1  0.49612158  0.48483149  0.37050295  1  0.914553  0  0.220304  0.19128  0  4.032197  0
C  C111  1  0.50388438  0.51516374  0.62949527  1  0.913485  0  0.220382  0.191352  0  4.031928  0
C  C112  1  0.51558638  0.35790805  0.38375698  1  0.049424  0  -0.008983  0.016918  0  4.038582  0
C  C113  1  0.48442294  0.64208454  0.61623936  1  0.050026  0  -0.008959  0.01702  0  4.038589  0
C  C114  1  0.44274939  0.30231054  0.34086254  1  -0.045849  0  -0.086384  -0.122077  0  3.973954  0
C  C115  1  0.55725747  0.69768033  0.65913539  1  -0.045839  0  -0.086427  -0.122177  0  3.973914  0
C  C116  1  0.45627206  0.18159254  0.35128373  1  -0.079567  0  -0.090841  -0.080713  0  4.017007  0
C  C117  1  0.54373178  0.81839923  0.64871865  1  -0.080098  0  -0.09089  -0.080881  0  4.017016  0
C  C118  1  0.54267600  0.11388811  0.40426329  1  -0.038732  0  -0.088295  -0.076755  0  3.99033  0
C  C119  1  0.45732766  0.88610453  0.59573964  1  -0.037929  0  -0.088229  -0.076685  0  3.990405  0
C  C120  1  0.61476475  0.16842502  0.44696225  1  0.035262  0  -0.090502  -0.078258  0  4.030841  0
C  C121  1  0.38524440  0.83156845  0.55303710  1  0.034892  0  -0.090524  -0.078311  0  4.03089  0
C  C122  1  0.60173466  0.28949355  0.43720275  1  -0.075283  0  -0.091253  -0.126063  0  3.975973  0
C  C123  1  0.39827710  0.71049641  0.56279424  1  -0.075645  0  -0.091322  -0.126159  0  3.976123  0
C  C124  1  0.73945461  0.56306858  0.46287869  1  0.592686  0  0.082588  0.050014  0  3.944146  0
C  C125  1  0.26054847  0.43692233  0.53712137  1  0.592749  0  0.082534  0.049991  0  3.94411  0
C  C126  1  0.87208179  0.52867175  0.48175100  1  0.006158  0  -0.000656  0.074099  0  4.018145  0
C  C127  1  0.12792191  0.47132524  0.51824847  1  0.006199  0  -0.000673  0.074169  0  4.018013  0
C  C128  1  0.96007940  0.44197964  0.44086831  1  -0.082789  0  -0.072632  -0.096555  0  3.938715  0
C  C129  1  0.03992205  0.55801912  0.55912997  1  -0.083073  0  -0.072641  -0.096613  0  3.938648  0
C  C130  1  0.91339677  0.58623778  0.54093821  1  0.014869  0  -0.07288  -0.10368  0  3.942295  0
C  C131  1  0.08660675  0.41376009  0.45905937  1  0.015107  0  -0.072987  -0.103935  0  3.942334  0
S  S132  1  0.04571386  0.94526828  0.18386634  1  -0.242648  0  -0.161457  -0.420403  0  2.285529  0
S  S133  1  0.95428480  0.05473486  0.81613240  1  -0.242651  0  -0.161416  -0.420333  0  2.285636  0
S  S134  1  0.59042207  0.78730130  0.36692155  1  -0.240952  0  -0.156394  -0.413409  0  2.364709  0
S  S135  1  0.40957615  0.21269487  0.63307906  1  -0.241043  0  -0.156417  -0.413475  0  2.364691  0
N  N136  1  0.09264985  0.84573020  0.03341364  1  -0.805486  0  -0.119233  0.024305  0  3.715071  0
N  N137  1  0.90734827  0.15427555  0.96658675  1  -0.805393  0  -0.119221  0.024034  0  3.715411  0
N  N138  1  0.92605560  0.75984832  0.03980808  1  -0.704559  0  -0.22636  -0.264453  0  3.232776  0
N  N139  1  0.07394419  0.24015394  0.96019002  1  -0.705007  0  -0.226316  -0.264293  0  3.232828  0
N  N140  1  0.91531945  0.81832199  0.10874358  1  -0.790997  0  -0.214759  -0.222865  0  3.475715  0
N  N141  1  0.08468165  0.18167852  0.89125641  1  -0.791071  0  -0.214765  -0.222924  0  3.475643  0
N  N142  1  0.21727831  0.86042707  0.01077846  1  -0.713092  0  -0.195869  -0.170586  0  3.270447  0
N  N143  1  0.78271680  0.13957957  0.98921964  1  -0.713964  0  -0.195864  -0.170473  0  3.27074  0
N  N144  1  0.57663148  0.55369598  0.38916415  1  -0.837658  0  -0.121007  0.024622  0  3.741682  0
N  N145  1  0.42337259  0.44629927  0.61083484  1  -0.837809  0  -0.120999  0.024606  0  3.741781  0
N  N146  1  0.39586995  0.55275181  0.33805300  1  -0.71493  0  -0.223966  -0.256505  0  3.222922  0
N  N147  1  0.60413164  0.44724173  0.66194756  1  -0.71411  0  -0.22393  -0.256414  0  3.22273  0
N  N148  1  0.41426748  0.66545084  0.33173826  1  -0.781995  0  -0.209286  -0.216234  0  3.430006  0
N  N149  1  0.58573506  0.33454269  0.66826101  1  -0.781771  0  -0.20937  -0.216455  0  3.430092  0
N  N150  1  0.69972121  0.50953292  0.40953562  1  -0.75428  0  -0.20095  -0.175349  0  3.28852  0
N  N151  1  0.30028456  0.49046319  0.59046806  1  -0.754052  0  -0.200966  -0.175451  0  3.28847  0
