# generated using pymatgen
data_ZnMoH6C6NO4
_symmetry_space_group_name_H-M   'P 1'
_cell_length_a   8.13288221
_cell_length_b   9.60113932
_cell_length_c   10.96221917
_cell_angle_alpha   89.99989041
_cell_angle_beta   103.11569903
_cell_angle_gamma   90.00009918
_symmetry_Int_Tables_number   1
_chemical_formula_structural   ZnMoH6C6NO4
_chemical_formula_sum   'Zn4 Mo4 H24 C24 N4 O16'
_cell_volume   833.65482254
_cell_formula_units_Z   4
loop_
 _symmetry_equiv_pos_site_id
 _symmetry_equiv_pos_as_xyz
  1  'x, y, z'
loop_
 _atom_site_type_symbol
 _atom_site_label
 _atom_site_symmetry_multiplicity
 _atom_site_fract_x
 _atom_site_fract_y
 _atom_site_fract_z
 _atom_site_occupancy
 _atom_site_hle17_bader_spin_density
 _atom_site_hle17_ddec_charge
 _atom_site_hle17_ddec_spin_density
 _atom_site_hle17_ddec_sum_bond_order
 _atom_site_hle17_magmom
 _atom_site_hse06_10hf_bader_spin_density
 _atom_site_hse06_10hf_ddec_charge
 _atom_site_hse06_10hf_ddec_spin_density
 _atom_site_hse06_10hf_ddec_sum_bond_order
 _atom_site_hse06_10hf_magmom
 _atom_site_hse06_bader_spin_density
 _atom_site_hse06_ddec_charge
 _atom_site_hse06_ddec_spin_density
 _atom_site_hse06_ddec_sum_bond_order
 _atom_site_hse06_magmom
 _atom_site_pbe_bader_spin_density
 _atom_site_pbe_cm5_charge
 _atom_site_pbe_ddec_charge
 _atom_site_pbe_ddec_spin_density
 _atom_site_pbe_ddec_sum_bond_order
 _atom_site_pbe_magmom
Zn  Zn0  1  0.30475356  0.52661016  0.44143916  1  0  1.206824  0  1.847361  0  0  1.070272  0  2.316815  0  0  1.117296  0  2.253683  0  0  0.67925  1.037505  0  2.36039  0
Zn  Zn1  1  0.19524697  0.02660991  0.55856094  1  0  1.206804  0  1.847466  0  0  1.07023  0  2.316935  0  0  1.117257  0  2.253799  0  0  0.679228  1.037459  0  2.360505  0
Zn  Zn2  1  0.69524734  0.47338955  0.55856191  1  0  1.206813  0  1.847389  0  0  1.070262  0  2.316843  0  0  1.117292  0  2.253704  0  0  0.679246  1.037497  0  2.360411  0
Zn  Zn3  1  0.80475142  0.97339188  0.44143877  1  0  1.206802  0  1.847433  0  0  1.070244  0  2.316892  0  0  1.117277  0  2.253749  0  0  0.679224  1.037476  0  2.360458  0
Mo  Mo4  1  0.43639425  0.20935945  0.36375027  1  0  2.1999  0  4.191201  0  0  2.174759  0  4.773343  0  0  2.277181  0  4.732797  0  0  1.500011  2.102876  0  4.803931  0
Mo  Mo5  1  0.06360531  0.70935787  0.63624935  1  0  2.199922  0  4.191231  0  0  2.174785  0  4.773354  0  0  2.277206  0  4.73281  0  0  1.500007  2.102901  0  4.803926  0
Mo  Mo6  1  0.56360540  0.79064234  0.63624966  1  0  2.199921  0  4.191281  0  0  2.174767  0  4.773428  0  0  2.277189  0  4.732881  0  0  1.500005  2.102885  0  4.80398  0
Mo  Mo7  1  0.93639434  0.29064288  0.36375058  1  0  2.199862  0  4.191275  0  0  2.174706  0  4.773425  0  0  2.277136  0  4.732874  0  0  1.499975  2.102825  0  4.803995  0
H  H8  1  0.14789566  0.48601412  0.16947870  1  0  0.088202  0  0.949706  0  0  0.096875  0  1.014382  0  0  0.099816  0  1.011192  0  0  0.119072  0.094573  0  1.016987  0
H  H9  1  0.35210688  0.98601462  0.83052098  1  0  0.088193  0  0.949728  0  0  0.09686  0  1.014411  0  0  0.099803  0  1.011221  0  0  0.119059  0.094555  0  1.017016  0
H  H10  1  0.85210146  0.51398454  0.83052169  1  0  0.088222  0  0.9497  0  0  0.096894  0  1.014383  0  0  0.099835  0  1.011192  0  0  0.119068  0.094589  0  1.016989  0
H  H11  1  0.64789149  0.01398405  0.16947964  1  0  0.088222  0  0.949684  0  0  0.09688  0  1.014382  0  0  0.099819  0  1.011191  0  0  0.119071  0.094577  0  1.016987  0
H  H12  1  0.01721163  0.63956260  0.98723676  1  0  0.115091  0  0.945649  0  0  0.128337  0  1.000994  0  0  0.131178  0  1.000459  0  0  0.111978  0.126299  0  1.001576  0
H  H13  1  0.48279037  0.13956711  0.01276158  1  0  0.115088  0  0.945757  0  0  0.128349  0  1.001074  0  0  0.131191  0  1.000539  0  0  0.111971  0.126314  0  1.001657  0
H  H14  1  0.98278297  0.36043293  0.01276228  1  0  0.115095  0  0.945704  0  0  0.128342  0  1.001055  0  0  0.131186  0  1.000514  0  0  0.111961  0.126307  0  1.001638  0
H  H15  1  0.51721180  0.86043468  0.98723879  1  0  0.115095  0  0.94573  0  0  0.128334  0  1.001091  0  0  0.131176  0  1.000557  0  0  0.11197  0.126296  0  1.001673  0
H  H16  1  0.17756304  0.99318722  0.22798490  1  0  0.111838  0  0.986668  0  0  0.116809  0  1.057026  0  0  0.119895  0  1.05642  0  0  0.107256  0.1145  0  1.057915  0
H  H17  1  0.32243956  0.49319190  0.77201113  1  0  0.111877  0  0.986619  0  0  0.116826  0  1.057006  0  0  0.119913  0  1.056397  0  0  0.107229  0.114516  0  1.057894  0
H  H18  1  0.82243915  0.00681040  0.77201457  1  0  0.111847  0  0.986685  0  0  0.116829  0  1.05703  0  0  0.119916  0  1.05642  0  0  0.107259  0.114518  0  1.057917  0
H  H19  1  0.67755756  0.50681197  0.22798835  1  0  0.111875  0  0.986656  0  0  0.116859  0  1.057001  0  0  0.119945  0  1.056393  0  0  0.107251  0.11455  0  1.057889  0
H  H20  1  0.30451663  0.82948051  0.39483750  1  0  0.072837  0  0.979133  0  0  0.077461  0  1.053864  0  0  0.08031  0  1.050246  0  0  0.111843  0.075322  0  1.056578  0
H  H21  1  0.19548821  0.32947600  0.60516103  1  0  0.072808  0  0.979176  0  0  0.077428  0  1.053924  0  0  0.080277  0  1.050304  0  0  0.111796  0.075288  0  1.056638  0
H  H22  1  0.69548556  0.17051815  0.60516197  1  0  0.072808  0  0.979128  0  0  0.07743  0  1.053866  0  0  0.080278  0  1.050247  0  0  0.111824  0.075289  0  1.056581  0
H  H23  1  0.80450889  0.67052475  0.39484028  1  0  0.07279  0  0.979147  0  0  0.077403  0  1.053902  0  0  0.08025  0  1.050287  0  0  0.111799  0.075263  0  1.056618  0
H  H24  1  0.87563173  0.88179287  0.94366828  1  0  0.099892  0  0.943731  0  0  0.119245  0  1.002386  0  0  0.120656  0  1.00204  0  0  0.098204  0.118237  0  1.00269  0
H  H25  1  0.62437072  0.38179363  0.05632955  1  0  0.099871  0  0.943715  0  0  0.119222  0  1.002416  0  0  0.120634  0  1.00207  0  0  0.098199  0.118216  0  1.002722  0
H  H26  1  0.12436793  0.11820683  0.05633074  1  0  0.099798  0  0.943795  0  0  0.11919  0  1.002418  0  0  0.120601  0  1.002072  0  0  0.09818  0.118183  0  1.002723  0
H  H27  1  0.37563147  0.61820608  0.94366992  1  0  0.099856  0  0.94377  0  0  0.119214  0  1.002431  0  0  0.120625  0  1.002085  0  0  0.098197  0.118207  0  1.002734  0
H  H28  1  0.07263488  0.90628316  0.90968887  1  0  0.099624  0  0.942963  0  0  0.118317  0  1.003358  0  0  0.119241  0  1.003403  0  0  0.099367  0.117586  0  1.003687  0
H  H29  1  0.42736501  0.40628116  0.09031048  1  0  0.099562  0  0.942997  0  0  0.118312  0  1.003363  0  0  0.119235  0  1.003408  0  0  0.099371  0.117584  0  1.003693  0
H  H30  1  0.92736477  0.09371654  0.09031107  1  0  0.099639  0  0.942981  0  0  0.118327  0  1.003383  0  0  0.119251  0  1.003428  0  0  0.099373  0.117597  0  1.003714  0
H  H31  1  0.57263591  0.59371958  0.90968967  1  0  0.099603  0  0.94296  0  0  0.118305  0  1.003356  0  0  0.119229  0  1.003401  0  0  0.099364  0.117576  0  1.003686  0
C  C32  1  0.15178909  0.59934962  0.17635421  1  0  0.126656  0  3.711096  0  0  0.094834  0  3.964796  0  0  0.102204  0  3.983401  0  0  0.043795  0.090178  0  3.952138  0
C  C33  1  0.34821407  0.09935214  0.82364714  1  0  0.126811  0  3.711147  0  0  0.094987  0  3.964834  0  0  0.102356  0  3.983441  0  0  0.043885  0.09033  0  3.952174  0
C  C34  1  0.84820930  0.40064800  0.82364550  1  0  0.126638  0  3.711076  0  0  0.094818  0  3.964792  0  0  0.102189  0  3.983396  0  0  0.043806  0.090162  0  3.952133  0
C  C35  1  0.65178812  0.90064860  0.17635232  1  0  0.126681  0  3.710823  0  0  0.09488  0  3.96454  0  0  0.102253  0  3.983141  0  0  0.04383  0.090224  0  3.951881  0
C  C36  1  0.07851505  0.68498430  0.07704458  1  0  -0.159862  0  3.678242  0  0  -0.175976  0  3.922899  0  0  -0.184246  0  3.944255  0  0  -0.07969  -0.170705  0  3.908402  0
C  C37  1  0.42149081  0.18498775  0.92295436  1  0  -0.159917  0  3.678555  0  0  -0.176079  0  3.923192  0  0  -0.184351  0  3.94455  0  0  -0.079747  -0.17081  0  3.908699  0
C  C38  1  0.92148588  0.31501123  0.92295466  1  0  -0.159774  0  3.678389  0  0  -0.175955  0  3.922998  0  0  -0.184226  0  3.944354  0  0  -0.079685  -0.170687  0  3.908506  0
C  C39  1  0.57850630  0.81501091  0.07704603  1  0  -0.159819  0  3.678333  0  0  -0.175985  0  3.922972  0  0  -0.184255  0  3.944327  0  0  -0.079669  -0.170712  0  3.908475  0
C  C40  1  0.08345593  0.83057535  0.09145451  1  0  0.182384  0  3.675302  0  0  0.195897  0  3.912279  0  0  0.202616  0  3.933397  0  0  0.024822  0.191663  0  3.897641  0
C  C41  1  0.41654894  0.33057986  0.90854128  1  0  0.182265  0  3.675556  0  0  0.195895  0  3.912442  0  0  0.202616  0  3.933559  0  0  0.024811  0.191658  0  3.897805  0
C  C42  1  0.91654247  0.16942019  0.90854429  1  0  0.182233  0  3.67573  0  0  0.195909  0  3.912493  0  0  0.202631  0  3.93361  0  0  0.024846  0.191671  0  3.897854  0
C  C43  1  0.58345073  0.66941880  0.09145683  1  0  0.182263  0  3.675823  0  0  0.195906  0  3.912634  0  0  0.202629  0  3.93375  0  0  0.024809  0.191672  0  3.897999  0
C  C44  1  0.16706412  0.88212333  0.20846826  1  0  -0.17458  0  3.688628  0  0  -0.189356  0  3.929685  0  0  -0.198946  0  3.952392  0  0  -0.086033  -0.183131  0  3.914467  0
C  C45  1  0.33293578  0.38212381  0.79152748  1  0  -0.174557  0  3.688601  0  0  -0.189337  0  3.929604  0  0  -0.198927  0  3.952312  0  0  -0.085972  -0.183112  0  3.914382  0
C  C46  1  0.83294190  0.11787533  0.79152914  1  0  -0.174588  0  3.688743  0  0  -0.189416  0  3.92973  0  0  -0.199006  0  3.952432  0  0  -0.086036  -0.183191  0  3.914508  0
C  C47  1  0.66706265  0.61787693  0.20846950  1  0  -0.174716  0  3.688734  0  0  -0.189534  0  3.929744  0  0  -0.199125  0  3.952449  0  0  -0.086082  -0.183309  0  3.914527  0
C  C48  1  0.23921364  0.79039041  0.30346116  1  0  0.143085  0  3.709771  0  0  0.112039  0  3.961629  0  0  0.119872  0  3.980464  0  0  0.045263  0.107193  0  3.948657  0
C  C49  1  0.26078733  0.29038684  0.69653766  1  0  0.143038  0  3.709578  0  0  0.111987  0  3.961432  0  0  0.11982  0  3.980262  0  0  0.045214  0.107139  0  3.948458  0
C  C50  1  0.76078601  0.20960929  0.69653878  1  0  0.1432  0  3.709516  0  0  0.112155  0  3.961379  0  0  0.11999  0  3.980211  0  0  0.045267  0.107309  0  3.948404  0
C  C51  1  0.73920598  0.70961287  0.30346298  1  0  0.143144  0  3.70951  0  0  0.112111  0  3.961392  0  0  0.119943  0  3.98023  0  0  0.045274  0.107264  0  3.94842  0
C  C52  1  0.00298437  0.92295501  0.98402128  1  0  -0.173256  0  3.705293  0  0  -0.215422  0  3.949963  0  0  -0.217532  0  3.961913  0  0  -0.161082  -0.213918  0  3.941488  0
C  C53  1  0.49701807  0.42295640  0.01597849  1  0  -0.173065  0  3.705241  0  0  -0.215364  0  3.950049  0  0  -0.217475  0  3.962  0  0  -0.161067  -0.21386  0  3.941583  0
C  C54  1  0.99701527  0.07704261  0.01597956  1  0  -0.173183  0  3.705385  0  0  -0.215418  0  3.950011  0  0  -0.217529  0  3.96196  0  0  -0.161092  -0.213905  0  3.94153  0
C  C55  1  0.50298412  0.57704434  0.98402098  1  0  -0.173164  0  3.705345  0  0  -0.215355  0  3.950035  0  0  -0.217467  0  3.961987  0  0  -0.161069  -0.213852  0  3.94157  0
N  N56  1  0.23137680  0.65115695  0.28905905  1  0  -0.366997  0  3.323723  0  0  -0.2889  0  3.605154  0  0  -0.310059  0  3.620251  0  0  -0.338096  -0.274418  0  3.5948  0
N  N57  1  0.26862772  0.15114918  0.71094154  1  0  -0.367059  0  3.323553  0  0  -0.288922  0  3.604954  0  0  -0.310083  0  3.620051  0  0  -0.338058  -0.274439  0  3.594596  0
N  N58  1  0.76862159  0.34884484  0.71094066  1  0  -0.367089  0  3.323678  0  0  -0.288995  0  3.605121  0  0  -0.310157  0  3.620215  0  0  -0.338103  -0.274515  0  3.594764  0
N  N59  1  0.73137193  0.84884844  0.28905839  1  0  -0.36699  0  3.323538  0  0  -0.2889  0  3.604973  0  0  -0.310061  0  3.620066  0  0  -0.33806  -0.274417  0  3.594616  0
O  O60  1  0.47869447  0.37405859  0.45142396  1  0  -0.978723  0  1.783984  0  0  -0.916718  0  2.126447  0  0  -0.955822  0  2.098906  0  0  -0.581712  -0.889499  0  2.145515  0
O  O61  1  0.02130536  0.87405818  0.54857544  1  0  -0.978712  0  1.783971  0  0  -0.9167  0  2.126432  0  0  -0.955806  0  2.09889  0  0  -0.581689  -0.889482  0  2.145496  0
O  O62  1  0.52130643  0.62594216  0.54857711  1  0  -0.978707  0  1.783984  0  0  -0.916699  0  2.126447  0  0  -0.955805  0  2.098907  0  0  -0.58171  -0.88948  0  2.145505  0
O  O63  1  0.97869555  0.12594257  0.45142472  1  0  -0.978691  0  1.78396  0  0  -0.916674  0  2.126416  0  0  -0.955783  0  2.098877  0  0  -0.581695  -0.889452  0  2.145476  0
O  O64  1  0.63844910  0.13521735  0.37070915  1  0  -0.922309  0  1.729564  0  0  -0.894137  0  2.059065  0  0  -0.933288  0  2.043321  0  0  -0.567351  -0.866189  0  2.069324  0
O  O65  1  0.86155164  0.63521518  0.62929243  1  0  -0.922315  0  1.729561  0  0  -0.894144  0  2.059054  0  0  -0.933294  0  2.043312  0  0  -0.567358  -0.866199  0  2.069311  0
O  O66  1  0.36155182  0.86478340  0.62929100  1  0  -0.922306  0  1.729584  0  0  -0.894123  0  2.059058  0  0  -0.933273  0  2.043314  0  0  -0.567354  -0.866175  0  2.069308  0
O  O67  1  0.13844800  0.36478453  0.37070841  1  0  -0.922311  0  1.729589  0  0  -0.894133  0  2.059077  0  0  -0.933286  0  2.043336  0  0  -0.567349  -0.866188  0  2.069336  0
O  O68  1  0.33982490  0.23126112  0.20686891  1  0  -0.768554  0  1.423466  0  0  -0.758129  0  1.681172  0  0  -0.786749  0  1.669127  0  0  -0.552608  -0.738086  0  1.69018  0
O  O69  1  0.16017470  0.73126142  0.79313068  1  0  -0.768554  0  1.423475  0  0  -0.758124  0  1.681177  0  0  -0.786741  0  1.669129  0  0  -0.552591  -0.738077  0  1.690173  0
O  O70  1  0.66017476  0.76874171  0.79313102  1  0  -0.768575  0  1.423487  0  0  -0.758123  0  1.681168  0  0  -0.786742  0  1.669121  0  0  -0.552597  -0.738076  0  1.690158  0
O  O71  1  0.83982621  0.26874141  0.20686947  1  0  -0.768551  0  1.423498  0  0  -0.758106  0  1.681194  0  0  -0.786724  0  1.669143  0  0  -0.552584  -0.738061  0  1.690196  0
O  O72  1  0.32346383  0.08630514  0.43453350  1  0  -0.902014  0  1.714569  0  0  -0.866186  0  2.046711  0  0  -0.903607  0  2.026949  0  0  -0.574274  -0.839966  0  2.060559  0
O  O73  1  0.17653806  0.58630492  0.56546674  1  0  -0.902034  0  1.714555  0  0  -0.866215  0  2.046717  0  0  -0.903635  0  2.026954  0  0  -0.574288  -0.839998  0  2.060564  0
O  O74  1  0.67653709  0.91369560  0.56546665  1  0  -0.90203  0  1.714576  0  0  -0.866208  0  2.046745  0  0  -0.903631  0  2.026981  0  0  -0.574276  -0.839988  0  2.060582  0
O  O75  1  0.82346284  0.41369582  0.43453433  1  0  -0.901977  0  1.714531  0  0  -0.866157  0  2.046691  0  0  -0.90358  0  2.02693  0  0  -0.574256  -0.839935  0  2.060532  0
