# generated using pymatgen
data_Ag3H29C18N8O7
_symmetry_space_group_name_H-M   'P 1'
_cell_length_a   11.29739042
_cell_length_b   11.66405957
_cell_length_c   11.81941844
_cell_angle_alpha   119.56584654
_cell_angle_beta   89.99998077
_cell_angle_gamma   90.00002581
_symmetry_Int_Tables_number   1
_chemical_formula_structural   Ag3H29C18N8O7
_chemical_formula_sum   'Ag6 H58 C36 N16 O14'
_cell_volume   1354.68396376
_cell_formula_units_Z   2
loop_
 _symmetry_equiv_pos_site_id
 _symmetry_equiv_pos_as_xyz
  1  'x, y, z'
loop_
 _atom_site_type_symbol
 _atom_site_label
 _atom_site_symmetry_multiplicity
 _atom_site_fract_x
 _atom_site_fract_y
 _atom_site_fract_z
 _atom_site_occupancy
 _atom_site_hle17_bader_spin_density
 _atom_site_hle17_ddec_charge
 _atom_site_hle17_ddec_spin_density
 _atom_site_hle17_ddec_sum_bond_order
 _atom_site_hle17_magmom
 _atom_site_hse06_10hf_bader_spin_density
 _atom_site_hse06_10hf_ddec_charge
 _atom_site_hse06_10hf_ddec_spin_density
 _atom_site_hse06_10hf_ddec_sum_bond_order
 _atom_site_hse06_10hf_magmom
 _atom_site_hse06_bader_spin_density
 _atom_site_hse06_ddec_charge
 _atom_site_hse06_ddec_spin_density
 _atom_site_hse06_ddec_sum_bond_order
 _atom_site_hse06_magmom
 _atom_site_pbe_bader_spin_density
 _atom_site_pbe_cm5_charge
 _atom_site_pbe_ddec_charge
 _atom_site_pbe_ddec_spin_density
 _atom_site_pbe_ddec_sum_bond_order
 _atom_site_pbe_magmom
Ag  Ag0  1  0.53299737  0.16459221  0.50291058  1  0  0.488721  0  1.351957  0  0  0.342109  0  1.746291  0  0  0.378059  0  1.701788  0  0  0.446482  0.316198  0  1.77727  0
Ag  Ag1  1  0.03299799  0.83540773  0.49709029  1  0  0.488738  0  1.35194  0  0  0.342128  0  1.746288  0  0  0.378077  0  1.701781  0  0  0.446499  0.316224  0  1.77727  0
Ag  Ag2  1  0.53299838  0.66168083  0.49709010  1  0  0.488702  0  1.351994  0  0  0.342112  0  1.7463  0  0  0.378063  0  1.701793  0  0  0.446497  0.316204  0  1.777281  0
Ag  Ag3  1  0.03299788  0.33831911  0.50290991  1  0  0.488748  0  1.351964  0  0  0.342147  0  1.746296  0  0  0.378098  0  1.701785  0  0  0.446508  0.316241  0  1.777279  0
Ag  Ag4  1  0.69189080  0.18632682  0.00000077  1  0  0.491548  0  1.318413  0  0  0.339693  0  1.711437  0  0  0.376115  0  1.664258  0  0  0.45711  0.313548  0  1.7444  0
Ag  Ag5  1  0.19189123  0.81367219  0.99999959  1  0  0.491536  0  1.31841  0  0  0.339702  0  1.711416  0  0  0.376124  0  1.664236  0  0  0.457111  0.313555  0  1.744377  0
H  H6  1  0.84588907  0.09989405  0.57497492  1  0  0.093476  0  0.968728  0  0  0.105554  0  1.035238  0  0  0.106276  0  1.035397  0  0  0.120749  0.104887  0  1.03533  0
H  H7  1  0.34588886  0.90010600  0.42502505  1  0  0.093479  0  0.968722  0  0  0.105559  0  1.035232  0  0  0.106284  0  1.035386  0  0  0.12075  0.104892  0  1.035324  0
H  H8  1  0.84588920  0.52492175  0.42502602  1  0  0.093422  0  0.968694  0  0  0.10552  0  1.035209  0  0  0.106241  0  1.03537  0  0  0.120724  0.104851  0  1.035299  0
H  H9  1  0.34588785  0.47507830  0.57497395  1  0  0.093463  0  0.9687  0  0  0.105553  0  1.035207  0  0  0.106274  0  1.035368  0  0  0.120742  0.104887  0  1.035297  0
H  H10  1  0.79793928  0.94677596  0.43522906  1  0  0.083597  0  0.932878  0  0  0.095889  0  0.996279  0  0  0.097172  0  0.994913  0  0  0.117323  0.094773  0  0.997523  0
H  H11  1  0.29793951  0.05322407  0.56477092  1  0  0.083593  0  0.932876  0  0  0.095889  0  0.996277  0  0  0.097172  0  0.994907  0  0  0.117325  0.094771  0  0.997523  0
H  H12  1  0.79793916  0.51154841  0.56477160  1  0  0.083563  0  0.932881  0  0  0.095875  0  0.996278  0  0  0.097155  0  0.994915  0  0  0.117323  0.094755  0  0.997521  0
H  H13  1  0.29793875  0.48845064  0.43522790  1  0  0.083569  0  0.932901  0  0  0.095869  0  0.996297  0  0  0.09715  0  0.994934  0  0  0.11732  0.09475  0  0.997542  0
H  H14  1  0.59727346  0.86776763  0.43558731  1  0  0.089598  0  0.911136  0  0  0.103726  0  0.973497  0  0  0.105328  0  0.970659  0  0  0.12283  0.102368  0  0.975831  0
H  H15  1  0.09727284  0.13223332  0.56441233  1  0  0.089595  0  0.911179  0  0  0.103743  0  0.973509  0  0  0.105346  0  0.97067  0  0  0.122838  0.102387  0  0.975845  0
H  H16  1  0.59727333  0.43218085  0.56441160  1  0  0.089577  0  0.911196  0  0  0.103739  0  0.973517  0  0  0.105341  0  0.970679  0  0  0.122834  0.102381  0  0.975852  0
H  H17  1  0.09727385  0.56781812  0.43558708  1  0  0.089616  0  0.91117  0  0  0.103741  0  0.973514  0  0  0.105345  0  0.970675  0  0  0.122837  0.102383  0  0.975849  0
H  H18  1  0.50670740  0.95891700  0.57610430  1  0  0.076943  0  0.919417  0  0  0.092066  0  0.986049  0  0  0.09262  0  0.984873  0  0  0.121004  0.091564  0  0.987037  0
H  H19  1  0.00670679  0.04108293  0.42389488  1  0  0.07694  0  0.919447  0  0  0.092074  0  0.986055  0  0  0.092627  0  0.984882  0  0  0.121007  0.091572  0  0.987047  0
H  H20  1  0.50670818  0.38281355  0.42389770  1  0  0.07697  0  0.919379  0  0  0.092071  0  0.986066  0  0  0.09263  0  0.98488  0  0  0.12101  0.091566  0  0.987054  0
H  H21  1  0.00670779  0.61718540  0.57610269  1  0  0.076995  0  0.919403  0  0  0.092069  0  0.986101  0  0  0.09263  0  0.984913  0  0  0.121015  0.091565  0  0.987085  0
H  H22  1  0.57432369  0.15850995  0.75689184  1  0  0.10169  0  0.963574  0  0  0.108315  0  1.030971  0  0  0.109769  0  1.030612  0  0  0.120288  0.107114  0  1.03141  0
H  H23  1  0.07432351  0.84149000  0.24310732  1  0  0.101693  0  0.963576  0  0  0.108316  0  1.03098  0  0  0.10977  0  1.030622  0  0  0.120295  0.107117  0  1.031418  0
H  H24  1  0.57432383  0.40161797  0.24310801  1  0  0.101622  0  0.963577  0  0  0.108231  0  1.031013  0  0  0.109684  0  1.030656  0  0  0.120268  0.107031  0  1.031449  0
H  H25  1  0.07432425  0.59838099  0.75689237  1  0  0.101688  0  0.963582  0  0  0.108312  0  1.030978  0  0  0.109766  0  1.03062  0  0  0.120291  0.107109  0  1.031416  0
H  H26  1  0.72161081  0.21610627  0.75589528  1  0  0.094907  0  0.925579  0  0  0.106964  0  0.988816  0  0  0.107672  0  0.988198  0  0  0.125741  0.106263  0  0.989485  0
H  H27  1  0.22161061  0.78389373  0.24410471  1  0  0.09494  0  0.925656  0  0  0.106998  0  0.988876  0  0  0.107708  0  0.988257  0  0  0.125762  0.106297  0  0.989546  0
H  H28  1  0.72161096  0.46021181  0.24410379  1  0  0.094928  0  0.925679  0  0  0.106977  0  0.988931  0  0  0.107687  0  0.988314  0  0  0.125747  0.106272  0  0.989606  0
H  H29  1  0.22161046  0.53978721  0.75589572  1  0  0.094923  0  0.925677  0  0  0.106967  0  0.988917  0  0  0.107677  0  0.988299  0  0  0.125741  0.106264  0  0.989588  0
H  H30  1  0.67416814  0.87547220  0.78705527  1  0  0.070834  0  0.901139  0  0  0.089741  0  0.959416  0  0  0.090255  0  0.957883  0  0  0.122624  0.089131  0  0.960834  0
H  H31  1  0.17416853  0.12452779  0.21294473  1  0  0.070831  0  0.901133  0  0  0.089736  0  0.959414  0  0  0.09025  0  0.957881  0  0  0.122621  0.089127  0  0.960832  0
H  H32  1  0.67416983  0.08842005  0.21294990  1  0  0.070817  0  0.90114  0  0  0.089747  0  0.959392  0  0  0.09026  0  0.957864  0  0  0.122621  0.089137  0  0.960814  0
H  H33  1  0.17416950  0.91157896  0.78705132  1  0  0.070837  0  0.901134  0  0  0.089769  0  0.959378  0  0  0.09028  0  0.957851  0  0  0.122615  0.08916  0  0.9608  0
H  H34  1  0.54840018  0.96306730  0.77451740  1  0  0.0785  0  0.907216  0  0  0.09665  0  0.967188  0  0  0.097016  0  0.966346  0  0  0.124362  0.096288  0  0.967855  0
H  H35  1  0.04840053  0.03693264  0.22548262  1  0  0.0785  0  0.907211  0  0  0.096653  0  0.967183  0  0  0.097018  0  0.966342  0  0  0.124366  0.096288  0  0.967858  0
H  H36  1  0.54840276  0.18855145  0.22548646  1  0  0.078455  0  0.907185  0  0  0.09661  0  0.967148  0  0  0.096971  0  0.96632  0  0  0.124347  0.096249  0  0.967809  0
H  H37  1  0.04840061  0.81144751  0.77451477  1  0  0.078499  0  0.907183  0  0  0.096644  0  0.967153  0  0  0.097013  0  0.966312  0  0  0.124376  0.096278  0  0.967824  0
H  H38  1  0.87307605  0.95983498  0.78825754  1  0  0.060115  0  0.91584  0  0  0.077015  0  0.980462  0  0  0.077176  0  0.979168  0  0  0.115479  0.07679  0  0.981466  0
H  H39  1  0.37307639  0.04016410  0.21174195  1  0  0.060091  0  0.915845  0  0  0.077007  0  0.980464  0  0  0.077169  0  0.979167  0  0  0.115479  0.076781  0  0.98147  0
H  H40  1  0.87307773  0.17158046  0.21174404  1  0  0.060136  0  0.915856  0  0  0.077047  0  0.980471  0  0  0.077209  0  0.979175  0  0  0.115495  0.076823  0  0.981477  0
H  H41  1  0.37307648  0.82841862  0.78825461  1  0  0.06011  0  0.915893  0  0  0.077023  0  0.980506  0  0  0.077187  0  0.97921  0  0  0.11549  0.076797  0  0.981511  0
H  H42  1  0.88872017  0.10641254  0.77401121  1  0  0.103062  0  0.903148  0  0  0.117822  0  0.96215  0  0  0.11945  0  0.960009  0  0  0.13114  0.116443  0  0.963883  0
H  H43  1  0.38872091  0.89358752  0.22598875  1  0  0.103045  0  0.90315  0  0  0.11781  0  0.962159  0  0  0.119436  0  0.960018  0  0  0.131139  0.116432  0  0.963887  0
H  H44  1  0.88872120  0.33240242  0.22598873  1  0  0.103047  0  0.903163  0  0  0.117831  0  0.96215  0  0  0.119461  0  0.960006  0  0  0.131129  0.116452  0  0.963881  0
H  H45  1  0.38872076  0.66759666  0.77401076  1  0  0.103055  0  0.903101  0  0  0.117838  0  0.962093  0  0  0.119469  0  0.959947  0  0  0.131129  0.116458  0  0.963827  0
H  H46  1  0.80314749  0.75925106  0.60498332  1  0  0.066177  0  0.912338  0  0  0.083039  0  0.977132  0  0  0.083078  0  0.976256  0  0  0.118572  0.082909  0  0.977878  0
H  H47  1  0.30314787  0.24074799  0.39501534  1  0  0.066174  0  0.912332  0  0  0.083042  0  0.977126  0  0  0.083081  0  0.976248  0  0  0.118573  0.082911  0  0.977871  0
H  H48  1  0.80314916  0.15427198  0.39502248  1  0  0.066173  0  0.912364  0  0  0.083029  0  0.977161  0  0  0.08306  0  0.976307  0  0  0.118577  0.082904  0  0.977904  0
H  H49  1  0.30314886  0.84572708  0.60497872  1  0  0.066188  0  0.912378  0  0  0.083049  0  0.977164  0  0  0.083068  0  0.976334  0  0  0.118566  0.082925  0  0.977905  0
H  H50  1  0.77396290  0.75416253  0.45398735  1  0  0.089022  0  0.934399  0  0  0.100101  0  1.001064  0  0  0.101035  0  0.999858  0  0  0.124655  0.099259  0  1.002141  0
H  H51  1  0.27396323  0.24583749  0.54601178  1  0  0.089015  0  0.934406  0  0  0.100093  0  1.00108  0  0  0.101026  0  0.999876  0  0  0.124646  0.099249  0  1.002159  0
H  H52  1  0.77396367  0.30018001  0.54601585  1  0  0.088975  0  0.934392  0  0  0.10006  0  1.001057  0  0  0.100993  0  0.999854  0  0  0.124641  0.099219  0  1.002135  0
H  H53  1  0.27396335  0.69982100  0.45398461  1  0  0.088982  0  0.934416  0  0  0.100065  0  1.00108  0  0  0.101001  0  0.999875  0  0  0.124626  0.099224  0  1.002159  0
H  H54  1  0.29142651  0.32086789  0.88158688  1  0  0.111877  0  0.925856  0  0  0.126235  0  0.981928  0  0  0.129098  0  0.980079  0  0  0.095583  0.124226  0  0.98335  0
H  H55  1  0.79142627  0.67913412  0.11841406  1  0  0.111845  0  0.925887  0  0  0.126189  0  0.981956  0  0  0.129062  0  0.980109  0  0  0.095558  0.124182  0  0.983376  0
H  H56  1  0.29142756  0.43927805  0.11841182  1  0  0.111875  0  0.925893  0  0  0.126221  0  0.981958  0  0  0.129084  0  0.980108  0  0  0.095564  0.12421  0  0.983381  0
H  H57  1  0.79142611  0.56072198  0.88158646  1  0  0.111912  0  0.925859  0  0  0.126227  0  0.981943  0  0  0.129093  0  0.980094  0  0  0.095561  0.124218  0  0.983363  0
H  H58  1  0.27798008  0.47761318  0.89013081  1  0  0.118356  0  0.959809  0  0  0.131138  0  1.022051  0  0  0.133837  0  1.02077  0  0  0.096866  0.129255  0  1.02308  0
H  H59  1  0.77797800  0.52238882  0.10987098  1  0  0.11836  0  0.959797  0  0  0.131139  0  1.022023  0  0  0.133845  0  1.020747  0  0  0.09688  0.129257  0  1.023052  0
H  H60  1  0.27797936  0.58748207  0.10986833  1  0  0.118382  0  0.959794  0  0  0.131154  0  1.02203  0  0  0.133853  0  1.020748  0  0  0.096872  0.12927  0  1.02306  0
H  H61  1  0.77797695  0.41251893  0.89012959  1  0  0.118408  0  0.959766  0  0  0.131178  0  1.021993  0  0  0.133879  0  1.020713  0  0  0.096887  0.129296  0  1.023022  0
H  H62  1  0.57317745  0.53782854  0.99999813  1  0  0.364389  0  0.898713  0  0  0.343447  0  0.969633  0  0  0.353558  0  0.957674  0  0  0.292931  0.336199  0  0.978252  0
H  H63  1  0.07317453  0.46217141  0.00000103  1  0  0.364249  0  0.898904  0  0  0.343385  0  0.969715  0  0  0.353496  0  0.957757  0  0  0.292917  0.336135  0  0.978336  0
C  C64  1  0.79303172  0.00994442  0.54129661  1  0  0.052767  0  3.598595  0  0  -0.019448  0  3.85051  0  0  -0.012619  0  3.862453  0  0  0.009502  -0.02398  0  3.842279  0
C  C65  1  0.29303154  0.99005562  0.45870337  1  0  0.052775  0  3.598588  0  0  -0.01945  0  3.850506  0  0  -0.012619  0  3.862444  0  0  0.009504  -0.023984  0  3.842274  0
C  C66  1  0.79303184  0.46864831  0.45870391  1  0  0.052871  0  3.598484  0  0  -0.019397  0  3.850474  0  0  -0.01257  0  3.862421  0  0  0.00954  -0.023929  0  3.842237  0
C  C67  1  0.29303142  0.53134975  0.54129596  1  0  0.052826  0  3.598543  0  0  -0.019416  0  3.850513  0  0  -0.012582  0  3.862442  0  0  0.009534  -0.023947  0  3.842278  0
C  C68  1  0.59779393  0.92941490  0.54192222  1  0  0.067761  0  3.620953  0  0  -0.011587  0  3.886981  0  0  -0.002109  0  3.894837  0  0  0.009767  -0.017987  0  3.881682  0
C  C69  1  0.09779420  0.07058605  0.45807912  1  0  0.067721  0  3.621029  0  0  -0.011635  0  3.887035  0  0  -0.002158  0  3.894893  0  0  0.00975  -0.018034  0  3.881742  0
C  C70  1  0.59779558  0.38749332  0.45807939  1  0  0.067743  0  3.620954  0  0  -0.011636  0  3.886979  0  0  -0.002158  0  3.894841  0  0  0.009762  -0.018032  0  3.881685  0
C  C71  1  0.09779431  0.61250763  0.54192195  1  0  0.067674  0  3.621079  0  0  -0.011629  0  3.887042  0  0  -0.002157  0  3.894912  0  0  0.009755  -0.018026  0  3.881741  0
C  C72  1  0.66585279  0.12890613  0.72522402  1  0  0.053753  0  3.566148  0  0  -0.015858  0  3.812186  0  0  -0.008443  0  3.823152  0  0  0.005957  -0.020881  0  3.80494  0
C  C73  1  0.16585350  0.87109386  0.27477683  1  0  0.053693  0  3.566252  0  0  -0.015935  0  3.812316  0  0  -0.008521  0  3.82328  0  0  0.005909  -0.020958  0  3.805074  0
C  C74  1  0.66585470  0.40368343  0.27477717  1  0  0.053792  0  3.566257  0  0  -0.015846  0  3.812337  0  0  -0.008433  0  3.823313  0  0  0.005963  -0.02087  0  3.805093  0
C  C75  1  0.16585424  0.59631656  0.72522283  1  0  0.053706  0  3.566359  0  0  -0.01589  0  3.812362  0  0  -0.008481  0  3.823342  0  0  0.005932  -0.020913  0  3.805115  0
C  C76  1  0.64009392  0.93270092  0.74299075  1  0  0.082282  0  3.613502  0  0  -0.000601  0  3.878963  0  0  0.008685  0  3.889884  0  0  0.019673  -0.0069  0  3.871604  0
C  C77  1  0.14009427  0.06729807  0.25700878  1  0  0.0823  0  3.613496  0  0  -0.000584  0  3.878959  0  0  0.008698  0  3.889883  0  0  0.019684  -0.006884  0  3.871601  0
C  C78  1  0.64009561  0.18971282  0.25701240  1  0  0.082437  0  3.613353  0  0  -0.000442  0  3.878792  0  0  0.008837  0  3.889721  0  0  0.019744  -0.006735  0  3.871432  0
C  C79  1  0.14009436  0.81028617  0.74298797  1  0  0.082312  0  3.613398  0  0  -0.000554  0  3.878806  0  0  0.008728  0  3.889737  0  0  0.019685  -0.006852  0  3.87145  0
C  C80  1  0.83735697  0.01578099  0.74345581  1  0  0.07345  0  3.608277  0  0  -0.006145  0  3.870961  0  0  0.002789  0  3.881212  0  0  0.019911  -0.012165  0  3.864021  0
C  C81  1  0.33735774  0.98421906  0.25654501  1  0  0.07354  0  3.608181  0  0  -0.006099  0  3.870907  0  0  0.002842  0  3.881149  0  0  0.01993  -0.012122  0  3.86397  0
C  C82  1  0.83735888  0.27232880  0.25654678  1  0  0.073413  0  3.608248  0  0  -0.0062  0  3.870933  0  0  0.002728  0  3.881191  0  0  0.01993  -0.012219  0  3.863997  0
C  C83  1  0.33735759  0.72767124  0.74345235  1  0  0.073504  0  3.608167  0  0  -0.00612  0  3.870873  0  0  0.002808  0  3.881128  0  0  0.019962  -0.01214  0  3.863932  0
C  C84  1  0.76903875  0.81547799  0.55992697  1  0  0.072422  0  3.620662  0  0  -0.005775  0  3.885293  0  0  0.003256  0  3.894987  0  0  0.012303  -0.011981  0  3.878898  0
C  C85  1  0.26903909  0.18452203  0.44007301  1  0  0.072433  0  3.620572  0  0  -0.005783  0  3.885217  0  0  0.003249  0  3.894911  0  0  0.012303  -0.011983  0  3.878818  0
C  C86  1  0.76904041  0.25555553  0.44007803  1  0  0.072431  0  3.620405  0  0  -0.005768  0  3.885078  0  0  0.003258  0  3.894765  0  0  0.012318  -0.011975  0  3.878698  0
C  C87  1  0.26904008  0.74444450  0.55992280  1  0  0.072336  0  3.620487  0  0  -0.005864  0  3.885156  0  0  0.003161  0  3.89484  0  0  0.012288  -0.012074  0  3.878779  0
C  C88  1  0.40362679  0.34578777  0.74868519  1  0  0.6969  0  3.86516  0  0  0.653195  0  4.158845  0  0  0.686707  0  4.152538  0  0  0.185924  0.630363  0  4.162243  0
C  C89  1  0.90362649  0.65421231  0.25131563  1  0  0.696922  0  3.865223  0  0  0.653192  0  4.158923  0  0  0.686717  0  4.152618  0  0  0.185932  0.630365  0  4.162318  0
C  C90  1  0.40362605  0.59710257  0.25131553  1  0  0.696893  0  3.865245  0  0  0.653164  0  4.158953  0  0  0.686677  0  4.152644  0  0  0.185921  0.630333  0  4.162349  0
C  C91  1  0.90362457  0.40289848  0.74868407  1  0  0.696813  0  3.865364  0  0  0.653115  0  4.159004  0  0  0.686631  0  4.152698  0  0  0.185919  0.630284  0  4.1624  0
C  C92  1  0.34054761  0.40080086  0.87907799  1  0  -0.344868  0  3.626301  0  0  -0.386575  0  3.863757  0  0  -0.393813  0  3.870895  0  0  -0.173927  -0.381571  0  3.8588  0
C  C93  1  0.84054556  0.59920018  0.12092162  1  0  -0.344908  0  3.626322  0  0  -0.386536  0  3.863724  0  0  -0.393819  0  3.870912  0  0  -0.173907  -0.381541  0  3.858774  0
C  C94  1  0.34054777  0.52172164  0.12092199  1  0  -0.344941  0  3.626412  0  0  -0.386586  0  3.863796  0  0  -0.393824  0  3.870933  0  0  -0.173927  -0.381584  0  3.858841  0
C  C95  1  0.84054628  0.47827940  0.87907762  1  0  -0.345054  0  3.626357  0  0  -0.386642  0  3.863709  0  0  -0.393888  0  3.87085  0  0  -0.173945  -0.38165  0  3.858773  0
C  C96  1  0.42274800  0.46433109  0.99999944  1  0  0.270716  0  3.553927  0  0  0.276994  0  3.797777  0  0  0.279962  0  3.810673  0  0  0.071807  0.274909  0  3.788944  0
C  C97  1  0.92274596  0.53566997  0.00000185  1  0  0.270943  0  3.55368  0  0  0.277118  0  3.797665  0  0  0.280103  0  3.810566  0  0  0.07183  0.275033  0  3.788833  0
C  C98  1  0.50786321  0.35918727  0.99999959  1  0  0.580654  0  3.882666  0  0  0.53478  0  4.173267  0  0  0.565556  0  4.171892  0  0  0.182504  0.513849  0  4.173311  0
C  C99  1  0.00786197  0.64081244  0.99999960  1  0  0.58063  0  3.882671  0  0  0.534732  0  4.173357  0  0  0.565507  0  4.171982  0  0  0.182498  0.513801  0  4.173397  0
N  N100  1  0.66929341  0.04821883  0.58228762  1  0  -0.25947  0  3.226642  0  0  -0.168842  0  3.477992  0  0  -0.187453  0  3.495756  0  0  -0.350274  -0.155772  0  3.465282  0
N  N101  1  0.16929323  0.95178115  0.41771238  1  0  -0.259439  0  3.226661  0  0  -0.168813  0  3.478017  0  0  -0.187418  0  3.495776  0  0  -0.350262  -0.155745  0  3.465312  0
N  N102  1  0.66929354  0.46593238  0.41771204  1  0  -0.259455  0  3.226604  0  0  -0.168795  0  3.477963  0  0  -0.1874  0  3.495727  0  0  -0.350277  -0.155727  0  3.46525  0
N  N103  1  0.16929310  0.53406662  0.58228833  1  0  -0.259514  0  3.226728  0  0  -0.168875  0  3.478045  0  0  -0.187485  0  3.495812  0  0  -0.350303  -0.155804  0  3.465333  0
N  N104  1  0.71284414  0.05355999  0.78773802  1  0  -0.261653  0  3.260214  0  0  -0.152596  0  3.508964  0  0  -0.173739  0  3.528624  0  0  -0.358973  -0.137972  0  3.495039  0
N  N105  1  0.21284403  0.94644002  0.21226197  1  0  -0.261698  0  3.260146  0  0  -0.152641  0  3.50891  0  0  -0.173785  0  3.528568  0  0  -0.359001  -0.138017  0  3.494986  0
N  N106  1  0.71284341  0.26582407  0.21226376  1  0  -0.261753  0  3.260256  0  0  -0.152695  0  3.509039  0  0  -0.17384  0  3.52871  0  0  -0.359014  -0.138072  0  3.495116  0
N  N107  1  0.21284388  0.73417495  0.78773576  1  0  -0.261736  0  3.260137  0  0  -0.152705  0  3.508915  0  0  -0.173849  0  3.528578  0  0  -0.359014  -0.138082  0  3.494991  0
N  N108  1  0.64352924  0.84984685  0.59966000  1  0  -0.273157  0  3.260785  0  0  -0.170321  0  3.517725  0  0  -0.190619  0  3.536119  0  0  -0.36024  -0.156084  0  3.504714  0
N  N109  1  0.14352869  0.15015313  0.40034000  1  0  -0.273143  0  3.260757  0  0  -0.17031  0  3.517709  0  0  -0.190606  0  3.5361  0  0  -0.360233  -0.156074  0  3.504698  0
N  N110  1  0.64353090  0.25018985  0.40034344  1  0  -0.273213  0  3.260717  0  0  -0.170391  0  3.517722  0  0  -0.190684  0  3.53612  0  0  -0.360279  -0.156157  0  3.50471  0
N  N111  1  0.14352968  0.74981013  0.59965741  1  0  -0.273123  0  3.260701  0  0  -0.170316  0  3.517691  0  0  -0.190607  0  3.536088  0  0  -0.360239  -0.156076  0  3.504679  0
N  N112  1  0.84234862  0.93387514  0.60094371  1  0  -0.261671  0  3.223445  0  0  -0.166783  0  3.474395  0  0  -0.185659  0  3.49213  0  0  -0.34894  -0.153332  0  3.461597  0
N  N113  1  0.34234892  0.06612392  0.39905494  1  0  -0.261674  0  3.223423  0  0  -0.16675  0  3.474349  0  0  -0.18564  0  3.492112  0  0  -0.348928  -0.153297  0  3.461533  0
N  N114  1  0.84234940  0.33293364  0.39905650  1  0  -0.261535  0  3.223315  0  0  -0.166661  0  3.474317  0  0  -0.185533  0  3.492051  0  0  -0.348957  -0.153218  0  3.461536  0
N  N115  1  0.34234902  0.66706543  0.60094299  1  0  -0.261497  0  3.223287  0  0  -0.166627  0  3.474262  0  0  -0.1855  0  3.491997  0  0  -0.348908  -0.153182  0  3.461477  0
O  O116  1  0.46731223  0.25838967  0.99999763  1  0  -0.647427  0  1.877201  0  0  -0.596888  0  2.099547  0  0  -0.621735  0  2.089078  0  0  -0.37091  -0.579196  0  2.106092  0
O  O117  1  0.96731276  0.74160922  0.99999933  1  0  -0.647455  0  1.877168  0  0  -0.596907  0  2.099533  0  0  -0.621753  0  2.089063  0  0  -0.370934  -0.579215  0  2.106076  0
O  O118  1  0.61825951  0.38509941  0.99999802  1  0  -0.65453  0  2.021323  0  0  -0.582792  0  2.262647  0  0  -0.612584  0  2.254584  0  0  -0.340581  -0.561742  0  2.267526  0
O  O119  1  0.11825754  0.61489957  0.00000151  1  0  -0.654483  0  2.02142  0  0  -0.582741  0  2.262748  0  0  -0.612534  0  2.254686  0  0  -0.340549  -0.561693  0  2.267625  0
O  O120  1  0.42439975  0.41912516  0.70027721  1  0  -0.673357  0  1.907754  0  0  -0.623257  0  2.14195  0  0  -0.648373  0  2.131257  0  0  -0.352275  -0.605361  0  2.148635  0
O  O121  1  0.92439940  0.58087393  0.29972227  1  0  -0.673357  0  1.907823  0  0  -0.623248  0  2.142023  0  0  -0.648362  0  2.131324  0  0  -0.352262  -0.605354  0  2.148705  0
O  O122  1  0.42439989  0.71884837  0.29972319  1  0  -0.673377  0  1.907762  0  0  -0.623275  0  2.141964  0  0  -0.648389  0  2.131268  0  0  -0.352281  -0.605383  0  2.148652  0
O  O123  1  0.92439749  0.28115270  0.70027641  1  0  -0.673323  0  1.907778  0  0  -0.623231  0  2.141961  0  0  -0.648345  0  2.131265  0  0  -0.352283  -0.60534  0  2.148656  0
O  O124  1  0.42968412  0.22189868  0.69191783  1  0  -0.665645  0  2.009124  0  0  -0.589135  0  2.2589  0  0  -0.619849  0  2.249077  0  0  -0.356678  -0.567294  0  2.264651  0
O  O125  1  0.92968739  0.77810041  0.30808166  1  0  -0.665674  0  2.009173  0  0  -0.589158  0  2.258958  0  0  -0.61987  0  2.249132  0  0  -0.356706  -0.56731  0  2.264687  0
O  O126  1  0.42968691  0.52998008  0.30808154  1  0  -0.665618  0  2.009211  0  0  -0.589095  0  2.258979  0  0  -0.619812  0  2.249163  0  0  -0.356684  -0.56725  0  2.264716  0
O  O127  1  0.92968460  0.47002000  0.69191673  1  0  -0.665624  0  2.009267  0  0  -0.589124  0  2.259031  0  0  -0.619839  0  2.249213  0  0  -0.356687  -0.567274  0  2.264765  0
O  O128  1  0.49111337  0.56692922  0.99999983  1  0  -0.578089  0  1.969616  0  0  -0.540491  0  2.169185  0  0  -0.554047  0  2.15692  0  0  -0.423709  -0.530649  0  2.177646  0
O  O129  1  0.99111022  0.43307068  0.99999929  1  0  -0.578022  0  1.969606  0  0  -0.540465  0  2.169135  0  0  -0.554023  0  2.156869  0  0  -0.423711  -0.530619  0  2.177596  0
