# generated using pymatgen
data_ZnH13C11BrN5ClO
_symmetry_space_group_name_H-M   'P 1'
_cell_length_a   7.94810129
_cell_length_b   8.75868376
_cell_length_c   21.11300000
_cell_angle_alpha   90.00000000
_cell_angle_beta   92.17601927
_cell_angle_gamma   90.00000000
_symmetry_Int_Tables_number   1
_chemical_formula_structural   ZnH13C11BrN5ClO
_chemical_formula_sum   'Zn4 H52 C44 Br4 N20 Cl4 O4'
_cell_volume   1468.71963985
_cell_formula_units_Z   4
loop_
 _symmetry_equiv_pos_site_id
 _symmetry_equiv_pos_as_xyz
  1  'x, y, z'
loop_
 _atom_site_type_symbol
 _atom_site_label
 _atom_site_symmetry_multiplicity
 _atom_site_fract_x
 _atom_site_fract_y
 _atom_site_fract_z
 _atom_site_occupancy
 _atom_site_hle17_bader_spin_density
 _atom_site_hle17_ddec_charge
 _atom_site_hle17_ddec_spin_density
 _atom_site_hle17_ddec_sum_bond_order
 _atom_site_hle17_magmom
 _atom_site_hse06_10hf_bader_spin_density
 _atom_site_hse06_10hf_ddec_charge
 _atom_site_hse06_10hf_ddec_spin_density
 _atom_site_hse06_10hf_ddec_sum_bond_order
 _atom_site_hse06_10hf_magmom
 _atom_site_hse06_bader_spin_density
 _atom_site_hse06_ddec_charge
 _atom_site_hse06_ddec_spin_density
 _atom_site_hse06_ddec_sum_bond_order
 _atom_site_hse06_magmom
 _atom_site_pbe_bader_charge
 _atom_site_pbe_bader_spin_density
 _atom_site_pbe_cm5_charge
 _atom_site_pbe_ddec_charge
 _atom_site_pbe_ddec_spin_density
 _atom_site_pbe_ddec_sum_bond_order
 _atom_site_pbe_magmom
Zn  Zn0  1  0.30641736  0.78550958  0.21590690  1  0  0.947672  0  1.95402  0  0  0.773448  0  2.416043  0  0  0.813448  0  2.370419  0  1.244968  0  0.719043  0.746005  0  2.447069  0
Zn  Zn1  1  0.69358266  0.78550730  0.28409291  1  0  0.947642  0  1.953988  0  0  0.773415  0  2.416002  0  0  0.813413  0  2.37038  0  1.244866  0  0.719032  0.745969  0  2.447029  0
Zn  Zn2  1  0.69358517  0.21449113  0.78409389  1  0  0.947643  0  1.953984  0  0  0.77344  0  2.416002  0  0  0.813438  0  2.370383  0  1.244908  0  0.719058  0.745997  0  2.447029  0
Zn  Zn3  1  0.30641862  0.21449113  0.71590645  1  0  0.94766  0  1.954001  0  0  0.773448  0  2.416023  0  0  0.813448  0  2.370397  0  1.245009  0  0.719037  0.745997  0  2.447058  0
H  H4  1  0.08872793  0.11705983  0.47692402  1  0  0.10534  0  0.986917  0  0  0.110546  0  1.061627  0  0  0.11394  0  1.058661  0  0.11934  0  0.094176  0.108122  0  1.063706  0
H  H5  1  0.91127335  0.11705983  0.02307628  1  0  0.105346  0  0.986915  0  0  0.110572  0  1.061609  0  0  0.113966  0  1.058641  0  0.119427  0  0.094188  0.108149  0  1.063685  0
H  H6  1  0.91127083  0.88294089  0.52307719  1  0  0.105373  0  0.986901  0  0  0.11057  0  1.061637  0  0  0.113964  0  1.058669  0  0.119457  0  0.0942  0.108145  0  1.063717  0
H  H7  1  0.08872793  0.88293974  0.97692260  1  0  0.105365  0  0.986897  0  0  0.110563  0  1.061628  0  0  0.113957  0  1.05866  0  0.119445  0  0.094197  0.108137  0  1.063708  0
H  H8  1  0.12818089  0.34985165  0.29885441  1  0  0.113402  0  0.941939  0  0  0.122581  0  1.005674  0  0  0.125364  0  1.004001  0  0.118495  0  0.10557  0.120584  0  1.006889  0
H  H9  1  0.87181409  0.34984595  0.20114627  1  0  0.113366  0  0.941943  0  0  0.122559  0  1.005669  0  0  0.125342  0  1.003993  0  0.118566  0  0.105534  0.120562  0  1.006885  0
H  H10  1  0.87182039  0.65014792  0.70114636  1  0  0.113369  0  0.941962  0  0  0.122561  0  1.005697  0  0  0.125345  0  1.00402  0  0.118517  0  0.105557  0.120563  0  1.006912  0
H  H11  1  0.12817837  0.65015020  0.79885295  1  0  0.113377  0  0.941973  0  0  0.122582  0  1.005692  0  0  0.125366  0  1.004012  0  0.118539  0  0.105545  0.120584  0  1.006907  0
H  H12  1  0.22752403  0.23873450  0.21276387  1  0  0.060238  0  0.935712  0  0  0.071018  0  1.006358  0  0  0.072815  0  1.002829  0  0.078288  0  0.112602  0.069643  0  1.008936  0
H  H13  1  0.77247850  0.23872651  0.28723598  1  0  0.060291  0  0.93566  0  0  0.071081  0  1.006319  0  0  0.072879  0  1.002787  0  0.078357  0  0.112624  0.069701  0  1.008896  0
H  H14  1  0.77247850  0.76126735  0.78723787  1  0  0.060246  0  0.935713  0  0  0.071024  0  1.006369  0  0  0.072819  0  1.002846  0  0.07855  0  0.112588  0.069656  0  1.008939  0
H  H15  1  0.22751773  0.76126849  0.71276236  1  0  0.060219  0  0.935702  0  0  0.071008  0  1.006372  0  0  0.072802  0  1.002849  0  0.078511  0  0.112597  0.069639  0  1.008936  0
H  H16  1  0.27976285  0.15939039  0.11603886  1  0  0.065535  0  0.933096  0  0  0.082485  0  0.997458  0  0  0.082346  0  0.998375  0  0.043759  0  0.102603  0.082491  0  0.996885  0
H  H17  1  0.72023465  0.15939039  0.38395902  1  0  0.065514  0  0.933071  0  0  0.08244  0  0.997453  0  0  0.082293  0  0.998383  0  0.043707  0  0.102608  0.082446  0  0.996878  0
H  H18  1  0.72023591  0.84061147  0.88396235  1  0  0.065522  0  0.933099  0  0  0.082468  0  0.997482  0  0  0.082333  0  0.998389  0  0.04378  0  0.102603  0.082473  0  0.996911  0
H  H19  1  0.27976536  0.84060918  0.61603843  1  0  0.065519  0  0.933078  0  0  0.08246  0  0.997463  0  0  0.082323  0  0.998373  0  0.043684  0  0.102602  0.082466  0  0.99689  0
H  H20  1  0.48178189  0.08302275  0.13639914  1  0  0.072762  0  0.92944  0  0  0.09383  0  0.983776  0  0  0.09274  0  0.986396  0  0.083138  0  0.106284  0.094455  0  0.982087  0
H  H21  1  0.51821183  0.08302389  0.36360153  1  0  0.072762  0  0.929436  0  0  0.093828  0  0.983772  0  0  0.092734  0  0.986396  0  0.083078  0  0.106248  0.094453  0  0.982081  0
H  H22  1  0.51821686  0.91697911  0.86360160  1  0  0.072769  0  0.929417  0  0  0.09385  0  0.98376  0  0  0.092759  0  0.98638  0  0.083013  0  0.106278  0.094476  0  0.982069  0
H  H23  1  0.48178567  0.91697682  0.63639872  1  0  0.072763  0  0.929433  0  0  0.093837  0  0.983775  0  0  0.092744  0  0.986401  0  0.083103  0  0.106264  0.094462  0  0.982085  0
H  H24  1  0.36496537  0.94813790  0.04247390  1  0  0.05007  0  0.939325  0  0  0.063921  0  1.010881  0  0  0.064748  0  1.010227  0  0.045426  0  0.089927  0.06324  0  1.011439  0
H  H25  1  0.63503212  0.94813790  0.45752682  1  0  0.05007  0  0.939315  0  0  0.063942  0  1.010848  0  0  0.06477  0  1.010194  0  0.045422  0  0.089948  0.063259  0  1.01141  0
H  H26  1  0.63503212  0.05186396  0.95752682  1  0  0.050052  0  0.939293  0  0  0.06393  0  1.010817  0  0  0.064756  0  1.010161  0  0.045426  0  0.089933  0.06325  0  1.011372  0
H  H27  1  0.36497041  0.05186282  0.54247302  1  0  0.050073  0  0.939375  0  0  0.063923  0  1.010905  0  0  0.06475  0  1.010251  0  0.045401  0  0.089942  0.063241  0  1.011463  0
H  H28  1  0.17550429  0.90800744  0.08165655  1  0  0.059312  0  0.94323  0  0  0.076211  0  1.010324  0  0  0.075836  0  1.011683  0  0.068589  0  0.096862  0.076351  0  1.009501  0
H  H29  1  0.82449321  0.90801086  0.41834322  1  0  0.059287  0  0.943343  0  0  0.076159  0  1.010487  0  0  0.075784  0  1.011847  0  0.068608  0  0.096829  0.076311  0  1.00965  0
H  H30  1  0.82449446  0.09199442  0.91834514  1  0  0.059291  0  0.943274  0  0  0.07621  0  1.010371  0  0  0.075815  0  1.011748  0  0.068588  0  0.096848  0.07633  0  1.00957  0
H  H31  1  0.17550807  0.09199327  0.58165518  1  0  0.059333  0  0.943313  0  0  0.076209  0  1.010426  0  0  0.075834  0  1.011785  0  0.068637  0  0.09686  0.076339  0  1.009613  0
H  H32  1  0.20292684  0.64052547  0.06935255  1  0  0.047915  0  0.9521  0  0  0.061894  0  1.024119  0  0  0.061981  0  1.024618  0  0.021253  0  0.087223  0.061726  0  1.023927  0
H  H33  1  0.79707444  0.64052547  0.43064585  1  0  0.047882  0  0.952107  0  0  0.06188  0  1.024119  0  0  0.061968  0  1.024617  0  0.021227  0  0.087217  0.061712  0  1.023928  0
H  H34  1  0.79707192  0.35947753  0.93064866  1  0  0.047939  0  0.95205  0  0  0.06192  0  1.024058  0  0  0.062008  0  1.024556  0  0.021258  0  0.087233  0.061753  0  1.023864  0
H  H35  1  0.20293187  0.35947639  0.56935215  1  0  0.047857  0  0.952109  0  0  0.061825  0  1.024152  0  0  0.06191  0  1.024651  0  0.021307  0  0.087193  0.061661  0  1.02396  0
H  H36  1  0.38355680  0.67909633  0.02541856  1  0  0.034961  0  0.928381  0  0  0.05231  0  0.993514  0  0  0.052392  0  0.993774  0  0.028687  0  0.086117  0.052201  0  0.993382  0
H  H37  1  0.61644699  0.67909290  0.47458130  1  0  0.034935  0  0.928337  0  0  0.052275  0  0.993496  0  0  0.052358  0  0.993757  0  0.028784  0  0.086113  0.052166  0  0.993365  0
H  H38  1  0.61644069  0.32090552  0.97458169  1  0  0.034948  0  0.928386  0  0  0.052322  0  0.993494  0  0  0.052405  0  0.993756  0  0.028669  0  0.086108  0.052212  0  0.993362  0
H  H39  1  0.38356184  0.32090438  0.52541863  1  0  0.034935  0  0.928385  0  0  0.052305  0  0.993499  0  0  0.052386  0  0.993756  0  0.028676  0  0.086095  0.052196  0  0.993372  0
H  H40  1  0.55603051  0.51369705  0.10500697  1  0  0.104009  0  0.948256  0  0  0.123683  0  1.010706  0  0  0.125062  0  1.010855  0  0.016338  0  0.083812  0.122645  0  1.010667  0
H  H41  1  0.44397076  0.51369819  0.39499238  1  0  0.103968  0  0.948258  0  0  0.123643  0  1.010711  0  0  0.125021  0  1.010863  0  0.016364  0  0.08381  0.122604  0  1.010673  0
H  H42  1  0.44396950  0.48630595  0.89499473  1  0  0.104034  0  0.948193  0  0  0.123684  0  1.010673  0  0  0.125064  0  1.010823  0  0.016338  0  0.083803  0.122647  0  1.010633  0
H  H43  1  0.55603555  0.48630481  0.60500657  1  0  0.104065  0  0.948233  0  0  0.123719  0  1.010691  0  0  0.125099  0  1.01084  0  0.016273  0  0.083824  0.122681  0  1.010652  0
H  H44  1  0.39896656  0.41392978  0.05944643  1  0  0.093993  0  0.959569  0  0  0.115864  0  1.022835  0  0  0.117237  0  1.02258  0  0.03029  0  0.080498  0.114844  0  1.023055  0
H  H45  1  0.60103345  0.41392749  0.44055243  1  0  0.094008  0  0.959533  0  0  0.115866  0  1.022809  0  0  0.117239  0  1.022552  0  0.030303  0  0.080502  0.114845  0  1.023029  0
H  H46  1  0.60103345  0.58607208  0.94055480  1  0  0.094026  0  0.959565  0  0  0.115864  0  1.02286  0  0  0.117237  0  1.022606  0  0.030241  0  0.08049  0.114844  0  1.023079  0
H  H47  1  0.39897034  0.58607094  0.55944601  1  0  0.094015  0  0.959554  0  0  0.11588  0  1.022826  0  0  0.117253  0  1.022571  0  0.030311  0  0.08049  0.114858  0  1.023048  0
H  H48  1  0.36288791  0.46136841  0.13936932  1  0  0.095591  0  0.979689  0  0  0.112657  0  1.050505  0  0  0.113074  0  1.051659  0  0.047003  0  0.083034  0.112286  0  1.049771  0
H  H49  1  0.63711211  0.46136841  0.36062954  1  0  0.095576  0  0.979689  0  0  0.112658  0  1.050491  0  0  0.113075  0  1.051648  0  0.046939  0  0.083034  0.112287  0  1.049756  0
H  H50  1  0.63711085  0.53863459  0.86063189  1  0  0.095518  0  0.979699  0  0  0.112618  0  1.050477  0  0  0.113038  0  1.051631  0  0.047017  0  0.083014  0.112248  0  1.049741  0
H  H51  1  0.36289420  0.53863230  0.63936894  1  0  0.095603  0  0.979669  0  0  0.112662  0  1.050472  0  0  0.113077  0  1.051628  0  0.046984  0  0.08304  0.112291  0  1.049736  0
H  H52  1  0.50872473  0.78868814  0.12293355  1  0  0.24966  0  0.93525  0  0  0.239077  0  0.996388  0  0  0.244915  0  0.992808  0  0.447217  0  0.280347  0.234865  0  0.999113  0
H  H53  1  0.49127402  0.78868700  0.37706624  1  0  0.249708  0  0.935226  0  0  0.239119  0  0.996372  0  0  0.244963  0  0.992775  0  0.447199  0  0.280378  0.234905  0  0.999103  0
H  H54  1  0.49127528  0.21131371  0.87706674  1  0  0.24957  0  0.93537  0  0  0.239019  0  0.996501  0  0  0.244862  0  0.992906  0  0.447219  0  0.280341  0.234808  0  0.99922  0
H  H55  1  0.50872851  0.21131143  0.62293360  1  0  0.249674  0  0.935231  0  0  0.239098  0  0.996358  0  0  0.244933  0  0.992787  0  0.447107  0  0.280357  0.234885  0  0.999085  0
C  C56  1  0.19633309  0.11053602  0.29826745  1  0  -0.099277  0  3.795429  0  0  -0.079458  0  4.042582  0  0  -0.093368  0  4.070091  0  0.022203  0  -0.036843  -0.070359  0  4.023959  0
C  C57  1  0.80366693  0.11052802  0.20173284  1  0  -0.099308  0  3.795428  0  0  -0.079465  0  4.042653  0  0  -0.093377  0  4.070162  0  0.0225  0  -0.036858  -0.070367  0  4.024028  0
C  C58  1  0.80366945  0.88946470  0.70173430  1  0  -0.099273  0  3.795428  0  0  -0.079467  0  4.042589  0  0  -0.093376  0  4.070097  0  0.022133  0  -0.036855  -0.070369  0  4.023969  0
C  C59  1  0.19633057  0.88946584  0.79826599  1  0  -0.099341  0  3.795477  0  0  -0.079496  0  4.042631  0  0  -0.093404  0  4.070139  0  0.022483  0  -0.036834  -0.070396  0  4.024007  0
C  C60  1  0.21859470  0.97140052  0.33415378  1  0  0.307214  0  3.888457  0  0  0.282707  0  4.151455  0  0  0.301155  0  4.165855  0  0.788671  0  0.085801  0.270442  0  4.141253  0
C  C61  1  0.78140153  0.97139596  0.16584550  1  0  0.307215  0  3.888444  0  0  0.282631  0  4.151568  0  0  0.30108  0  4.165966  0  0.788125  0  0.085759  0.270367  0  4.141369  0
C  C62  1  0.78140531  0.02859905  0.66584745  1  0  0.307143  0  3.888515  0  0  0.282661  0  4.151478  0  0  0.301109  0  4.165875  0  0.788673  0  0.085804  0.270398  0  4.141277  0
C  C63  1  0.21859722  0.02860019  0.83415335  1  0  0.307277  0  3.888447  0  0  0.282774  0  4.151436  0  0  0.301221  0  4.165835  0  0.788114  0  0.085845  0.270507  0  4.141239  0
C  C64  1  0.17666264  0.98222635  0.39952135  1  0  -0.030643  0  3.667538  0  0  -0.014375  0  3.939221  0  0  -0.018096  0  3.959157  0  -0.13325  0  -0.040384  -0.012328  0  3.925883  0
C  C65  1  0.82333738  0.98222293  0.10047704  1  0  -0.030733  0  3.667544  0  0  -0.014438  0  3.939236  0  0  -0.018159  0  3.959173  0  -0.133541  0  -0.040445  -0.012392  0  3.9259  0
C  C66  1  0.82333612  0.01777436  0.60047986  1  0  -0.030591  0  3.667597  0  0  -0.014324  0  3.939255  0  0  -0.018044  0  3.959191  0  -0.133259  0  -0.040395  -0.012277  0  3.925917  0
C  C67  1  0.17666515  0.01777550  0.89952044  1  0  -0.030726  0  3.667651  0  0  -0.014444  0  3.939297  0  0  -0.018165  0  3.959233  0  -0.133296  0  -0.040466  -0.012396  0  3.925958  0
C  C68  1  0.11994531  0.11459370  0.42723146  1  0  -0.159068  0  3.810929  0  0  -0.19344  0  4.068742  0  0  -0.190449  0  4.087578  0  0.051841  0  -0.108257  -0.194934  0  4.055831  0
C  C69  1  0.88005471  0.11459028  0.07276835  1  0  -0.15909  0  3.811035  0  0  -0.193468  0  4.068858  0  0  -0.190476  0  4.087697  0  0.051735  0  -0.108273  -0.194962  0  4.055944  0
C  C70  1  0.88005471  0.88540701  0.57276930  1  0  -0.159114  0  3.810939  0  0  -0.193481  0  4.068759  0  0  -0.19049  0  4.087595  0  0.051833  0  -0.108262  -0.194975  0  4.055846  0
C  C71  1  0.11994531  0.88540815  0.92723099  1  0  -0.1591  0  3.810922  0  0  -0.193475  0  4.068759  0  0  -0.190482  0  4.087597  0  0.051849  0  -0.108262  -0.194968  0  4.055845  0
C  C72  1  0.10187513  0.24764452  0.39041370  1  0  0.104246  0  3.843421  0  0  0.117683  0  4.115331  0  0  0.115454  0  4.138172  0  -0.006982  0  -0.012865  0.118723  0  4.099919  0
C  C73  1  0.89812614  0.24763995  0.10958613  1  0  0.104352  0  3.843266  0  0  0.117744  0  4.115241  0  0  0.115508  0  4.138092  0  -0.006981  0  -0.012809  0.118785  0  4.099829  0
C  C74  1  0.89812488  0.75235620  0.60958706  1  0  0.104269  0  3.843397  0  0  0.117665  0  4.11536  0  0  0.115435  0  4.138205  0  -0.006967  0  -0.012878  0.118706  0  4.099948  0
C  C75  1  0.10187388  0.75235734  0.89041274  1  0  0.104304  0  3.843334  0  0  0.117715  0  4.115281  0  0  0.115475  0  4.138138  0  -0.006963  0  -0.01284  0.118755  0  4.099869  0
C  C76  1  0.13938283  0.24567847  0.32703234  1  0  -0.138635  0  3.75993  0  0  -0.176069  0  4.019677  0  0  -0.172685  0  4.039441  0  -0.066708  0  -0.093988  -0.177858  0  4.006054  0
C  C77  1  0.86061341  0.24567162  0.17296836  1  0  -0.138569  0  3.75989  0  0  -0.175984  0  4.019625  0  0  -0.172596  0  4.03939  0  -0.066687  0  -0.093928  -0.177775  0  4.006004  0
C  C78  1  0.86061718  0.75432224  0.67296889  1  0  -0.138528  0  3.759911  0  0  -0.175955  0  4.019664  0  0  -0.172571  0  4.039428  0  -0.066686  0  -0.093941  -0.177744  0  4.00604  0
C  C79  1  0.13938283  0.75432453  0.82703139  1  0  -0.138532  0  3.759966  0  0  -0.175982  0  4.019709  0  0  -0.172596  0  4.039477  0  -0.066682  0  -0.093934  -0.177771  0  4.006085  0
C  C80  1  0.23989691  0.12336443  0.23295399  1  0  0.18935  0  3.70031  0  0  0.140696  0  3.958729  0  0  0.157083  0  3.97077  0  0.645821  0  0.083175  0.129762  0  3.950513  0
C  C81  1  0.76009933  0.12335986  0.26704530  1  0  0.189179  0  3.699888  0  0  0.140466  0  3.95841  0  0  0.156854  0  3.970451  0  0.645885  0  0.082996  0.129538  0  3.950189  0
C  C82  1  0.76010436  0.87663514  0.76704726  1  0  0.18913  0  3.700149  0  0  0.14048  0  3.958579  0  0  0.156866  0  3.970623  0  0.645576  0  0.083057  0.129547  0  3.950359  0
C  C83  1  0.23989565  0.87663743  0.73295255  1  0  0.18927  0  3.700152  0  0  0.140563  0  3.95863  0  0  0.156948  0  3.970672  0  0.645633  0  0.083075  0.129633  0  3.950401  0
C  C84  1  0.34604155  0.05664207  0.13379626  1  0  0.004642  0  3.686674  0  0  -0.049003  0  3.941493  0  0  -0.045441  0  3.955337  0  0.294653  0  -0.067542  -0.051207  0  3.931952  0
C  C85  1  0.65395469  0.05664093  0.36620302  1  0  0.004725  0  3.686732  0  0  -0.048876  0  3.941479  0  0  -0.045306  0  3.955307  0  0.294756  0  -0.067481  -0.05108  0  3.931937  0
C  C86  1  0.65395846  0.94335978  0.86620402  1  0  0.004685  0  3.686801  0  0  -0.049016  0  3.94168  0  0  -0.045449  0  3.955518  0  0.294781  0  -0.067532  -0.051216  0  3.932133  0
C  C87  1  0.34604407  0.94335864  0.63379583  1  0  0.004774  0  3.686707  0  0  -0.048909  0  3.941527  0  0  -0.045347  0  3.955369  0  0.29475  0  -0.067501  -0.051115  0  3.931986  0
C  C88  1  0.31235136  0.92338189  0.08901640  1  0  0.005425  0  3.679751  0  0  -0.056267  0  3.948384  0  0  -0.052754  0  3.960663  0  0.240097  0  -0.077622  -0.05853  0  3.939868  0
C  C89  1  0.68764614  0.92338189  0.41098385  1  0  0.005367  0  3.679906  0  0  -0.056327  0  3.948508  0  0  -0.052814  0  3.960786  0  0.24011  0  -0.077645  -0.058598  0  3.93999  0
C  C90  1  0.68764866  0.07661996  0.91098483  1  0  0.005395  0  3.67979  0  0  -0.056303  0  3.948429  0  0  -0.052775  0  3.960711  0  0.240062  0  -0.077642  -0.058555  0  3.939915  0
C  C91  1  0.31235639  0.07661882  0.58901553  1  0  0.005226  0  3.680075  0  0  -0.056394  0  3.948582  0  0  -0.052881  0  3.960865  0  0.240073  0  -0.077679  -0.058651  0  3.940067  0
C  C92  1  0.34072324  0.65101791  0.07329302  1  0  0.085114  0  3.681692  0  0  0.032821  0  3.948368  0  0  0.037087  0  3.962145  0  0.314994  0  -0.079399  0.030026  0  3.938721  0
C  C93  1  0.65927929  0.65101791  0.42670635  1  0  0.085179  0  3.681556  0  0  0.032875  0  3.94828  0  0  0.03714  0  3.962061  0  0.314713  0  -0.079391  0.030084  0  3.938623  0
C  C94  1  0.65927552  0.34898394  0.92670772  1  0  0.085046  0  3.681639  0  0  0.032754  0  3.948349  0  0  0.037017  0  3.962132  0  0.314487  0  -0.079435  0.029968  0  3.938686  0
C  C95  1  0.34072702  0.34898166  0.57329355  1  0  0.085203  0  3.681691  0  0  0.032904  0  3.948384  0  0  0.037182  0  3.962143  0  0.314496  0  -0.079359  0.030124  0  3.938692  0
C  C96  1  0.41950703  0.50201264  0.09595469  1  0  -0.314858  0  3.717546  0  0  -0.389717  0  3.961232  0  0  -0.39255  0  3.972504  0  -0.052542  0  -0.252667  -0.387503  0  3.95344  0
C  C97  1  0.58049424  0.50201379  0.40404419  1  0  -0.314825  0  3.717447  0  0  -0.38968  0  3.961147  0  0  -0.392513  0  3.972421  0  -0.052333  0  -0.252669  -0.387467  0  3.953354  0
C  C98  1  0.58049173  0.49799035  0.90404652  1  0  -0.314809  0  3.717463  0  0  -0.389633  0  3.96113  0  0  -0.392472  0  3.972408  0  -0.052038  0  -0.252616  -0.38742  0  3.953335  0
C  C99  1  0.41951207  0.49798693  0.59595476  1  0  -0.314935  0  3.717501  0  0  -0.389772  0  3.961233  0  0  -0.392607  0  3.9725  0  -0.052027  0  -0.252656  -0.387554  0  3.953447  0
Br  Br100  1  0.20270902  0.80218332  0.44975583  1  0  -0.047629  0  1.359831  0  0  -0.034995  0  1.632684  0  0  -0.038403  0  1.624065  0  -0.076193  0  0.05922  -0.032594  0  1.63888  0
Br  Br101  1  0.79727841  0.80217647  0.05024523  1  0  -0.047617  0  1.359845  0  0  -0.034999  0  1.632707  0  0  -0.038406  0  1.62409  0  -0.075984  0  0.059239  -0.032599  0  1.6389  0
Br  Br102  1  0.79727967  0.19781968  0.55024714  1  0  -0.047663  0  1.359879  0  0  -0.035054  0  1.632752  0  0  -0.038459  0  1.624135  0  -0.076192  0  0.059213  -0.032656  0  1.638945  0
Br  Br103  1  0.20272035  0.19781968  0.94975315  1  0  -0.047634  0  1.359902  0  0  -0.035023  0  1.632775  0  0  -0.03843  0  1.624156  0  -0.076214  0  0.059222  -0.032622  0  1.638966  0
N  N104  1  0.29509580  0.01566445  0.19723089  1  0  -0.34895  0  3.20515  0  0  -0.261706  0  3.488216  0  0  -0.281708  0  3.500313  0  -1.222507  0  -0.354475  -0.248468  0  3.479991  0
N  N105  1  0.70489414  0.01565760  0.30276878  1  0  -0.34881  0  3.204847  0  0  -0.261531  0  3.487893  0  0  -0.281536  0  3.499992  0  -1.222576  0  -0.354323  -0.248293  0  3.479663  0
N  N106  1  0.70490296  0.98433854  0.80277032  1  0  -0.348765  0  3.204994  0  0  -0.261503  0  3.488051  0  0  -0.281507  0  3.500152  0  -1.222527  0  -0.354359  -0.248272  0  3.479829  0
N  N107  1  0.29509832  0.98433740  0.69723045  1  0  -0.348873  0  3.205087  0  0  -0.261602  0  3.488167  0  0  -0.281603  0  3.500264  0  -1.22254  0  -0.354379  -0.248364  0  3.47994  0
N  N108  1  0.37979848  0.78021769  0.11635428  1  0  -0.424827  0  3.214968  0  0  -0.344499  0  3.46446  0  0  -0.36328  0  3.474641  0  -1.109776  0  -0.482597  -0.331382  0  3.45716  0
N  N109  1  0.62020028  0.78021769  0.38364552  1  0  -0.424825  0  3.214943  0  0  -0.344521  0  3.464479  0  0  -0.3633  0  3.474668  0  -1.1098  0  -0.482602  -0.331406  0  3.457182  0
N  N110  1  0.62020154  0.21978417  0.88364601  1  0  -0.42466  0  3.214909  0  0  -0.34447  0  3.464582  0  0  -0.363249  0  3.474769  0  -1.10976  0  -0.482569  -0.331352  0  3.457276  0
N  N111  1  0.37980226  0.21978302  0.61635433  1  0  -0.424761  0  3.215021  0  0  -0.34447  0  3.464519  0  0  -0.363258  0  3.474699  0  -1.10979  0  -0.482597  -0.331351  0  3.457221  0
N  N112  1  0.50000064  0.65066968  0.24999968  1  0  -0.584825  0  2.929429  0  0  -0.526814  0  3.261849  0  0  -0.549686  0  3.260123  0  -0.327896  0  -0.333286  -0.511498  0  3.263203  0
N  N113  1  0.50000064  0.34932989  0.75000062  1  0  -0.584797  0  2.929471  0  0  -0.526826  0  3.26185  0  0  -0.549698  0  3.260122  0  -0.32791  0  -0.33326  -0.511507  0  3.263196  0
N  N114  1  0.50000064  0.51283048  0.24999920  1  0  0.409071  0  4.203338  0  0  0.441758  0  4.477584  0  0  0.45698  0  4.506082  0  -0.463668  0  0.09867  0.431511  0  4.458545  0
N  N115  1  0.50000190  0.48716909  0.75000017  1  0  0.408989  0  4.20352  0  0  0.441761  0  4.477639  0  0  0.456981  0  4.506135  0  -0.463715  0  0.098638  0.431515  0  4.458594  0
N  N116  1  0.50000190  0.38027746  0.24999875  1  0  -0.349132  0  2.42016  0  0  -0.351581  0  2.652092  0  0  -0.357178  0  2.662548  0  0.102132  0  -0.163355  -0.3479  0  2.645345  0
N  N117  1  0.50000064  0.61971983  0.74999968  1  0  -0.349051  0  2.420245  0  0  -0.351525  0  2.652101  0  0  -0.35712  0  2.662556  0  0.102172  0  -0.163328  -0.347865  0  2.645383  0
N  N118  1  0.10197208  0.64447469  0.21064765  1  0  -0.474696  0  2.636975  0  0  -0.454823  0  2.927876  0  0  -0.470139  0  2.931023  0  -0.184721  0  -0.260137  -0.444618  0  2.926018  0
N  N119  1  0.89802919  0.64447241  0.28935266  1  0  -0.474686  0  2.63716  0  0  -0.45479  0  2.928042  0  0  -0.4701  0  2.931187  0  -0.184616  0  -0.260124  -0.444584  0  2.92618  0
N  N120  1  0.89803045  0.35552716  0.78935173  1  0  -0.474606  0  2.637099  0  0  -0.454715  0  2.927971  0  0  -0.470027  0  2.931117  0  -0.18456  0  -0.260089  -0.444511  0  2.926112  0
N  N121  1  0.10197082  0.35552488  0.71064668  1  0  -0.474693  0  2.637041  0  0  -0.454825  0  2.927938  0  0  -0.470138  0  2.931084  0  -0.18473  0  -0.260156  -0.444618  0  2.926075  0
N  N122  1  0.99999874  0.64749227  0.25000093  1  0  0.426717  0  4.218901  0  0  0.461195  0  4.492653  0  0  0.478103  0  4.521386  0  -0.317217  0  0.098014  0.449855  0  4.473487  0
N  N123  1  0.00000000  0.35250730  0.74999953  1  0  0.426635  0  4.218939  0  0  0.461122  0  4.492677  0  0  0.47803  0  4.52141  0  -0.317271  0  0.09798  0.449782  0  4.473509  0
Cl  Cl124  1  0.03671826  0.41457942  0.42610008  1  0  -0.107911  0  1.41894  0  0  -0.091712  0  1.6676  0  0  -0.095605  0  1.663571  0  -0.227498  0  -0.0062  -0.088819  0  1.670553  0
Cl  Cl125  1  0.96327672  0.41457599  0.07390155  1  0  -0.107923  0  1.418872  0  0  -0.091715  0  1.667559  0  0  -0.095607  0  1.663532  0  -0.227401  0  -0.006202  -0.088821  0  1.670513  0
Cl  Cl126  1  0.96327924  0.58542244  0.57390017  1  0  -0.107925  0  1.418907  0  0  -0.091707  0  1.667583  0  0  -0.095602  0  1.663556  0  -0.227457  0  -0.006194  -0.088815  0  1.670537  0
Cl  Cl127  1  0.03671826  0.58542358  0.92609961  1  0  -0.107957  0  1.418864  0  0  -0.091746  0  1.667532  0  0  -0.095638  0  1.663507  0  -0.227456  0  -0.006225  -0.088852  0  1.670485  0
O  O128  1  0.27716287  0.84584627  0.31170766  1  0  -0.600879  0  2.12128  0  0  -0.539646  0  2.387521  0  0  -0.566309  0  2.381857  0  -1.167783  0  -0.333349  -0.520798  0  2.390486  0
O  O129  1  0.72283841  0.84584170  0.18829169  1  0  -0.600898  0  2.121361  0  0  -0.539615  0  2.387596  0  0  -0.566277  0  2.381934  0  -1.167288  0  -0.333312  -0.520757  0  2.390532  0
O  O130  1  0.72283841  0.15415330  0.68829359  1  0  -0.600867  0  2.121269  0  0  -0.539633  0  2.38748  0  0  -0.566294  0  2.381816  0  -1.16773  0  -0.333343  -0.520777  0  2.390422  0
O  O131  1  0.27716664  0.15415330  0.81170724  1  0  -0.6009  0  2.121275  0  0  -0.539675  0  2.387521  0  0  -0.566338  0  2.381854  0  -1.167248  0  -0.333355  -0.520827  0  2.390479  0
