# generated using pymatgen
data_ZnPH5C6NO3
_symmetry_space_group_name_H-M   'P 1'
_cell_length_a   7.97449155
_cell_length_b   8.49300336
_cell_length_c   12.29195983
_cell_angle_alpha   75.19017768
_cell_angle_beta   78.74672542
_cell_angle_gamma   67.99131155
_symmetry_Int_Tables_number   1
_chemical_formula_structural   ZnPH5C6NO3
_chemical_formula_sum   'Zn4 P4 H20 C24 N4 O12'
_cell_volume   741.59610412
_cell_formula_units_Z   4
loop_
 _symmetry_equiv_pos_site_id
 _symmetry_equiv_pos_as_xyz
  1  'x, y, z'
loop_
 _atom_site_type_symbol
 _atom_site_label
 _atom_site_symmetry_multiplicity
 _atom_site_fract_x
 _atom_site_fract_y
 _atom_site_fract_z
 _atom_site_occupancy
 _atom_site_hle17_bader_spin_density
 _atom_site_hle17_ddec_charge
 _atom_site_hle17_ddec_spin_density
 _atom_site_hle17_ddec_sum_bond_order
 _atom_site_hle17_magmom
 _atom_site_hse06_10hf_bader_spin_density
 _atom_site_hse06_10hf_ddec_charge
 _atom_site_hse06_10hf_ddec_spin_density
 _atom_site_hse06_10hf_ddec_sum_bond_order
 _atom_site_hse06_10hf_magmom
 _atom_site_hse06_bader_spin_density
 _atom_site_hse06_ddec_charge
 _atom_site_hse06_ddec_spin_density
 _atom_site_hse06_ddec_sum_bond_order
 _atom_site_hse06_magmom
 _atom_site_pbe_bader_spin_density
 _atom_site_pbe_cm5_charge
 _atom_site_pbe_ddec_charge
 _atom_site_pbe_ddec_spin_density
 _atom_site_pbe_ddec_sum_bond_order
 _atom_site_pbe_magmom
Zn  Zn0  1  0.37260025  0.76982865  0.28887707  1  0  1.043909  0  1.866708  0  0  0.85784  0  2.339826  0  0  0.902148  0  2.284695  0  0  0.718846  0.82698  0  2.377676  0
Zn  Zn1  1  0.62739606  0.23017071  0.71112324  1  0  1.043942  0  1.866687  0  0  0.857856  0  2.339805  0  0  0.902164  0  2.284675  0  0  0.718854  0.826995  0  2.377659  0
Zn  Zn2  1  0.53826468  0.22950194  0.03670289  1  0  1.250921  0  1.799608  0  0  1.085503  0  2.290786  0  0  1.128863  0  2.225607  0  0  0.707417  1.054781  0  2.335759  0
Zn  Zn3  1  0.46173593  0.77049614  0.96329709  1  0  1.25097  0  1.799523  0  0  1.085545  0  2.290702  0  0  1.128902  0  2.225522  0  0  0.707451  1.054824  0  2.335673  0
P  P4  1  0.71597927  0.81132588  0.11935629  1  0  1.430675  0  5.00251  0  0  1.250588  0  5.507217  0  0  1.301616  0  5.470002  0  0  0.273774  1.214972  0  5.532107  0
P  P5  1  0.28402040  0.18867480  0.88064336  1  0  1.430674  0  5.002556  0  0  1.250589  0  5.50725  0  0  1.301614  0  5.470038  0  0  0.273756  1.214971  0  5.53214  0
P  P6  1  0.31101854  0.53120966  0.17771514  1  0  1.424952  0  4.955223  0  0  1.243639  0  5.452836  0  0  1.294542  0  5.41591  0  0  0.273797  1.208091  0  5.477659  0
P  P7  1  0.68898288  0.46878973  0.82228533  1  0  1.424913  0  4.95533  0  0  1.243571  0  5.452967  0  0  1.294477  0  5.416039  0  0  0.273745  1.208022  0  5.477788  0
H  H8  1  0.90405289  0.72333860  0.12578027  1  0  -0.153243  0  0.900462  0  0  -0.119198  0  0.984848  0  0  -0.124887  0  0.981918  0  0  0.083742  -0.11538  0  0.987017  0
H  H9  1  0.09594469  0.27666076  0.87422150  1  0  -0.153239  0  0.900436  0  0  -0.119193  0  0.984822  0  0  -0.12488  0  0.981889  0  0  0.083733  -0.115377  0  0.986992  0
H  H10  1  0.15081531  0.49309398  0.18592921  1  0  -0.156157  0  0.914931  0  0  -0.123166  0  0.999507  0  0  -0.128184  0  0.99698  0  0  0.080219  -0.119811  0  1.001417  0
H  H11  1  0.84918133  0.50690797  0.81407142  1  0  -0.156149  0  0.91492  0  0  -0.123154  0  0.999497  0  0  -0.128174  0  0.996968  0  0  0.080236  -0.1198  0  1.001407  0
H  H12  1  0.53444510  0.65809107  0.53027842  1  0  0.086561  0  0.924284  0  0  0.098418  0  0.982261  0  0  0.101037  0  0.979545  0  0  0.119841  0.096429  0  0.984339  0
H  H13  1  0.46554913  0.34190697  0.46972319  1  0  0.086559  0  0.924303  0  0  0.098405  0  0.982289  0  0  0.101023  0  0.979575  0  0  0.119844  0.096419  0  0.984362  0
H  H14  1  0.47062687  0.80590126  0.69204093  1  0  0.129499  0  0.971617  0  0  0.138115  0  1.028622  0  0  0.141815  0  1.027355  0  0  0.112151  0.135306  0  1.029845  0
H  H15  1  0.52937327  0.19409812  0.30795889  1  0  0.129486  0  0.971623  0  0  0.138109  0  1.028615  0  0  0.141809  0  1.02735  0  0  0.112155  0.135302  0  1.029839  0
H  H16  1  0.23889113  0.10161724  0.68260434  1  0  0.112059  0  0.950306  0  0  0.123284  0  1.010264  0  0  0.126395  0  1.007656  0  0  0.112181  0.120956  0  1.012203  0
H  H17  1  0.76111397  0.89838607  0.31739336  1  0  0.112098  0  0.950311  0  0  0.123325  0  1.010258  0  0  0.126435  0  1.007651  0  0  0.112208  0.121  0  1.012198  0
H  H18  1  0.77671214  0.44716782  0.21613220  1  0  0.117519  0  0.95917  0  0  0.128128  0  1.017726  0  0  0.13131  0  1.015301  0  0  0.113088  0.125732  0  1.0196  0
H  H19  1  0.22328848  0.55283026  0.78386779  1  0  0.117474  0  0.959187  0  0  0.128057  0  1.017783  0  0  0.13124  0  1.01536  0  0  0.113067  0.12566  0  1.019658  0
H  H20  1  0.86684884  0.27013420  0.06524292  1  0  0.118189  0  0.959122  0  0  0.128213  0  1.016828  0  0  0.131252  0  1.016203  0  0  0.112468  0.12598  0  1.017517  0
H  H21  1  0.13315130  0.72986518  0.93475690  1  0  0.118214  0  0.959168  0  0  0.128236  0  1.016875  0  0  0.131274  0  1.016249  0  0  0.112475  0.126001  0  1.017564  0
H  H22  1  0.11477712  0.97942904  0.09456677  1  0  0.094365  0  0.950405  0  0  0.103769  0  1.01039  0  0  0.106068  0  1.007953  0  0  0.123668  0.101989  0  1.012269  0
H  H23  1  0.88522222  0.02056903  0.90543338  1  0  0.094409  0  0.950352  0  0  0.103788  0  1.010361  0  0  0.106086  0  1.007923  0  0  0.123673  0.102011  0  1.012232  0
H  H24  1  0.99052795  0.34847521  0.57632977  1  0  0.10856  0  0.958614  0  0  0.118539  0  1.021088  0  0  0.121264  0  1.020412  0  0  0.106294  0.116545  0  1.021683  0
H  H25  1  0.00947507  0.65152679  0.42366842  1  0  0.108546  0  0.958542  0  0  0.118519  0  1.02103  0  0  0.121245  0  1.020351  0  0  0.106277  0.116523  0  1.021632  0
H  H26  1  0.82891891  0.47531286  0.40420440  1  0  0.104905  0  0.939685  0  0  0.118892  0  0.995488  0  0  0.121378  0  0.994797  0  0  0.109182  0.117057  0  0.996114  0
H  H27  1  0.17108156  0.52468912  0.59579574  1  0  0.104894  0  0.939722  0  0  0.118871  0  0.995536  0  0  0.121358  0  0.994845  0  0  0.109173  0.117036  0  0.996161  0
C  C28  1  0.43248742  0.78749596  0.52716612  1  0  0.154038  0  3.683649  0  0  0.11935  0  3.942185  0  0  0.128417  0  3.957861  0  0  0.061146  0.113492  0  3.931397  0
C  C29  1  0.56750969  0.21250471  0.47283304  1  0  0.153997  0  3.68355  0  0  0.119317  0  3.942089  0  0  0.128385  0  3.957767  0  0  0.061121  0.113459  0  3.931305  0
C  C30  1  0.39819965  0.87202290  0.61763541  1  0  -0.105409  0  3.69123  0  0  -0.121402  0  3.948912  0  0  -0.128588  0  3.970331  0  0  -0.079666  -0.116741  0  3.934676  0
C  C31  1  0.60180130  0.12797778  0.38236408  1  0  -0.105304  0  3.691161  0  0  -0.121296  0  3.948835  0  0  -0.128482  0  3.970255  0  0  -0.079636  -0.116638  0  3.934607  0
C  C32  1  0.26698992  0.03498502  0.61274535  1  0  -0.030872  0  3.648672  0  0  -0.058997  0  3.900722  0  0  -0.05621  0  3.918292  0  0  -0.057486  -0.060608  0  3.888811  0
C  C33  1  0.73301263  0.96501827  0.38725348  1  0  -0.030912  0  3.648756  0  0  -0.059036  0  3.900797  0  0  -0.056248  0  3.918366  0  0  -0.057466  -0.06065  0  3.888892  0
C  C34  1  0.16943833  0.11374881  0.51734068  1  0  0.021913  0  3.797705  0  0  0.038176  0  4.031012  0  0  0.035505  0  4.055582  0  0  -0.001551  0.039806  0  4.01446  0
C  C35  1  0.83056262  0.88625188  0.48265799  1  0  0.02191  0  3.797662  0  0  0.038168  0  4.030981  0  0  0.035495  0  4.055551  0  0  -0.001578  0.039801  0  4.014426  0
C  C36  1  0.21411903  0.01960346  0.42935721  1  0  0.122887  0  3.771208  0  0  0.116834  0  4.004913  0  0  0.120724  0  4.028017  0  0  0.113048  0.114231  0  3.98934  0
C  C37  1  0.78588031  0.98039461  0.57064538  1  0  0.122943  0  3.771213  0  0  0.116841  0  4.004875  0  0  0.120732  0  4.027979  0  0  0.113031  0.114239  0  3.989299  0
C  C38  1  0.11957757  0.09376877  0.33003414  1  0  0.124888  0  3.769378  0  0  0.117732  0  4.002175  0  0  0.121926  0  4.025113  0  0  0.113132  0.114937  0  3.986712  0
C  C39  1  0.88042639  0.90623063  0.66996519  1  0  0.124722  0  3.769591  0  0  0.117741  0  4.00216  0  0  0.121934  0  4.025098  0  0  0.113131  0.114946  0  3.986695  0
C  C40  1  0.98046630  0.25829692  0.32168560  1  0  0.022241  0  3.795684  0  0  0.037517  0  4.030758  0  0  0.034406  0  4.056  0  0  -0.00023  0.039448  0  4.013741  0
C  C41  1  0.01953450  0.74170767  0.67830997  1  0  0.022274  0  3.795673  0  0  0.037473  0  4.030754  0  0  0.034363  0  4.055997  0  0  -0.000237  0.039406  0  4.013733  0
C  C42  1  0.88736145  0.32250204  0.22392838  1  0  -0.029745  0  3.635416  0  0  -0.055768  0  3.883255  0  0  -0.052896  0  3.90077  0  0  -0.052922  -0.057429  0  3.871426  0
C  C43  1  0.11263902  0.67749994  0.77607176  1  0  -0.029679  0  3.635347  0  0  -0.055682  0  3.883221  0  0  -0.052811  0  3.900736  0  0  -0.052913  -0.057344  0  3.871387  0
C  C44  1  0.93565227  0.22480786  0.14147716  1  0  -0.078945  0  3.660153  0  0  -0.092697  0  3.91238  0  0  -0.1002  0  3.933003  0  0  -0.067566  -0.087965  0  3.898716  0
C  C45  1  0.06435043  0.77519153  0.85852315  1  0  -0.078956  0  3.660268  0  0  -0.092712  0  3.91248  0  0  -0.100214  0  3.9331  0  0  -0.06754  -0.087982  0  3.898816  0
C  C46  1  0.07514351  0.06238543  0.15635758  1  0  0.184708  0  3.633064  0  0  0.14907  0  3.88602  0  0  0.159515  0  3.900711  0  0  0.072316  0.142202  0  3.876147  0
C  C47  1  0.92485568  0.93761655  0.84364110  1  0  0.184617  0  3.63316  0  0  0.148996  0  3.886102  0  0  0.159444  0  3.90079  0  0  0.072264  0.142127  0  3.876228  0
C  C48  1  0.02820824  0.27995616  0.50654180  1  0  -0.100557  0  3.723342  0  0  -0.12534  0  3.981344  0  0  -0.128114  0  4.003207  0  0  -0.084781  -0.123392  0  3.966614  0
C  C49  1  0.97179365  0.72004192  0.49345965  1  0  -0.100533  0  3.723291  0  0  -0.125312  0  3.981286  0  0  -0.128085  0  4.003146  0  0  -0.08475  -0.123366  0  3.96656  0
C  C50  1  0.93756438  0.34931041  0.41234499  1  0  -0.086331  0  3.721624  0  0  -0.110272  0  3.9786  0  0  -0.112896  0  4.000725  0  0  -0.079174  -0.108449  0  3.96367  0
C  C51  1  0.06243736  0.65069158  0.58765336  1  0  -0.086337  0  3.72174  0  0  -0.110266  0  3.978738  0  0  -0.112891  0  4.000863  0  0  -0.07919  -0.108441  0  3.963804  0
N  N52  1  0.34274279  0.85869212  0.43582957  1  0  -0.375243  0  3.322331  0  0  -0.297408  0  3.599371  0  0  -0.316612  0  3.614529  0  0  -0.328541  -0.284472  0  3.589024  0
N  N53  1  0.65725607  0.14130725  0.56417041  1  0  -0.375273  0  3.322269  0  0  -0.297431  0  3.599306  0  0  -0.316636  0  3.614464  0  0  -0.328553  -0.284494  0  3.588959  0
N  N54  1  0.16484053  0.99915003  0.24772423  1  0  -0.37273  0  3.300025  0  0  -0.292353  0  3.577644  0  0  -0.312102  0  3.590809  0  0  -0.32729  -0.279102  0  3.568708  0
N  N55  1  0.83516041  0.00085065  0.75227689  1  0  -0.37265  0  3.300098  0  0  -0.292306  0  3.577625  0  0  -0.312056  0  3.590791  0  0  -0.327253  -0.279055  0  3.568688  0
O  O56  1  0.68642799  0.00198800  0.11373508  1  0  -0.86455  0  2.050233  0  0  -0.76837  0  2.357706  0  0  -0.797241  0  2.332459  0  0  -0.388416  -0.747824  0  2.374412  0
O  O57  1  0.31357295  0.99801268  0.88626604  1  0  -0.864547  0  2.050223  0  0  -0.768341  0  2.35766  0  0  -0.797221  0  2.332437  0  0  -0.388391  -0.747796  0  2.374366  0
O  O58  1  0.62592593  0.72911071  0.23126414  1  0  -0.853973  0  2.063725  0  0  -0.755439  0  2.369653  0  0  -0.783197  0  2.342153  0  0  -0.39471  -0.735601  0  2.387736  0
O  O59  1  0.37407071  0.27089126  0.76873404  1  0  -0.853974  0  2.063741  0  0  -0.75544  0  2.369667  0  0  -0.783191  0  2.342153  0  0  -0.394705  -0.735604  0  2.38775  0
O  O60  1  0.67577453  0.77389851  0.01347491  1  0  -0.881777  0  2.078557  0  0  -0.784134  0  2.382968  0  0  -0.813057  0  2.356992  0  0  -0.390513  -0.763493  0  2.400125  0
O  O61  1  0.32422324  0.22610736  0.98652245  1  0  -0.881775  0  2.078619  0  0  -0.78415  0  2.383064  0  0  -0.813076  0  2.357092  0  0  -0.39051  -0.763502  0  2.400205  0
O  O62  1  0.28942892  0.69769080  0.08614717  1  0  -0.883221  0  2.077933  0  0  -0.787183  0  2.38616  0  0  -0.81509  0  2.357845  0  0  -0.382461  -0.767333  0  2.405086  0
O  O63  1  0.71057344  0.30230599  0.91385526  1  0  -0.883233  0  2.077959  0  0  -0.787189  0  2.386188  0  0  -0.8151  0  2.357876  0  0  -0.382448  -0.76734  0  2.405113  0
O  O64  1  0.47240317  0.37304372  0.15021262  1  0  -0.851575  0  2.072975  0  0  -0.750617  0  2.372733  0  0  -0.779034  0  2.346387  0  0  -0.377747  -0.730389  0  2.390191  0
O  O65  1  0.52759456  0.62695175  0.84978982  1  0  -0.851576  0  2.073043  0  0  -0.750596  0  2.372773  0  0  -0.779019  0  2.346451  0  0  -0.377733  -0.730375  0  2.390234  0
O  O66  1  0.31506182  0.56359644  0.29559770  1  0  -0.828496  0  1.981132  0  0  -0.731308  0  2.27527  0  0  -0.759909  0  2.251424  0  0  -0.393278  -0.710985  0  2.291003  0
O  O67  1  0.68493927  0.43640034  0.70440490  1  0  -0.828468  0  1.981172  0  0  -0.73126  0  2.275304  0  0  -0.75986  0  2.25146  0  0  -0.393268  -0.710935  0  2.291035  0
