# generated using pymatgen
data_Na3YH20C12O19
_symmetry_space_group_name_H-M   'P 1'
_cell_length_a   9.19832013
_cell_length_b   9.19839634
_cell_length_c   18.02112968
_cell_angle_alpha   77.93269722
_cell_angle_beta   77.93295468
_cell_angle_gamma   63.22721029
_symmetry_Int_Tables_number   1
_chemical_formula_structural   Na3YH20C12O19
_chemical_formula_sum   'Na6 Y2 H40 C24 O38'
_cell_volume   1319.65250354
_cell_formula_units_Z   2
loop_
 _symmetry_equiv_pos_site_id
 _symmetry_equiv_pos_as_xyz
  1  'x, y, z'
loop_
 _atom_site_type_symbol
 _atom_site_label
 _atom_site_symmetry_multiplicity
 _atom_site_fract_x
 _atom_site_fract_y
 _atom_site_fract_z
 _atom_site_occupancy
 _atom_site_pbe_bader_charge
 _atom_site_pbe_bader_spin_density
 _atom_site_pbe_cm5_charge
 _atom_site_pbe_ddec_charge
 _atom_site_pbe_ddec_spin_density
 _atom_site_pbe_ddec_sum_bond_order
 _atom_site_pbe_magmom
Na  Na0  1  0.77206298  0.11012103  0.52293782  1  0.892101  0  0.651648  0.866955  0  0.514892  0
Na  Na1  1  0.88988794  0.22793209  0.97705963  1  0.892083  0  0.651638  0.866944  0  0.514893  0
Na  Na2  1  0.22793467  0.88988480  0.47706117  1  0.892102  0  0.651631  0.866951  0  0.514865  0
Na  Na3  1  0.11011220  0.77206936  0.02293846  1  0.8921  0  0.651635  0.866941  0  0.514897  0
Na  Na4  1  0.50000216  0.99999866  0.50000128  1  0.877607  0  0.71128  0.84968  0  0.589846  0
Na  Na5  1  0.00000165  0.49999803  0.99999804  1  0.877617  0  0.711247  0.849643  0  0.589899  0
Y  Y6  1  0.66958837  0.33041671  0.24999956  1  2.280614  0  1.277761  1.658874  0  2.607207  0
Y  Y7  1  0.33040690  0.66958455  0.75000018  1  2.280551  0  1.277761  1.658889  0  2.607235  0
H  H8  1  0.14611146  0.04666251  0.27579905  1  0.036155  0  0.106038  0.085974  0  0.993295  0
H  H9  1  0.95335310  0.85388850  0.22420466  1  0.036231  0  0.105994  0.085845  0  0.993296  0
H  H10  1  0.85387993  0.95335369  0.72419950  1  0.036279  0  0.106013  0.085952  0  0.993319  0
H  H11  1  0.04665439  0.14611214  0.77579383  1  0.036177  0  0.106003  0.085887  0  0.993269  0
H  H12  1  0.06917424  0.90593192  0.33109915  1  0.074062  0  0.109428  0.09451  0  1.024143  0
H  H13  1  0.09407207  0.93083844  0.16890351  1  0.074016  0  0.109431  0.094435  0  1.02429  0
H  H14  1  0.93083076  0.09407199  0.66890037  1  0.073981  0  0.109424  0.094471  0  1.024175  0
H  H15  1  0.90592673  0.06917247  0.83109481  1  0.074  0  0.109427  0.0944  0  1.024303  0
H  H16  1  0.77577511  0.75144511  0.23237464  1  0.069237  0  0.109652  0.096628  0  0.976933  0
H  H17  1  0.24855401  0.22422872  0.26763142  1  0.06934  0  0.109637  0.096615  0  0.976912  0
H  H18  1  0.22423257  0.24854211  0.76762527  1  0.069219  0  0.109689  0.096702  0  0.976973  0
H  H19  1  0.75144621  0.77576940  0.73237257  1  0.069234  0  0.109663  0.096634  0  0.976968  0
H  H20  1  0.64916668  0.76579983  0.16586550  1  0.11354  0  0.120715  0.107971  0  0.957207  0
H  H21  1  0.23420828  0.35083265  0.33413929  1  0.113876  0  0.120703  0.10793  0  0.957253  0
H  H22  1  0.35083226  0.23420102  0.83413500  1  0.113594  0  0.120704  0.107992  0  0.95724  0
H  H23  1  0.76579676  0.64916902  0.66586268  1  0.11354  0  0.120701  0.107949  0  0.957258  0
H  H24  1  0.41483469  0.79162138  0.25113866  1  0.060595  0  0.107658  0.087885  0  0.98875  0
H  H25  1  0.20837317  0.58516560  0.24886376  1  0.060477  0  0.107724  0.087962  0  0.988794  0
H  H26  1  0.58516551  0.20837786  0.74886465  1  0.060507  0  0.107695  0.087923  0  0.988677  0
H  H27  1  0.79162579  0.41483413  0.75113520  1  0.060482  0  0.107726  0.087993  0  0.988741  0
H  H28  1  0.50080737  0.80404552  0.32844371  1  0.128053  0  0.113563  0.111191  0  1.019294  0
H  H29  1  0.19594323  0.49919688  0.17156014  1  0.128038  0  0.11352  0.111121  0  1.019429  0
H  H30  1  0.49919784  0.19594497  0.67155890  1  0.128032  0  0.113529  0.111142  0  1.019419  0
H  H31  1  0.80405453  0.50080112  0.82843969  1  0.12807  0  0.113527  0.111148  0  1.019392  0
H  H32  1  0.86841177  0.83645126  0.43166782  1  0.602731  0  0.334225  0.418053  0  0.86564  0
H  H33  1  0.16354993  0.13159055  0.06833486  1  0.602725  0  0.334256  0.418086  0  0.865602  0
H  H34  1  0.13159082  0.16355143  0.56833264  1  0.602726  0  0.334214  0.418025  0  0.865681  0
H  H35  1  0.83645147  0.86840928  0.93166437  1  0.602735  0  0.334259  0.418074  0  0.865622  0
H  H36  1  0.72728858  0.98472386  0.38665643  1  0.65901  0  0.294517  0.383244  0  0.958934  0
H  H37  1  0.01527603  0.27271438  0.11334420  1  0.659  0  0.294525  0.383247  0  0.958929  0
H  H38  1  0.27271036  0.01527700  0.61334518  1  0.659  0  0.294524  0.383264  0  0.958907  0
H  H39  1  0.98472413  0.72728596  0.88665456  1  0.659017  0  0.294524  0.383258  0  0.958911  0
H  H40  1  0.47665267  0.34554149  0.43461919  1  0.650425  0  0.297054  0.393105  0  0.944148  0
H  H41  1  0.65445484  0.52334863  0.06538262  1  0.650382  0  0.297087  0.393197  0  0.944042  0
H  H42  1  0.52334874  0.65445836  0.56538282  1  0.650405  0  0.297103  0.393231  0  0.943989  0
H  H43  1  0.34554654  0.47665232  0.93461705  1  0.650376  0  0.297091  0.393207  0  0.944017  0
H  H44  1  0.40595358  0.34473594  0.52088702  1  0.586722  0  0.327847  0.406652  0  0.881117  0
H  H45  1  0.65526295  0.59404636  0.97911336  1  0.586712  0  0.327806  0.406589  0  0.881171  0
H  H46  1  0.59404779  0.65526614  0.47911364  1  0.586749  0  0.327804  0.406559  0  0.881216  0
H  H47  1  0.34473601  0.40595337  0.02088614  1  0.586725  0  0.327828  0.406622  0  0.88113  0
C  C48  1  0.03282632  0.03416601  0.30419146  1  0.429933  0  -0.065535  -0.130922  0  3.891579  0
C  C49  1  0.96584262  0.96718078  0.19581151  1  0.429718  0  -0.065382  -0.130497  0  3.891529  0
C  C50  1  0.96717012  0.96583920  0.69580717  1  0.4298  0  -0.065503  -0.130813  0  3.891608  0
C  C51  1  0.03415875  0.03282128  0.80418693  1  0.429761  0  -0.065435  -0.130558  0  3.891462  0
C  C52  1  0.94659217  0.14973758  0.36567434  1  1.629333  0  0.202032  0.612984  0  4.245371  0
C  C53  1  0.85028131  0.05341566  0.13432482  1  1.629595  0  0.201943  0.612823  0  4.24527  0
C  C54  1  0.05340547  0.85026937  0.63432509  1  1.629874  0  0.20201  0.612875  0  4.245445  0
C  C55  1  0.14972255  0.94658204  0.86567327  1  1.629628  0  0.202046  0.612871  0  4.245152  0
C  C56  1  0.73150428  0.68072085  0.20799366  1  0.383182  0  -0.057317  -0.1134  0  3.881523  0
C  C57  1  0.31928247  0.26849876  0.29200986  1  0.382773  0  -0.057347  -0.113484  0  3.881641  0
C  C58  1  0.26849842  0.31927288  0.79200499  1  0.383015  0  -0.057365  -0.113598  0  3.881886  0
C  C59  1  0.68072141  0.73149895  0.70799322  1  0.383164  0  -0.057366  -0.113498  0  3.881687  0
C  C60  1  0.87485670  0.54952855  0.16523168  1  1.590809  0  0.217369  0.618555  0  4.181583  0
C  C61  1  0.45047934  0.12514362  0.33476985  1  1.590883  0  0.217515  0.618933  0  4.181479  0
C  C62  1  0.12514484  0.45046122  0.83476918  1  1.591264  0  0.217462  0.618682  0  4.181617  0
C  C63  1  0.54952939  0.87485652  0.66523078  1  1.590863  0  0.217466  0.618804  0  4.181773  0
C  C64  1  0.48989176  0.71831849  0.29786655  1  0.362216  0  -0.0682  -0.143593  0  3.889846  0
C  C65  1  0.28167365  0.51010937  0.20213682  1  0.362282  0  -0.068246  -0.143678  0  3.890024  0
C  C66  1  0.51011218  0.28167474  0.70213423  1  0.362202  0  -0.068221  -0.143618  0  3.889932  0
C  C67  1  0.71832534  0.48988812  0.79786293  1  0.362054  0  -0.06825  -0.143737  0  3.889998  0
C  C68  1  0.40229289  0.62256371  0.35236603  1  1.607662  0  0.212325  0.616064  0  4.198141  0
C  C69  1  0.37742402  0.59771957  0.14763994  1  1.605462  0  0.212275  0.616093  0  4.198327  0
C  C70  1  0.59770366  0.37743368  0.64763455  1  1.607302  0  0.212288  0.616055  0  4.198396  0
C  C71  1  0.62257492  0.40228128  0.85236001  1  1.605633  0  0.2123  0.616124  0  4.198326  0
O  O72  1  0.92197563  0.07803184  0.25000136  1  -1.121066  0  -0.258875  -0.22207  0  2.739931  0
O  O73  1  0.07801966  0.92196829  0.74999850  1  -1.120989  0  -0.258875  -0.222088  0  2.739891  0
O  O74  1  0.81073767  0.27212499  0.35217351  1  -1.214595  0  -0.387152  -0.620675  0  2.27095  0
O  O75  1  0.72787754  0.18927031  0.14783032  1  -1.214813  0  -0.387239  -0.62076  0  2.270817  0
O  O76  1  0.18925759  0.72787738  0.64782777  1  -1.215051  0  -0.38718  -0.620652  0  2.271002  0
O  O77  1  0.27211778  0.81072760  0.85217089  1  -1.214862  0  -0.38723  -0.620714  0  2.270923  0
O  O78  1  0.01180108  0.11551635  0.42529445  1  -1.22069  0  -0.422511  -0.656566  0  2.175313  0
O  O79  1  0.88448817  0.98819757  0.07470916  1  -1.220649  0  -0.42243  -0.65646  0  2.175172  0
O  O80  1  0.98819039  0.88449426  0.57470414  1  -1.220762  0  -0.422465  -0.656485  0  2.175231  0
O  O81  1  0.11550953  0.01180604  0.92529395  1  -1.220721  0  -0.42253  -0.656538  0  2.175004  0
O  O82  1  0.64753945  0.60524884  0.26675915  1  -1.088564  0  -0.241918  -0.207614  0  2.67139  0
O  O83  1  0.39475145  0.35246015  0.23324227  1  -1.088536  0  -0.241898  -0.20755  0  2.671355  0
O  O84  1  0.35245711  0.39474743  0.73323988  1  -1.088407  0  -0.241896  -0.207539  0  2.671394  0
O  O85  1  0.60524877  0.64753684  0.76675850  1  -1.088521  0  -0.241882  -0.207528  0  2.671351  0
O  O86  1  0.88211684  0.40334276  0.17952275  1  -1.20259  0  -0.356594  -0.601799  0  2.282704  0
O  O87  1  0.59666390  0.11788317  0.32047697  1  -1.202788  0  -0.356604  -0.601837  0  2.282741  0
O  O88  1  0.11787970  0.59665462  0.82047450  1  -1.202906  0  -0.356623  -0.601869  0  2.282554  0
O  O89  1  0.40333995  0.88211678  0.67952476  1  -1.20265  0  -0.356632  -0.601908  0  2.282658  0
O  O90  1  0.97359512  0.59217520  0.11759079  1  -1.212963  0  -0.389892  -0.636144  0  2.201278  0
O  O91  1  0.40783586  0.02640553  0.38240767  1  -1.212896  0  -0.389998  -0.636394  0  2.201298  0
O  O92  1  0.02640264  0.40782166  0.88240416  1  -1.21303  0  -0.389944  -0.636175  0  2.201445  0
O  O93  1  0.59216435  0.97359259  0.61759631  1  -1.212944  0  -0.389926  -0.636234  0  2.2017  0
O  O94  1  0.46181903  0.46841413  0.34672022  1  -1.207689  0  -0.360011  -0.611412  0  2.323117  0
O  O95  1  0.53157845  0.53818382  0.15327939  1  -1.207624  0  -0.359975  -0.611449  0  2.323238  0
O  O96  1  0.53817751  0.53158326  0.65327870  1  -1.207619  0  -0.360021  -0.61145  0  2.3233  0
O  O97  1  0.46841925  0.46181752  0.84671841  1  -1.207647  0  -0.36003  -0.611488  0  2.323234  0
O  O98  1  0.27971386  0.69807108  0.39748921  1  -1.215732  0  -0.392396  -0.626552  0  2.143461  0
O  O99  1  0.30191479  0.72029693  0.10251904  1  -1.213568  0  -0.392369  -0.626545  0  2.143622  0
O  O100  1  0.72028760  0.30192541  0.60251537  1  -1.21541  0  -0.392348  -0.626531  0  2.143552  0
O  O101  1  0.69808418  0.27970168  0.89748003  1  -1.213525  0  -0.392348  -0.626531  0  2.143622  0
O  O102  1  0.76823656  0.93633813  0.43737775  1  -1.277929  0  -0.672922  -0.848287  0  1.979253  0
O  O103  1  0.06366485  0.23176479  0.06262341  1  -1.277915  0  -0.672945  -0.848296  0  1.979222  0
O  O104  1  0.23176483  0.06366283  0.56262303  1  -1.277908  0  -0.672909  -0.848258  0  1.979289  0
O  O105  1  0.93633777  0.76823453  0.93737519  1  -1.277921  0  -0.672943  -0.848286  0  1.979239  0
O  O106  1  0.48805603  0.27372556  0.48493259  1  -1.253499  0  -0.654693  -0.846069  0  1.943862  0
O  O107  1  0.72627427  0.51194369  0.01507081  1  -1.253437  0  -0.654679  -0.846071  0  1.943809  0
O  O108  1  0.51194778  0.72627774  0.51506990  1  -1.253504  0  -0.654712  -0.846094  0  1.943826  0
O  O109  1  0.27372587  0.48805889  0.98492882  1  -1.253441  0  -0.654697  -0.846096  0  1.943782  0
