# generated using pymatgen
data_ZnH14C10S4(NO)2
_symmetry_space_group_name_H-M   'P 1'
_cell_length_a   7.17215153
_cell_length_b   7.68540025
_cell_length_c   16.20594738
_cell_angle_alpha   89.99987405
_cell_angle_beta   90.00003153
_cell_angle_gamma   117.86044419
_symmetry_Int_Tables_number   1
_chemical_formula_structural   ZnH14C10S4(NO)2
_chemical_formula_sum   'Zn2 H28 C20 S8 N4 O4'
_cell_volume   789.74356770
_cell_formula_units_Z   2
loop_
 _symmetry_equiv_pos_site_id
 _symmetry_equiv_pos_as_xyz
  1  'x, y, z'
loop_
 _atom_site_type_symbol
 _atom_site_label
 _atom_site_symmetry_multiplicity
 _atom_site_fract_x
 _atom_site_fract_y
 _atom_site_fract_z
 _atom_site_occupancy
 _atom_site_hle17_bader_spin_density
 _atom_site_hle17_ddec_charge
 _atom_site_hle17_ddec_spin_density
 _atom_site_hle17_ddec_sum_bond_order
 _atom_site_hle17_magmom
 _atom_site_hse06_10hf_bader_spin_density
 _atom_site_hse06_10hf_ddec_charge
 _atom_site_hse06_10hf_ddec_spin_density
 _atom_site_hse06_10hf_ddec_sum_bond_order
 _atom_site_hse06_10hf_magmom
 _atom_site_hse06_bader_spin_density
 _atom_site_hse06_ddec_charge
 _atom_site_hse06_ddec_spin_density
 _atom_site_hse06_ddec_sum_bond_order
 _atom_site_hse06_magmom
 _atom_site_pbe_bader_spin_density
 _atom_site_pbe_cm5_charge
 _atom_site_pbe_ddec_charge
 _atom_site_pbe_ddec_spin_density
 _atom_site_pbe_ddec_sum_bond_order
 _atom_site_pbe_magmom
Zn  Zn0  1  0.49999872  0.00000112  0.50000107  1  0  0.606638  0  2.307845  0  0  0.4646  0  2.720454  0  0  0.499816  0  2.697019  0  0  0.495285  0.440556  0  2.735947  0
Zn  Zn1  1  0.00000080  0.00000034  0.99999893  1  0  0.606687  0  2.307806  0  0  0.464638  0  2.72043  0  0  0.499858  0  2.696992  0  0  0.495296  0.440594  0  2.735927  0
H  H2  1  0.46966488  0.18717201  0.20073367  1  0  0.049152  0  0.951632  0  0  0.060511  0  1.023164  0  0  0.060142  0  1.023718  0  0  0.09039  0.060658  0  1.02289  0
H  H3  1  0.03033300  0.81282338  0.70073368  1  0  0.049093  0  0.951648  0  0  0.060449  0  1.023187  0  0  0.060076  0  1.023741  0  0  0.090382  0.060596  0  1.022912  0
H  H4  1  0.21741316  0.18692461  0.29936225  1  0  0.04967  0  0.95164  0  0  0.06065  0  1.023523  0  0  0.060339  0  1.024005  0  0  0.090563  0.060746  0  1.023306  0
H  H5  1  0.28258320  0.81307026  0.79936170  1  0  0.049704  0  0.95156  0  0  0.060672  0  1.02345  0  0  0.060362  0  1.023931  0  0  0.090564  0.060769  0  1.02323  0
H  H6  1  0.53033191  0.81282261  0.79926547  1  0  0.049065  0  0.951606  0  0  0.060415  0  1.023159  0  0  0.060041  0  1.023713  0  0  0.090363  0.060561  0  1.022885  0
H  H7  1  0.96966379  0.18717124  0.29926546  1  0  0.049162  0  0.951568  0  0  0.060523  0  1.02311  0  0  0.060153  0  1.023664  0  0  0.090402  0.060669  0  1.022835  0
H  H8  1  0.78258437  0.81307148  0.70063751  1  0  0.049711  0  0.951559  0  0  0.060687  0  1.023438  0  0  0.060376  0  1.023918  0  0  0.090562  0.060783  0  1.023221  0
H  H9  1  0.71741286  0.18692288  0.20063682  1  0  0.049701  0  0.951629  0  0  0.060662  0  1.023524  0  0  0.06036  0  1.023996  0  0  0.090554  0.060758  0  1.023309  0
H  H10  1  0.70324483  0.40600707  0.08677789  1  0  0.104753  0  0.977673  0  0  0.126607  0  1.04262  0  0  0.126762  0  1.044823  0  0  0.080694  0.126473  0  1.041183  0
H  H11  1  0.79675468  0.59398936  0.58677819  1  0  0.104798  0  0.977641  0  0  0.126655  0  1.042574  0  0  0.126809  0  1.044778  0  0  0.080711  0.12652  0  1.041137  0
H  H12  1  0.20324211  0.40600526  0.41322157  1  0  0.104709  0  0.977734  0  0  0.126573  0  1.042669  0  0  0.126727  0  1.044873  0  0  0.08069  0.126439  0  1.041231  0
H  H13  1  0.29675409  0.59398902  0.91322063  1  0  0.104831  0  0.97761  0  0  0.126683  0  1.042549  0  0  0.126838  0  1.044752  0  0  0.080728  0.126548  0  1.041111  0
H  H14  1  0.89823326  0.54647348  0.16110858  1  0  0.109756  0  0.945127  0  0  0.131771  0  1.005271  0  0  0.133403  0  1.004384  0  0  0.085292  0.130563  0  1.005953  0
H  H15  1  0.60176542  0.45352108  0.66110898  1  0  0.109783  0  0.945113  0  0  0.131804  0  1.005244  0  0  0.133439  0  1.004355  0  0  0.085282  0.130595  0  1.005929  0
H  H16  1  0.14909623  0.54650284  0.33886915  1  0  0.109381  0  0.945279  0  0  0.131521  0  1.005247  0  0  0.133161  0  1.004353  0  0  0.08522  0.130302  0  1.005946  0
H  H17  1  0.35089867  0.45349183  0.83886838  1  0  0.109428  0  0.945294  0  0  0.131578  0  1.00523  0  0  0.133218  0  1.004337  0  0  0.085244  0.13036  0  1.005928  0
H  H18  1  0.10176493  0.45352114  0.83888995  1  0  0.109772  0  0.945125  0  0  0.13179  0  1.005265  0  0  0.133424  0  1.004378  0  0  0.085283  0.13058  0  1.005949  0
H  H19  1  0.39823063  0.54647206  0.33889140  1  0  0.109736  0  0.945128  0  0  0.131758  0  1.005264  0  0  0.13339  0  1.004378  0  0  0.085301  0.130549  0  1.005948  0
H  H20  1  0.85089990  0.45349325  0.66113061  1  0  0.109439  0  0.945266  0  0  0.13158  0  1.005215  0  0  0.133218  0  1.004323  0  0  0.085258  0.130362  0  1.005912  0
H  H21  1  0.64910025  0.54650426  0.16113076  1  0  0.109366  0  0.945277  0  0  0.131523  0  1.005225  0  0  0.133162  0  1.004331  0  0  0.085235  0.130304  0  1.005924  0
H  H22  1  0.29831877  0.24386895  0.57757861  1  0  0.092954  0  0.951791  0  0  0.095614  0  1.024368  0  0  0.099028  0  1.021229  0  0  0.113933  0.092937  0  1.027102  0
H  H23  1  0.20168180  0.75614327  0.07757609  1  0  0.093089  0  0.951436  0  0  0.095712  0  1.024039  0  0  0.099128  0  1.020894  0  0  0.113971  0.093034  0  1.026771  0
H  H24  1  0.44604672  0.24418817  0.92260998  1  0  0.092846  0  0.952445  0  0  0.095475  0  1.024897  0  0  0.098819  0  1.021823  0  0  0.1138  0.092832  0  1.027599  0
H  H25  1  0.05395923  0.75580607  0.42261545  1  0  0.092759  0  0.952405  0  0  0.095373  0  1.024849  0  0  0.098717  0  1.021789  0  0  0.113828  0.092741  0  1.027541  0
H  H26  1  0.70167636  0.75614186  0.42242609  1  0  0.093038  0  0.951433  0  0  0.095636  0  1.024044  0  0  0.099051  0  1.020902  0  0  0.11396  0.092958  0  1.026776  0
H  H27  1  0.79831949  0.24386312  0.92242059  1  0  0.092974  0  0.951786  0  0  0.095644  0  1.024327  0  0  0.099058  0  1.021186  0  0  0.113941  0.092967  0  1.027057  0
H  H28  1  0.55396080  0.75581675  0.07738731  1  0  0.092771  0  0.95248  0  0  0.095407  0  1.024909  0  0  0.098749  0  1.02185  0  0  0.113806  0.092777  0  1.027601  0
H  H29  1  0.94604799  0.24418709  0.57738925  1  0  0.092856  0  0.952604  0  0  0.095511  0  1.02498  0  0  0.098855  0  1.02191  0  0  0.113824  0.092859  0  1.027691  0
C  C30  1  0.61753935  0.23471823  0.35631235  1  0  0.310013  0  3.825303  0  0  0.282906  0  4.141596  0  0  0.312452  0  4.143663  0  0  0.102837  0.263064  0  4.139271  0
C  C31  1  0.88245561  0.76527679  0.85631249  1  0  0.309996  0  3.825421  0  0  0.282938  0  4.141679  0  0  0.312483  0  4.14375  0  0  0.102835  0.263098  0  4.139353  0
C  C32  1  0.11753912  0.23471930  0.14368788  1  0  0.310022  0  3.825318  0  0  0.282911  0  4.141612  0  0  0.312458  0  4.143678  0  0  0.102841  0.263067  0  4.139293  0
C  C33  1  0.38245957  0.76527786  0.64368741  1  0  0.31001  0  3.825367  0  0  0.28292  0  4.141649  0  0  0.312464  0  4.143718  0  0  0.102845  0.263078  0  4.139328  0
C  C34  1  0.64056922  0.28074504  0.20820991  1  0  0.147605  0  3.580727  0  0  0.092409  0  3.844795  0  0  0.101968  0  3.850616  0  0  -0.07338  0.086079  0  3.840678  0
C  C35  1  0.85942873  0.71925075  0.70821010  1  0  0.147562  0  3.580618  0  0  0.092402  0  3.844679  0  0  0.101968  0  3.8505  0  0  -0.073417  0.08607  0  3.840558  0
C  C36  1  0.14056806  0.28074387  0.29178966  1  0  0.1477  0  3.580575  0  0  0.092484  0  3.84468  0  0  0.102049  0  3.850504  0  0  -0.07336  0.086151  0  3.840558  0
C  C37  1  0.35942757  0.71924957  0.79178923  1  0  0.147629  0  3.580628  0  0  0.092466  0  3.84466  0  0  0.102032  0  3.85048  0  0  -0.073393  0.086133  0  3.840537  0
C  C38  1  0.72829817  0.45588792  0.15111536  1  0  -0.314206  0  3.694871  0  0  -0.396314  0  3.942463  0  0  -0.398933  0  3.951161  0  0  -0.255512  -0.394334  0  3.936374  0
C  C39  1  0.77170126  0.54410817  0.65111509  1  0  -0.314356  0  3.694868  0  0  -0.396454  0  3.942438  0  0  -0.399075  0  3.951132  0  0  -0.255528  -0.394472  0  3.936351  0
C  C40  1  0.22829553  0.45588645  0.34888405  1  0  -0.314194  0  3.694861  0  0  -0.396305  0  3.942479  0  0  -0.398925  0  3.951176  0  0  -0.255528  -0.394325  0  3.936389  0
C  C41  1  0.27170076  0.54410817  0.84888378  1  0  -0.314372  0  3.694887  0  0  -0.396484  0  3.942466  0  0  -0.399104  0  3.951159  0  0  -0.255542  -0.394502  0  3.936377  0
C  C42  1  0.16421401  0.13400452  0.54342267  1  0  0.08481  0  3.661577  0  0  0.055303  0  3.911357  0  0  0.058417  0  3.927505  0  0  0.05623  0.052731  0  3.901517  0
C  C43  1  0.33581629  0.86602260  0.04341266  1  0  0.084507  0  3.66274  0  0  0.055068  0  3.912449  0  0  0.05818  0  3.928604  0  0  0.056141  0.052499  0  3.902613  0
C  C44  1  0.47002462  0.13419625  0.95668272  1  0  0.085701  0  3.661059  0  0  0.055801  0  3.911391  0  0  0.058984  0  3.927586  0  0  0.056026  0.053188  0  3.901533  0
C  C45  1  0.02996549  0.86583313  0.45669670  1  0  0.085595  0  3.66266  0  0  0.055813  0  3.912813  0  0  0.058988  0  3.929014  0  0  0.055936  0.053194  0  3.902942  0
C  C46  1  0.83582893  0.86602101  0.45658943  1  0  0.084783  0  3.662779  0  0  0.055359  0  3.912448  0  0  0.058473  0  3.928603  0  0  0.056245  0.052786  0  3.90261  0
C  C47  1  0.66421189  0.13399852  0.95657784  1  0  0.084694  0  3.661818  0  0  0.055232  0  3.911572  0  0  0.058345  0  3.927724  0  0  0.056188  0.052662  0  3.901732  0
C  C48  1  0.52997008  0.86582486  0.04330902  1  0  0.085822  0  3.661973  0  0  0.055958  0  3.912255  0  0  0.059134  0  3.928459  0  0  0.056088  0.053335  0  3.902389  0
C  C49  1  0.97002551  0.13420563  0.54331910  1  0  0.085657  0  3.661041  0  0  0.055791  0  3.911332  0  0  0.058969  0  3.92753  0  0  0.055962  0.053187  0  3.901479  0
S  S50  1  0.49335245  0.98700259  0.34334510  1  0  -0.376242  0  2.069055  0  0  -0.35786  0  2.399527  0  0  -0.373614  0  2.392984  0  0  -0.166558  -0.346581  0  2.403588  0
S  S51  1  0.00664663  0.01299206  0.84334347  1  0  -0.376283  0  2.069121  0  0  -0.357903  0  2.399591  0  0  -0.373657  0  2.393045  0  0  -0.16657  -0.346624  0  2.40365  0
S  S52  1  0.99335295  0.98700256  0.15665505  1  0  -0.376251  0  2.069045  0  0  -0.357876  0  2.399538  0  0  -0.373631  0  2.392993  0  0  -0.166552  -0.346593  0  2.403601  0
S  S53  1  0.50664992  0.01299203  0.65665651  1  0  -0.376258  0  2.069087  0  0  -0.357885  0  2.399578  0  0  -0.373636  0  2.393033  0  0  -0.166557  -0.346603  0  2.403637  0
S  S54  1  0.67285011  0.34525618  0.45035555  1  0  -0.35151  0  2.088166  0  0  -0.335841  0  2.435172  0  0  -0.353938  0  2.431077  0  0  -0.164939  -0.322573  0  2.437513  0
S  S55  1  0.82714834  0.65474276  0.95035703  1  0  -0.351556  0  2.088212  0  0  -0.335887  0  2.435206  0  0  -0.353989  0  2.431116  0  0  -0.164951  -0.32262  0  2.437548  0
S  S56  1  0.17285066  0.34525627  0.04964334  1  0  -0.351513  0  2.088116  0  0  -0.335847  0  2.435138  0  0  -0.353945  0  2.431042  0  0  -0.164943  -0.322575  0  2.437482  0
S  S57  1  0.32714963  0.65474432  0.54964236  1  0  -0.351498  0  2.088143  0  0  -0.335848  0  2.43518  0  0  -0.353947  0  2.431089  0  0  -0.164924  -0.32257  0  2.437509  0
N  N58  1  0.19287374  0.99986196  0.50010170  1  0  -0.246798  0  3.326957  0  0  -0.166929  0  3.565539  0  0  -0.181565  0  3.588102  0  0  -0.300805  -0.157097  0  3.55088  0
N  N59  1  0.30712852  0.00013154  0.00010185  1  0  -0.246813  0  3.327031  0  0  -0.166884  0  3.565591  0  0  -0.181526  0  3.588156  0  0  -0.300822  -0.157053  0  3.550938  0
N  N60  1  0.80712444  0.00013266  0.49989805  1  0  -0.24683  0  3.326628  0  0  -0.166939  0  3.565197  0  0  -0.181578  0  3.587758  0  0  -0.300777  -0.157106  0  3.550538  0
N  N61  1  0.69287893  0.99987044  0.99989667  1  0  -0.246786  0  3.326863  0  0  -0.166894  0  3.56548  0  0  -0.181534  0  3.588045  0  0  -0.300812  -0.157059  0  3.550825  0
O  O62  1  0.68018070  0.35940181  0.29209575  1  0  -0.251119  0  2.316159  0  0  -0.163928  0  2.542318  0  0  -0.185335  0  2.543693  0  0  -0.161429  -0.149276  0  2.540896  0
O  O63  1  0.81981714  0.64059355  0.79209662  1  0  -0.250947  0  2.316063  0  0  -0.163853  0  2.54228  0  0  -0.185253  0  2.54365  0  0  -0.161377  -0.149202  0  2.540857  0
O  O64  1  0.18018039  0.35940254  0.20790375  1  0  -0.251156  0  2.316155  0  0  -0.163959  0  2.542327  0  0  -0.185364  0  2.543699  0  0  -0.161444  -0.149306  0  2.540907  0
O  O65  1  0.31981675  0.64059134  0.70790340  1  0  -0.251042  0  2.316135  0  0  -0.163894  0  2.542321  0  0  -0.185297  0  2.543693  0  0  -0.16142  -0.149243  0  2.540898  0
