# generated using pymatgen
data_MnH8C4(NO2)4
_symmetry_space_group_name_H-M   'P 1'
_cell_length_a   7.22521717
_cell_length_b   8.61291357
_cell_length_c   8.61288910
_cell_angle_alpha   83.82807826
_cell_angle_beta   71.00356412
_cell_angle_gamma   71.00274483
_symmetry_Int_Tables_number   1
_chemical_formula_structural   MnH8C4(NO2)4
_chemical_formula_sum   'Mn2 H16 C8 N8 O16'
_cell_volume   479.18784315
_cell_formula_units_Z   2
loop_
 _symmetry_equiv_pos_site_id
 _symmetry_equiv_pos_as_xyz
  1  'x, y, z'
loop_
 _atom_site_type_symbol
 _atom_site_label
 _atom_site_symmetry_multiplicity
 _atom_site_fract_x
 _atom_site_fract_y
 _atom_site_fract_z
 _atom_site_occupancy
 _atom_site_hle17_ddec_charge
 _atom_site_hle17_ddec_spin_density
 _atom_site_hle17_ddec_sum_bond_order
 _atom_site_hle17_magmom
 _atom_site_hse06_10hf_ddec_charge
 _atom_site_hse06_10hf_ddec_spin_density
 _atom_site_hse06_10hf_ddec_sum_bond_order
 _atom_site_hse06_10hf_magmom
 _atom_site_hse06_ddec_charge
 _atom_site_hse06_ddec_spin_density
 _atom_site_hse06_ddec_sum_bond_order
 _atom_site_hse06_magmom
 _atom_site_pbe_cm5_charge
 _atom_site_pbe_ddec_charge
 _atom_site_pbe_ddec_spin_density
 _atom_site_pbe_ddec_sum_bond_order
 _atom_site_pbe_magmom
Mn  Mn0  1  0.00000169  0.00000069  0.49999973  1  0.851464  -1.219296  2.612642  -1.176  0.759566  -1.126815  3.151541  -1.091  0.794364  -1.064639  3.091538  -1.026  0.633491  0.739731  -1.160497  3.183898  -1.125
Mn  Mn1  1  0.49999993  0.50000079  0.99999898  1  0.851994  -1.219271  2.612307  -1.176  0.759733  -1.126773  3.151277  -1.091  0.794642  -1.064635  3.091237  -1.026  0.633618  0.739986  -1.160444  3.183603  -1.125
H  H2  1  0.03290958  0.67669876  0.68454450  1  0.094531  -0.00019  0.962114  -0.001  0.094137  0.000964  1.037683  0.0  0.098687  0.000569  1.0296  0.0  0.12336  0.091019  0.001112  1.043364  0.0
H  H3  1  0.46709146  0.31546774  0.32330225  1  0.094567  -0.000191  0.962053  -0.001  0.094162  0.000965  1.037672  0.0  0.098711  0.000567  1.029584  0.0  0.12344  0.091047  0.001112  1.043354  0.0
H  H4  1  0.96708686  0.32330146  0.31545749  1  0.094485  -0.000188  0.962184  -0.001  0.094084  0.000964  1.037785  0.0  0.098633  0.000568  1.029702  0.0  0.123344  0.090958  0.001112  1.04348  0.0
H  H5  1  0.53290605  0.68453367  0.67669467  1  0.094565  -0.000188  0.962049  -0.001  0.094156  0.000965  1.037671  0.0  0.098706  0.000567  1.02958  0.0  0.123436  0.091058  0.001112  1.043332  0.0
H  H6  1  0.25001458  0.38331710  0.61667614  1  0.14121  0.000427  0.960821  0.001  0.141392  3.3e-05  1.027745  0.0  0.145983  0.00014  1.025195  0.0  0.114562  0.138531  5.9e-05  1.029682  0.0
H  H7  1  0.74998337  0.61668308  0.38332196  1  0.141198  0.000426  0.960903  0.001  0.14143  3.3e-05  1.027761  0.0  0.146021  0.00014  1.02521  0.0  0.114586  0.138566  5.9e-05  1.029701  0.0
H  H8  1  0.25000814  0.80543823  0.19455813  1  0.089514  -0.000668  0.92845  -0.001  0.090434  -5e-06  0.997126  0.0  0.094242  1.3e-05  0.991329  0.0  0.140128  0.087829  -4.5e-05  1.001478  0.0
H  H9  1  0.74999611  0.19456068  0.80544191  1  0.089519  -0.00067  0.928399  -0.001  0.090443  -5e-06  0.997081  0.0  0.09425  1.3e-05  0.991286  0.0  0.140135  0.087838  -4.5e-05  1.001433  0.0
H  H10  1  0.78485168  0.02353495  0.28512942  1  0.427536  -0.000629  0.861575  -0.002  0.393491  0.000469  0.936472  0.0  0.402711  0.000725  0.923212  0.0  0.306461  0.387099  0.000434  0.945551  0.0
H  H11  1  0.71515259  0.71487089  0.97646451  1  0.427495  -0.000629  0.861622  -0.002  0.393467  0.000469  0.936496  0.0  0.402689  0.000726  0.923235  0.0  0.306463  0.387074  0.000434  0.945576  0.0
H  H12  1  0.21514771  0.97646523  0.71487178  1  0.427541  -0.000629  0.861563  -0.002  0.393498  0.000469  0.936462  0.0  0.402717  0.000725  0.923203  0.0  0.306465  0.387105  0.000434  0.945542  0.0
H  H13  1  0.28484532  0.28512931  0.02353709  1  0.427494  -0.000629  0.861612  -0.002  0.393447  0.000469  0.936523  0.0  0.402667  0.000726  0.923264  0.0  0.306464  0.387058  0.000434  0.945598  0.0
H  H14  1  0.96292282  0.10731251  0.20561936  1  0.417144  0.001859  0.879415  0.002  0.386075  0.000366  0.95006  0.0  0.395952  6.5e-05  0.935677  0.0  0.302839  0.379136  0.000387  0.960212  0.0
H  H15  1  0.53709611  0.79437313  0.89268772  1  0.417119  0.001859  0.879538  0.002  0.386066  0.000366  0.950098  0.0  0.395942  6.4e-05  0.935717  0.0  0.30283  0.379126  0.000387  0.960249  0.0
H  H16  1  0.03707804  0.89268766  0.79438144  1  0.417104  0.001859  0.879488  0.002  0.386057  0.000367  0.950088  0.0  0.395933  6.5e-05  0.935707  0.0  0.302824  0.379116  0.000387  0.960242  0.0
H  H17  1  0.46290329  0.20562705  0.10731116  1  0.417138  0.001859  0.879506  0.002  0.386086  0.000366  0.950067  0.0  0.395962  6.5e-05  0.935685  0.0  0.302839  0.379147  0.000387  0.960218  0.0
C  C18  1  0.13235641  0.63925788  0.56096018  1  0.170207  0.040624  3.606956  0.025  0.123004  0.033551  3.876958  0.019  0.144951  0.019526  3.881989  0.01  0.05394  0.10914  0.035125  3.872317  0.02
C  C19  1  0.36767272  0.43904991  0.36074083  1  0.170312  0.040625  3.606928  0.025  0.122961  0.033545  3.876952  0.019  0.14491  0.019523  3.88199  0.01  0.053817  0.109102  0.035119  3.872306  0.02
C  C20  1  0.86763913  0.36074479  0.43904178  1  0.170305  0.04062  3.607058  0.025  0.123046  0.033554  3.877111  0.019  0.144995  0.019526  3.882141  0.01  0.053934  0.109188  0.035126  3.872473  0.02
C  C21  1  0.63232523  0.56095027  0.63925727  1  0.170361  0.04061  3.606818  0.025  0.123039  0.03355  3.876885  0.019  0.144991  0.019526  3.881921  0.01  0.053832  0.109166  0.035121  3.872225  0.02
C  C22  1  0.25001849  0.47760976  0.52238615  1  -0.150512  -0.015669  3.696857  -0.015  -0.161417  -0.003934  3.960994  -0.006  -0.175285  -0.00353  3.974745  -0.004  -0.078251  -0.153046  -0.001853  3.951375  -0.005
C  C23  1  0.74997753  0.52239167  0.47761233  1  -0.150582  -0.015659  3.697005  -0.015  -0.16153  -0.003934  3.961154  -0.006  -0.175398  -0.00353  3.974901  -0.004  -0.078288  -0.153159  -0.001853  3.951541  -0.005
C  C24  1  0.25000620  0.71107984  0.28891753  1  0.298384  0.022826  3.611318  0.015  0.23535  0.011772  3.892963  0.007  0.256056  0.007056  3.900584  0.004  0.181639  0.221034  0.011644  3.88754  0.006
C  C25  1  0.74999512  0.28891910  0.71108212  1  0.298353  0.022836  3.611152  0.015  0.235304  0.011772  3.89285  0.007  0.256011  0.007056  3.900471  0.004  0.181607  0.220986  0.011643  3.887425  0.006
N  N26  1  0.56415792  0.00939418  0.66522176  1  0.680303  0.035522  4.068854  0.029  0.705862  0.011133  4.376703  0.009  0.738247  0.003606  4.38101  0.002  0.104657  0.683075  0.017028  4.374095  0.014
N  N27  1  0.93584518  0.33477182  0.99060507  1  0.680267  0.035493  4.069089  0.029  0.706016  0.011118  4.376731  0.009  0.738403  0.003602  4.381025  0.002  0.104709  0.683231  0.017015  4.374118  0.014
N  N28  1  0.43584442  0.99060597  0.33477749  1  0.680193  0.035516  4.068917  0.029  0.705833  0.011133  4.376671  0.009  0.738219  0.003604  4.380975  0.002  0.104656  0.683042  0.017029  4.374067  0.014
N  N29  1  0.06415465  0.66522715  0.00939731  1  0.68022  0.035508  4.069202  0.029  0.706005  0.011121  4.376831  0.009  0.73839  0.003601  4.381128  0.002  0.104696  0.683214  0.017017  4.374225  0.014
N  N30  1  0.13793851  0.75830470  0.44410517  1  -0.309356  0.009436  3.296141  0.009  -0.249094  0.008644  3.586712  0.01  -0.272931  0.004202  3.599675  0.006  -0.339163  -0.232522  0.012507  3.574324  0.015
N  N31  1  0.36207088  0.55589071  0.24168800  1  -0.309742  0.00943  3.296387  0.009  -0.249185  0.008646  3.586669  0.01  -0.273034  0.004206  3.599643  0.006  -0.339267  -0.232621  0.012506  3.574287  0.015
N  N32  1  0.86206236  0.24169547  0.55589447  1  -0.309358  0.009433  3.296095  0.009  -0.249032  0.008644  3.586628  0.01  -0.272867  0.004203  3.599592  0.006  -0.339141  -0.23246  0.012507  3.574238  0.015
N  N33  1  0.63793043  0.44410823  0.75831282  1  -0.309733  0.00943  3.296265  0.009  -0.249226  0.008646  3.586621  0.01  -0.273077  0.004206  3.599596  0.006  -0.339255  -0.232656  0.012506  3.574235  0.015
O  O34  1  0.75786362  0.93213763  0.64590241  1  -0.440076  0.004137  1.950449  -0.001  -0.420969  0.00532  2.222514  0.005  -0.444006  0.005057  2.212337  0.005  -0.181678  -0.405526  0.007072  2.228021  0.006
O  O35  1  0.74214660  0.35408462  0.06784309  1  -0.439899  0.004141  1.950277  0.0  -0.420957  0.005322  2.222384  0.005  -0.444006  0.005063  2.212215  0.005  -0.181609  -0.405517  0.00707  2.227894  0.006
O  O36  1  0.24213724  0.06786253  0.35409724  1  -0.440022  0.00414  1.950444  0.0  -0.42094  0.005319  2.222486  0.005  -0.443979  0.005058  2.21231  0.005  -0.181693  -0.405498  0.007072  2.227994  0.006
O  O37  1  0.25785326  0.64591432  0.93215579  1  -0.439864  0.004134  1.95029  -0.001  -0.420954  0.005321  2.222424  0.005  -0.444004  0.005064  2.212257  0.005  -0.181636  -0.405515  0.00707  2.22794  0.006
O  O38  1  0.43540972  0.94887487  0.77258961  1  -0.473163  0.011683  1.83836  0.009  -0.444175  0.00408  2.046685  0.003  -0.458639  0.001255  2.036593  0.001  -0.172779  -0.435706  0.007045  2.054592  0.005
O  O39  1  0.06458391  0.22740704  0.05112633  1  -0.473236  0.011684  1.838631  0.009  -0.444188  0.004073  2.046855  0.003  -0.458663  0.001254  2.036762  0.001  -0.172781  -0.435719  0.00704  2.054755  0.005
O  O40  1  0.56459113  0.05112530  0.22741119  1  -0.473116  0.011689  1.838399  0.009  -0.444152  0.004081  2.046695  0.003  -0.458615  0.001255  2.036601  0.001  -0.172747  -0.435683  0.007045  2.054603  0.005
O  O41  1  0.93541344  0.77259073  0.94887684  1  -0.473175  0.011672  1.838594  0.009  -0.444215  0.004074  2.046854  0.003  -0.458692  0.001254  2.036767  0.001  -0.172789  -0.435743  0.007041  2.054755  0.005
O  O42  1  0.50709867  0.13333205  0.58461843  1  -0.40293  0.011938  1.822551  0.009  -0.390534  0.004408  2.042593  0.003  -0.40167  0.001674  2.036249  0.001  -0.139714  -0.385006  0.007336  2.048258  0.005
O  O43  1  0.99289754  0.41537709  0.86666847  1  -0.403007  0.011928  1.822598  0.009  -0.390652  0.0044  2.042611  0.003  -0.4018  0.001662  2.036265  0.001  -0.139793  -0.385125  0.007328  2.048277  0.005
O  O44  1  0.49290220  0.86666812  0.41538121  1  -0.402908  0.011937  1.822559  0.009  -0.390559  0.004408  2.042596  0.003  -0.401697  0.001673  2.036251  0.001  -0.139732  -0.385014  0.007336  2.048248  0.005
O  O45  1  0.00710754  0.58461569  0.13333086  1  -0.403011  0.011944  1.822703  0.009  -0.39064  0.004402  2.042668  0.003  -0.401784  0.001664  2.036321  0.001  -0.139771  -0.385113  0.007329  2.048335  0.005
O  O46  1  0.91842360  0.02752019  0.29094843  1  -0.779202  -0.008177  2.040871  -0.003  -0.730444  -0.009459  2.275857  -0.005  -0.760967  -0.006195  2.246649  -0.002  -0.553666  -0.70775  -0.012696  2.294115  -0.008
O  O47  1  0.58158290  0.70904503  0.97248030  1  -0.779234  -0.008183  2.041067  -0.003  -0.730438  -0.00946  2.275949  -0.005  -0.760971  -0.006196  2.246742  -0.002  -0.553684  -0.707756  -0.012699  2.294215  -0.008
O  O48  1  0.08157625  0.97247876  0.70905162  1  -0.779174  -0.008179  2.040949  -0.003  -0.730416  -0.00946  2.275904  -0.005  -0.760936  -0.006195  2.246696  -0.002  -0.553652  -0.707722  -0.012697  2.294166  -0.008
O  O49  1  0.41841650  0.29095515  0.02751974  1  -0.779224  -0.008182  2.041006  -0.003  -0.730431  -0.009459  2.275921  -0.005  -0.760961  -0.006197  2.246712  -0.002  -0.553686  -0.707748  -0.012698  2.294182  -0.008
