# generated using pymatgen
data_FeCuH29C27(N3O2)2
_symmetry_space_group_name_H-M   'P 1'
_cell_length_a   10.32156869
_cell_length_b   15.49257077
_cell_length_c   18.16805871
_cell_angle_alpha   90.00006891
_cell_angle_beta   90.00041204
_cell_angle_gamma   95.19604667
_symmetry_Int_Tables_number   1
_chemical_formula_structural   FeCuH29C27(N3O2)2
_chemical_formula_sum   'Fe4 Cu4 H116 C108 N24 O16'
_cell_volume   2893.27273875
_cell_formula_units_Z   4
loop_
 _symmetry_equiv_pos_site_id
 _symmetry_equiv_pos_as_xyz
  1  'x, y, z'
loop_
 _atom_site_type_symbol
 _atom_site_label
 _atom_site_symmetry_multiplicity
 _atom_site_fract_x
 _atom_site_fract_y
 _atom_site_fract_z
 _atom_site_occupancy
 _atom_site_pbe_bader_charge
 _atom_site_pbe_bader_spin_density
 _atom_site_pbe_cm5_charge
 _atom_site_pbe_ddec_charge
 _atom_site_pbe_ddec_spin_density
 _atom_site_pbe_ddec_sum_bond_order
 _atom_site_pbe_magmom
Fe  Fe0  1  0.73144497  0.26766477  0.64837470  1  0.730854  0.00749  0.542346  0.252206  0.010928  3.973191  0.007
Fe  Fe1  1  0.26855407  0.23233749  0.14837426  1  0.730865  0.007494  0.542342  0.252243  0.010933  3.973108  0.007
Fe  Fe2  1  0.26855210  0.73233408  0.35162573  1  0.730867  0.007491  0.54236  0.252317  0.010929  3.973159  0.007
Fe  Fe3  1  0.73145008  0.76766324  0.85162508  1  0.730841  0.007492  0.542363  0.252267  0.01093  3.973216  0.007
Cu  Cu4  1  0.22825174  0.21144931  0.74245194  1  1.070319  0.580784  0.740569  0.754677  0.731981  2.297041  0.579
Cu  Cu5  1  0.77175386  0.28855635  0.24245801  1  1.070095  0.580782  0.740583  0.754735  0.731969  2.296954  0.579
Cu  Cu6  1  0.77175037  0.78855079  0.25754739  1  1.070356  0.580781  0.740558  0.754642  0.731974  2.297034  0.579
Cu  Cu7  1  0.22824835  0.71144440  0.75754352  1  1.070097  0.580781  0.740594  0.754809  0.731971  2.29694  0.579
H  H8  1  0.23468834  0.08016309  0.60841665  1  0.15326  0.000609  0.1337  0.098051  0.000165  1.032756  0.0
H  H9  1  0.76530417  0.41983785  0.10841788  1  0.152702  0.000609  0.133679  0.098002  0.000165  1.032825  0.0
H  H10  1  0.76531626  0.91983439  0.39158268  1  0.153419  0.000609  0.133722  0.098072  0.000165  1.032736  0.0
H  H11  1  0.23469438  0.58016423  0.89158311  1  0.153142  0.000609  0.133693  0.098038  0.000165  1.032773  0.0
H  H12  1  0.97842627  0.08738971  0.78809560  1  0.166319  0.000962  0.120959  0.12214  0.000401  1.018283  0.001
H  H13  1  0.02158325  0.41261860  0.28809103  1  0.166327  0.000962  0.120936  0.122147  0.000401  1.018211  0.001
H  H14  1  0.02158103  0.91260644  0.21190594  1  0.166348  0.000962  0.120915  0.122122  0.000401  1.018247  0.001
H  H15  1  0.97842080  0.58738148  0.71190721  1  0.166342  0.000962  0.120951  0.122149  0.000401  1.018224  0.001
H  H16  1  0.90256414  0.94167930  0.70219459  1  0.154026  0.001092  0.121565  0.13323  0.000531  1.032559  0.001
H  H17  1  0.09743560  0.55832679  0.20218445  1  0.154029  0.001092  0.12157  0.133235  0.000531  1.032499  0.001
H  H18  1  0.09743959  0.05831884  0.29780695  1  0.154025  0.001093  0.12157  0.133273  0.000531  1.032445  0.001
H  H19  1  0.90256899  0.44167068  0.79781269  1  0.1539  0.001093  0.121559  0.133204  0.000531  1.032538  0.001
H  H20  1  0.02993250  0.86509875  0.60116436  1  0.133993  0.000198  0.116836  0.114216  0.000116  0.981362  0.0
H  H21  1  0.97004684  0.63490278  0.10115842  1  0.133907  0.000198  0.116865  0.114287  0.000116  0.981339  0.0
H  H22  1  0.97006619  0.13489814  0.39883828  1  0.133885  0.000198  0.116879  0.1143  0.000116  0.981302  0.0
H  H23  1  0.02995171  0.36509931  0.89884532  1  0.133989  0.000198  0.116869  0.114251  0.000116  0.981249  0.0
H  H24  1  0.16419078  0.92543512  0.55881011  1  0.049466  2e-06  0.108817  0.086732  -1.6e-05  0.995538  0.0
H  H25  1  0.83579568  0.57455974  0.05880356  1  0.049539  1e-06  0.108865  0.086893  -1.6e-05  0.995677  0.0
H  H26  1  0.83580556  0.07455920  0.44118867  1  0.049647  1e-06  0.108804  0.086696  -1.6e-05  0.995615  0.0
H  H27  1  0.16420200  0.42544300  0.94120018  1  0.049555  2e-06  0.108884  0.086874  -1.6e-05  0.995648  0.0
H  H28  1  0.87676005  0.95681418  0.53741249  1  0.045672  1.8e-05  0.093376  0.08962  1.3e-05  0.979075  0.0
H  H29  1  0.12322983  0.54319163  0.03741290  1  0.04571  1.8e-05  0.093343  0.089617  1.3e-05  0.979213  0.0
H  H30  1  0.12323467  0.04318210  0.46259235  1  0.045793  1.8e-05  0.093369  0.089593  1.3e-05  0.979216  0.0
H  H31  1  0.87676771  0.45681631  0.96258313  1  0.045612  1.8e-05  0.093366  0.089565  1.3e-05  0.979193  0.0
H  H32  1  0.97395475  0.90508077  0.47416595  1  0.047828  7e-05  0.099876  0.101041  1.7e-05  0.990194  0.0
H  H33  1  0.02603609  0.59492085  0.97416223  1  0.047792  7e-05  0.099886  0.101066  1.7e-05  0.99021  0.0
H  H34  1  0.02603835  0.09491748  0.52583724  1  0.047718  7e-05  0.099875  0.101077  1.7e-05  0.990127  0.0
H  H35  1  0.97395350  0.40508588  0.02583765  1  0.047882  7e-05  0.099848  0.101016  1.7e-05  0.990172  0.0
H  H36  1  0.43225534  0.08823308  0.82229627  1  0.137272  0.00011  0.131495  0.101232  4.4e-05  1.011477  0.0
H  H37  1  0.56774239  0.41177154  0.32229723  1  0.137597  0.00011  0.131496  0.101277  4.4e-05  1.011382  0.0
H  H38  1  0.56774321  0.91176900  0.17770527  1  0.137428  0.00011  0.131501  0.101291  4.4e-05  1.011386  0.0
H  H39  1  0.43226058  0.58822790  0.67770431  1  0.137547  0.00011  0.131476  0.101229  4.4e-05  1.011394  0.0
H  H40  1  0.07265583  0.13926296  0.91278129  1  0.110616  0.000118  0.116769  0.116849  5.6e-05  1.005477  0.0
H  H41  1  0.92733899  0.36074060  0.41278587  1  0.110676  0.000118  0.116759  0.116877  5.6e-05  1.005461  0.0
H  H42  1  0.92733333  0.86072884  0.08721254  1  0.1107  0.000118  0.116734  0.116861  5.6e-05  1.005424  0.0
H  H43  1  0.07266322  0.63926014  0.58721567  1  0.11072  0.000118  0.116766  0.116824  5.6e-05  1.005502  0.0
H  H44  1  0.14881315  0.98534432  0.97445826  1  0.093224  0.000176  0.123269  0.124761  8.3e-05  0.994846  0.0
H  H45  1  0.85118284  0.51465919  0.47446327  1  0.093056  0.000176  0.123265  0.124785  8.3e-05  0.994852  0.0
H  H46  1  0.85117805  0.01464810  0.02553502  1  0.093248  0.000176  0.123301  0.12488  8.3e-05  0.994746  0.0
H  H47  1  0.14882162  0.48534348  0.52553552  1  0.093099  0.000176  0.123277  0.124776  8.3e-05  0.994789  0.0
H  H48  1  0.33804878  0.88306320  0.91484298  1  0.113888  1.1e-05  0.115663  0.119328  0.0  0.981523  0.0
H  H49  1  0.66195127  0.61694014  0.41484512  1  0.113798  1.1e-05  0.115708  0.119411  0.0  0.981554  0.0
H  H50  1  0.66195709  0.11693622  0.08515636  1  0.113866  1.1e-05  0.115679  0.119378  0.0  0.981519  0.0
H  H51  1  0.33805384  0.38306058  0.58515367  1  0.113937  1.1e-05  0.115665  0.119359  0.0  0.981566  0.0
H  H52  1  0.46974313  0.94839853  0.87659759  1  0.065834  1e-05  0.110719  0.089311  8e-06  1.000375  0.0
H  H53  1  0.53025663  0.55160602  0.37659912  1  0.065721  1e-05  0.110714  0.089308  8e-06  1.000375  0.0
H  H54  1  0.53025939  0.05160416  0.12340175  1  0.065872  1e-05  0.1107  0.089336  8e-06  1.000316  0.0
H  H55  1  0.46974849  0.44839470  0.62340021  1  0.066037  1e-05  0.110703  0.089262  8e-06  1.000377  0.0
H  H56  1  0.38316842  0.94973525  0.03839338  1  0.007012  -1e-06  0.091974  0.083827  -1e-06  0.987699  0.0
H  H57  1  0.61683007  0.55026983  0.53839534  1  0.006969  -1e-06  0.091974  0.083847  -1e-06  0.987682  0.0
H  H58  1  0.61682926  0.05026749  0.96160485  1  0.006993  -1e-06  0.091979  0.083857  -1e-06  0.987686  0.0
H  H59  1  0.38317438  0.44973284  0.46160345  1  0.006983  -1e-06  0.092003  0.083911  -1e-06  0.987661  0.0
H  H60  1  0.51879920  0.90239307  0.00279490  1  0.037941  -1.2e-05  0.097122  0.095415  -1e-05  1.000102  0.0
H  H61  1  0.48119659  0.59761001  0.50279580  1  0.03788  -1.2e-05  0.097107  0.095427  -1e-05  1.000061  0.0
H  H62  1  0.48119976  0.09761161  0.99720554  1  0.037888  -1.2e-05  0.097129  0.095467  -1e-05  1.000049  0.0
H  H63  1  0.51880797  0.40239331  0.49720299  1  0.037221  -1.2e-05  0.097147  0.09549  -1e-05  1.000033  0.0
H  H64  1  0.43216914  0.26737311  0.86938450  1  0.139148  0.000503  0.137385  0.103599  0.000131  1.008415  0.0
H  H65  1  0.56783404  0.23263156  0.36939243  1  0.138967  0.000503  0.137392  0.103653  0.000131  1.008267  0.0
H  H66  1  0.56783272  0.73263153  0.13061429  1  0.139041  0.000503  0.137414  0.103667  0.000131  1.008316  0.0
H  H67  1  0.43216227  0.76736860  0.63060856  1  0.139  0.000503  0.137384  0.103586  0.000131  1.008368  0.0
H  H68  1  0.24314116  0.41489148  0.71494887  1  0.140169  0.000722  0.124322  0.124456  0.000258  1.005336  0.001
H  H69  1  0.75686589  0.08511929  0.21495356  1  0.140305  0.000722  0.124281  0.124391  0.000258  1.005282  0.001
H  H70  1  0.75685266  0.58511130  0.28505212  1  0.140257  0.000722  0.124335  0.124438  0.000258  1.005317  0.001
H  H71  1  0.24314361  0.91488463  0.78504963  1  0.140284  0.000722  0.124295  0.124365  0.000258  1.005267  0.001
H  H72  1  0.41000791  0.52728222  0.79951691  1  0.135623  0.000893  0.118497  0.126829  0.000491  1.068454  0.001
H  H73  1  0.58999417  0.97272472  0.29951473  1  0.135698  0.000893  0.118467  0.126872  0.000491  1.06858  0.001
H  H74  1  0.58998611  0.47272186  0.20048187  1  0.135638  0.000893  0.118503  0.126912  0.000491  1.068461  0.001
H  H75  1  0.41001008  0.02727666  0.70048351  1  0.135683  0.000893  0.118474  0.126885  0.000491  1.068515  0.001
H  H76  1  0.61503345  0.47958593  0.88932052  1  0.074112  0.0002  0.108972  0.09494  9.4e-05  0.989247  0.0
H  H77  1  0.38496581  0.02041689  0.38931702  1  0.074604  0.0002  0.108974  0.094989  9.4e-05  0.989099  0.0
H  H78  1  0.38496230  0.52041684  0.11068157  1  0.07459  0.0002  0.108956  0.094948  9.4e-05  0.989156  0.0
H  H79  1  0.61503416  0.97958194  0.61068121  1  0.074274  0.0002  0.108973  0.094963  9.4e-05  0.98916  0.0
H  H80  1  0.57346112  0.37975238  0.93599791  1  0.07676  3.4e-05  0.117674  0.100249  9e-06  0.959058  0.0
H  H81  1  0.42653939  0.12024858  0.43599853  1  0.076732  3.4e-05  0.117677  0.100236  9e-06  0.959054  0.0
H  H82  1  0.42653107  0.62025236  0.06400253  1  0.076657  3.4e-05  0.117691  0.100222  9e-06  0.958934  0.0
H  H83  1  0.57346500  0.87974761  0.56400245  1  0.076663  3.4e-05  0.117702  0.100252  9e-06  0.958917  0.0
H  H84  1  0.41648948  0.53896360  0.94120571  1  0.018045  3.6e-05  0.094143  0.089315  2.7e-05  1.0072  0.0
H  H85  1  0.58350729  0.96103528  0.44120403  1  0.017916  3.6e-05  0.094132  0.089296  2.7e-05  1.007207  0.0
H  H86  1  0.58350581  0.46104241  0.05879308  1  0.017303  3.6e-05  0.09408  0.089279  2.7e-05  1.007239  0.0
H  H87  1  0.41649196  0.03895901  0.55878980  1  0.017289  3.6e-05  0.094109  0.089323  2.7e-05  1.007246  0.0
H  H88  1  0.37569904  0.43927578  0.98812803  1  0.036205  9e-06  0.092487  0.092194  -3e-06  1.010613  0.0
H  H89  1  0.62430163  0.06072206  0.48812776  1  0.036229  9e-06  0.092512  0.092232  -3e-06  1.010572  0.0
H  H90  1  0.62429422  0.56072961  0.01187130  1  0.035817  9e-06  0.09249  0.092238  -3e-06  1.010537  0.0
H  H91  1  0.37570311  0.93927023  0.51186772  1  0.035869  9e-06  0.092469  0.092195  -3e-06  1.010574  0.0
H  H92  1  0.70242906  0.27792339  0.80135852  1  0.088809  -7.9e-05  0.108261  0.132094  -9.6e-05  0.992921  0.0
H  H93  1  0.29757348  0.22207659  0.30135928  1  0.088783  -7.9e-05  0.108254  0.132102  -9.6e-05  0.992963  0.0
H  H94  1  0.29755650  0.72207623  0.19864081  1  0.088867  -7.9e-05  0.108237  0.132098  -9.6e-05  0.992969  0.0
H  H95  1  0.70243066  0.77792414  0.69864060  1  0.088793  -7.9e-05  0.108258  0.132082  -9.6e-05  0.992934  0.0
H  H96  1  0.55793212  0.37376039  0.71282653  1  0.062213  0.000175  0.101508  0.117454  5.6e-05  1.045542  0.0
H  H97  1  0.44207086  0.12624327  0.21282558  1  0.062364  0.000175  0.10152  0.117424  5.6e-05  1.04547  0.0
H  H98  1  0.44206801  0.62624557  0.28716950  1  0.062328  0.000175  0.1015  0.117428  5.6e-05  1.045548  0.0
H  H99  1  0.55793446  0.87375874  0.78717210  1  0.062255  0.000175  0.10149  0.117427  5.6e-05  1.045609  0.0
H  H100  1  0.71453714  0.43921201  0.60209188  1  0.094896  -1.7e-05  0.100052  0.113203  -2.2e-05  1.029453  0.0
H  H101  1  0.28546257  0.06079208  0.10209022  1  0.094823  -1.7e-05  0.100038  0.113156  -2.2e-05  1.029553  0.0
H  H102  1  0.28547733  0.56078666  0.39790580  1  0.09483  -1.7e-05  0.100046  0.113147  -2.2e-05  1.029545  0.0
H  H103  1  0.71453833  0.93921258  0.89790691  1  0.094923  -1.7e-05  0.100062  0.113212  -2.2e-05  1.02947  0.0
H  H104  1  0.95381230  0.38229724  0.62254417  1  0.123755  0.000218  0.10916  0.131719  0.000197  0.99735  0.0
H  H105  1  0.04618513  0.11770303  0.12254269  1  0.123619  0.000218  0.109156  0.131679  0.000197  0.997307  0.0
H  H106  1  0.04619259  0.61768985  0.37746067  1  0.12366  0.000218  0.109172  0.13171  0.000197  0.997292  0.0
H  H107  1  0.95381525  0.88229839  0.87745719  1  0.123592  0.000218  0.109144  0.131672  0.000197  0.997302  0.0
H  H108  1  0.59302730  0.26820246  0.51552754  1  0.082493  -3.9e-05  0.104358  0.124424  -4.4e-05  1.014494  0.0
H  H109  1  0.40696808  0.23179954  0.01552710  1  0.082608  -3.9e-05  0.104332  0.12435  -4.4e-05  1.014405  0.0
H  H110  1  0.40697481  0.73179764  0.48447180  1  0.082497  -3.9e-05  0.104398  0.124493  -4.4e-05  1.01447  0.0
H  H111  1  0.59303458  0.76819796  0.98447278  1  0.082678  -3.9e-05  0.104321  0.124334  -4.4e-05  1.014342  0.0
H  H112  1  0.84336025  0.22729190  0.51329224  1  0.096867  0.000143  0.111169  0.132998  6.7e-05  0.988357  0.0
H  H113  1  0.15663465  0.27271334  0.01329027  1  0.097349  0.000143  0.111218  0.133065  6.7e-05  0.988365  0.0
H  H114  1  0.15663844  0.77270499  0.48670985  1  0.0968  0.000143  0.111201  0.133049  6.7e-05  0.988346  0.0
H  H115  1  0.84336960  0.72728804  0.98670631  1  0.096926  0.000143  0.111187  0.133035  6.7e-05  0.988413  0.0
H  H116  1  0.87929125  0.12664538  0.63301611  1  0.094846  -3.3e-05  0.103715  0.124641  -5.5e-05  1.031594  0.0
H  H117  1  0.12070800  0.37335944  0.13301685  1  0.094777  -3.3e-05  0.103701  0.1246  -5.5e-05  1.031623  0.0
H  H118  1  0.12070077  0.87335223  0.36698708  1  0.09478  -3.3e-05  0.103661  0.124617  -5.5e-05  1.031587  0.0
H  H119  1  0.87929742  0.62664322  0.86698083  1  0.094713  -3.3e-05  0.103675  0.124536  -5.5e-05  1.03163  0.0
H  H120  1  0.65206113  0.10617595  0.70820859  1  0.080397  0.000164  0.109422  0.134475  0.000116  0.986768  0.0
H  H121  1  0.34794051  0.39382577  0.20820973  1  0.080351  0.000164  0.109431  0.134468  0.000116  0.986767  0.0
H  H122  1  0.34792978  0.89382686  0.29179240  1  0.080488  0.000164  0.109406  0.134484  0.000116  0.986765  0.0
H  H123  1  0.65206343  0.60617366  0.79178905  1  0.080318  0.000164  0.109412  0.134449  0.000116  0.986768  0.0
C  C124  1  0.15661963  0.06180489  0.64663741  1  0.977887  -0.00193  0.139845  0.079461  -0.002353  3.947243  -0.001
C  C125  1  0.84337358  0.43819743  0.14663677  1  0.978952  -0.001929  0.139951  0.079587  -0.002354  3.94706  -0.001
C  C126  1  0.84338217  0.93819327  0.35336303  1  0.97777  -0.00193  0.139835  0.079444  -0.002354  3.947191  -0.001
C  C127  1  0.15662669  0.56180334  0.85336421  1  0.978447  -0.00193  0.139977  0.079613  -0.002354  3.947114  -0.001
C  C128  1  0.02086771  0.06289481  0.73867779  1  0.408932  0.000979  0.001326  -0.026003  0.00068  3.96976  0.001
C  C129  1  0.97913892  0.43711148  0.23867220  1  0.409064  0.000979  0.001482  -0.025826  0.00068  3.969744  0.001
C  C130  1  0.97913719  0.93710462  0.26132375  1  0.408798  0.00098  0.001358  -0.025939  0.000681  3.969859  0.001
C  C131  1  0.02086385  0.56288667  0.76132769  1  0.409025  0.000979  0.001397  -0.025919  0.000681  3.969772  0.001
C  C132  1  0.98225309  0.99159296  0.69650347  1  0.251461  0.003594  0.002447  -0.100273  0.002279  3.899891  0.003
C  C133  1  0.01774703  0.50840987  0.19649625  1  0.251797  0.003594  0.0023  -0.100501  0.002279  3.89985  0.003
C  C134  1  0.01775023  0.00840258  0.30349752  1  0.251528  0.003593  0.002423  -0.100415  0.002278  3.899888  0.003
C  C135  1  0.98225798  0.49159021  0.80350253  1  0.251969  0.003594  0.002418  -0.100329  0.002278  3.89983  0.003
C  C136  1  0.06433002  0.92901145  0.57872948  1  0.290571  0.00111  -0.049439  -0.064283  0.000794  3.871989  0.001
C  C137  1  0.93565204  0.57099065  0.07872499  1  0.290642  0.00111  -0.049501  -0.064637  0.000794  3.872178  0.001
C  C138  1  0.93566760  0.07098480  0.42127205  1  0.290566  0.00111  -0.049464  -0.06441  0.000794  3.872028  0.001
C  C139  1  0.06434382  0.42901276  0.92127765  1  0.290263  0.00111  -0.049474  -0.064494  0.000794  3.872066  0.001
C  C140  1  0.97698835  0.95589481  0.51656457  1  -0.038518  4e-06  -0.16294  -0.172718  -2.5e-05  3.952953  0.0
C  C141  1  0.02300375  0.54410834  0.01656181  1  -0.067442  4e-06  -0.162903  -0.172689  -2.5e-05  3.952939  0.0
C  C142  1  0.02300541  0.04410148  0.48343862  1  -0.067446  4e-06  -0.163016  -0.172772  -2.4e-05  3.952981  0.0
C  C143  1  0.97699435  0.45589700  0.98343532  1  -0.038686  4e-06  -0.163005  -0.172652  -2.4e-05  3.953014  0.0
C  C144  1  0.34528382  0.08315635  0.85614450  1  0.96983  0.000431  0.129811  0.077916  0.000299  3.956007  0.0
C  C145  1  0.65471338  0.41684835  0.35614528  1  0.96961  0.000431  0.129908  0.077964  0.000299  3.955772  0.0
C  C146  1  0.65471346  0.91684380  0.14385538  1  0.969633  0.000431  0.129845  0.077865  0.000299  3.955747  0.0
C  C147  1  0.34528786  0.58315241  0.64385516  1  0.969598  0.000431  0.129919  0.078001  0.000299  3.95591  0.0
C  C148  1  0.16001075  0.10636242  0.90446135  1  0.391035  0.000133  -0.005918  -0.033407  2e-05  4.044999  0.0
C  C149  1  0.83998773  0.39364044  0.40446561  1  0.390876  0.000133  -0.00585  -0.033266  2.1e-05  4.044666  0.0
C  C150  1  0.83998055  0.89363065  0.09553523  1  0.39067  0.000133  -0.005854  -0.033387  2.1e-05  4.044799  0.0
C  C151  1  0.16001611  0.60635835  0.59553593  1  0.390821  0.000133  -0.00588  -0.033286  2.1e-05  4.044848  0.0
C  C152  1  0.19552132  0.03031561  0.93481521  1  0.291617  0.001341  -0.008181  -0.12665  0.000904  3.940875  0.001
C  C153  1  0.80447573  0.46968798  0.43482050  1  0.291806  0.001342  -0.008242  -0.126837  0.000904  3.940721  0.001
C  C154  1  0.80446933  0.96967942  0.06517862  1  0.292052  0.001342  -0.008217  -0.12687  0.000904  3.94074  0.001
C  C155  1  0.19552862  0.53031404  0.56517994  1  0.291839  0.001342  -0.008246  -0.126761  0.000904  3.940746  0.001
C  C156  1  0.39502826  0.94624601  0.91974349  1  0.293233  7.9e-05  -0.053208  -0.078196  4.4e-05  3.885197  0.0
C  C157  1  0.60497044  0.55376059  0.41974588  1  0.29331  7.9e-05  -0.05315  -0.078201  4.4e-05  3.885319  0.0
C  C158  1  0.60497298  0.05375475  0.08025475  1  0.29321  7.9e-05  -0.053194  -0.078261  4.4e-05  3.885261  0.0
C  C159  1  0.39503315  0.44624274  0.58025401  1  0.292934  8e-05  -0.053085  -0.078053  4.4e-05  3.885325  0.0
C  C160  1  0.45874924  0.95689443  0.99536040  1  0.006762  -1.8e-05  -0.163131  -0.170402  -2.4e-05  3.962588  0.0
C  C161  1  0.54124992  0.54310910  0.49536141  1  0.006756  -1.8e-05  -0.163156  -0.17052  -2.4e-05  3.962651  0.0
C  C162  1  0.54125028  0.04310765  0.00464004  1  -0.018646  -1.8e-05  -0.163148  -0.170571  -2.4e-05  3.962712  0.0
C  C163  1  0.45875443  0.45689293  0.50463792  1  -0.018026  -1.8e-05  -0.163235  -0.170693  -2.4e-05  3.962691  0.0
C  C164  1  0.40446276  0.32191893  0.83767222  1  0.957974  -0.001365  0.144402  0.094153  -0.00162  3.908687  0.0
C  C165  1  0.59554173  0.17808436  0.33767800  1  0.958183  -0.001364  0.144447  0.094053  -0.00162  3.908545  0.0
C  C166  1  0.59553513  0.67808511  0.16232656  1  0.958154  -0.001365  0.144414  0.094044  -0.00162  3.90842  0.0
C  C167  1  0.40445844  0.82191576  0.66232298  1  0.958185  -0.001364  0.144503  0.094199  -0.00162  3.908598  0.0
C  C168  1  0.30986458  0.40133905  0.75854088  1  0.426156  8.1e-05  0.001628  -0.02447  -0.000349  3.979901  0.0
C  C169  1  0.69014196  0.09867118  0.25854477  1  0.426672  8.1e-05  0.001672  -0.024388  -0.000349  3.979893  0.0
C  C170  1  0.69012924  0.59866373  0.24145955  1  0.426367  8.1e-05  0.001619  -0.024464  -0.000349  3.979936  0.0
C  C171  1  0.30986560  0.90133276  0.74145787  1  0.426451  8.1e-05  0.001738  -0.024223  -0.000349  3.979613  0.0
C  C172  1  0.39133162  0.45703620  0.80018284  1  0.275753  0.003406  -0.006979  -0.131906  0.002196  3.919706  0.002
C  C173  1  0.60866904  0.04297029  0.30018359  1  0.275113  0.003406  -0.007002  -0.132224  0.002196  3.919938  0.002
C  C174  1  0.60866230  0.54296723  0.19981649  1  0.275286  0.003406  -0.007059  -0.132303  0.002196  3.91981  0.002
C  C175  1  0.39133511  0.95703044  0.69981630  1  0.275292  0.003406  -0.007039  -0.132272  0.002196  3.91992  0.002
C  C176  1  0.53359946  0.43638876  0.91112783  1  0.297234  0.001102  -0.046946  -0.059032  0.000801  3.878291  0.001
C  C177  1  0.46640191  0.06361343  0.41112746  1  0.296771  0.001102  -0.046939  -0.059107  0.000801  3.878089  0.001
C  C178  1  0.46639853  0.56361593  0.08887205  1  0.297006  0.001102  -0.04695  -0.05908  0.000801  3.878  0.001
C  C179  1  0.53359882  0.93638408  0.58887077  1  0.297263  0.001103  -0.046961  -0.059066  0.000801  3.877972  0.001
C  C180  1  0.45724631  0.48372069  0.96795491  1  0.011075  0.000102  -0.162636  -0.163375  6.2e-05  3.932901  0.0
C  C181  1  0.54275237  0.01627841  0.46795370  1  0.01117  0.000102  -0.162634  -0.163362  6.2e-05  3.932957  0.0
C  C182  1  0.54274888  0.51628467  0.03204443  1  -0.01665  0.000104  -0.162594  -0.163417  6.2e-05  3.932943  0.0
C  C183  1  0.45724870  0.98371521  0.53204123  1  -0.016732  0.000104  -0.162649  -0.163513  6.2e-05  3.933059  0.0
C  C184  1  0.97591361  0.27438724  0.75613631  1  1.605119  -0.00151  0.193773  0.579391  -0.002007  4.244831  -0.004
C  C185  1  0.02408738  0.22561266  0.25613650  1  1.604793  -0.001511  0.193759  0.57938  -0.002007  4.244936  -0.004
C  C186  1  0.02407265  0.72560459  0.24387238  1  1.604006  -0.001512  0.193869  0.57974  -0.002007  4.244535  -0.004
C  C187  1  0.97591666  0.77438742  0.74386448  1  1.604608  -0.001511  0.193773  0.579467  -0.002007  4.244883  -0.004
C  C188  1  0.86515471  0.31679719  0.72297791  1  -0.110204  0.011208  -0.083142  -0.084183  0.007881  3.998223  0.009
C  C189  1  0.13484788  0.18320326  0.22297907  1  -0.109811  0.01121  -0.083136  -0.084207  0.007882  3.998195  0.009
C  C190  1  0.13483959  0.68319650  0.27702693  1  -0.109068  0.011207  -0.083262  -0.084445  0.007882  3.998484  0.009
C  C191  1  0.86515509  0.81679619  0.77702192  1  -0.110096  0.011208  -0.08314  -0.08425  0.007881  3.998301  0.009
C  C192  1  0.73573212  0.31460160  0.75295223  1  -0.154239  0.00215  -0.154226  -0.170228  0.001302  3.976283  0.002
C  C193  1  0.26427107  0.18540021  0.25295226  1  -0.154238  0.00215  -0.154201  -0.170244  0.001301  3.976323  0.002
C  C194  1  0.26426108  0.68539729  0.24704876  1  -0.154375  0.00215  -0.154166  -0.170115  0.001301  3.976351  0.002
C  C195  1  0.73573404  0.81460051  0.74704762  1  -0.154437  0.00215  -0.154217  -0.17017  0.001301  3.976404  0.002
C  C196  1  0.66073643  0.36571282  0.70649474  1  -0.157396  0.000336  -0.158879  -0.143174  0.00017  3.995552  0.0
C  C197  1  0.33926315  0.13428827  0.20649118  1  -0.157556  0.000336  -0.15892  -0.143177  0.00017  3.995636  0.0
C  C198  1  0.33926288  0.63428796  0.29350459  1  -0.157485  0.000336  -0.158922  -0.143289  0.00017  3.99567  0.0
C  C199  1  0.66073886  0.86571118  0.79350430  1  -0.157323  0.000336  -0.158881  -0.14325  0.00017  3.99573  0.0
C  C200  1  0.74331844  0.39988553  0.64776329  1  -0.161303  -0.000161  -0.157223  -0.142683  -0.000247  4.001894  0.0
C  C201  1  0.25668929  0.10011664  0.14776265  1  -0.161254  -0.000161  -0.157237  -0.142727  -0.000247  4.002144  0.0
C  C202  1  0.25669109  0.60011255  0.35223660  1  -0.16118  -0.000161  -0.157217  -0.142624  -0.000247  4.00198  0.0
C  C203  1  0.74331883  0.89988470  0.85223669  1  -0.161324  -0.000161  -0.157231  -0.142673  -0.000247  4.001936  0.0
C  C204  1  0.86902517  0.36940374  0.65751030  1  -0.152291  -0.000206  -0.15127  -0.1609  -0.000208  3.977266  0.0
C  C205  1  0.13097572  0.13059722  0.15751084  1  -0.152517  -0.000206  -0.151217  -0.160721  -0.000209  3.977031  0.0
C  C206  1  0.13097968  0.63058919  0.34249289  1  -0.153  -0.000206  -0.151228  -0.160766  -0.000209  3.977086  0.0
C  C207  1  0.86902649  0.86940353  0.84249070  1  -0.152163  -0.000206  -0.151258  -0.160803  -0.000209  3.97709  0.0
C  C208  1  0.43835493  0.19912422  0.64230518  1  1.594098  -0.000378  0.183765  0.56516  -0.000464  4.268207  -0.001
C  C209  1  0.56164448  0.30087478  0.14230655  1  1.59417  -0.000378  0.183756  0.565152  -0.000464  4.268383  -0.001
C  C210  1  0.56163965  0.80087725  0.35769526  1  1.594166  -0.000377  0.183858  0.565321  -0.000464  4.268268  -0.001
C  C211  1  0.43835711  0.69912208  0.85769554  1  1.594262  -0.000378  0.183817  0.565213  -0.000464  4.268248  -0.001
C  C212  1  0.57427235  0.18728246  0.61826050  1  -0.111106  0.007135  -0.087864  -0.08525  0.004981  3.986633  0.006
C  C213  1  0.42572802  0.31271842  0.11826023  1  -0.11142  0.007135  -0.087896  -0.085336  0.004982  3.986741  0.006
C  C214  1  0.42572513  0.81271898  0.38173773  1  -0.111481  0.007133  -0.087926  -0.08543  0.00498  3.986802  0.006
C  C215  1  0.57427657  0.68727906  0.88173801  1  -0.111737  0.007135  -0.08788  -0.08532  0.004981  3.986583  0.006
C  C216  1  0.63791224  0.22679047  0.55437766  1  -0.153718  0.001151  -0.155287  -0.171465  0.000691  3.987497  0.001
C  C217  1  0.36208558  0.27321158  0.05437763  1  -0.153441  0.00115  -0.155203  -0.171197  0.00069  3.987337  0.001
C  C218  1  0.36208880  0.77320899  0.44562058  1  -0.153588  0.00115  -0.155239  -0.171381  0.00069  3.987448  0.001
C  C219  1  0.63791933  0.72678784  0.94562115  1  -0.153701  0.00115  -0.155135  -0.171139  0.000691  3.987221  0.001
C  C220  1  0.76967655  0.20461299  0.55325892  1  -0.158819  0.000213  -0.154989  -0.148343  0.000107  4.010169  0.0
C  C221  1  0.23032049  0.29539037  0.05325948  1  -0.15939  0.000213  -0.1551  -0.148543  0.000107  4.010316  0.0
C  C222  1  0.23031858  0.79538588  0.44674097  1  -0.158803  0.000213  -0.155071  -0.148471  0.000107  4.010215  0.0
C  C223  1  0.76968549  0.70460969  0.94673875  1  -0.15907  0.000213  -0.155085  -0.148508  0.000108  4.010442  0.0
C  C224  1  0.78852886  0.15105436  0.61616273  1  -0.177926  -8.5e-05  -0.157321  -0.144536  -0.000156  3.993849  0.0
C  C225  1  0.21146976  0.34894784  0.11616272  1  -0.17784  -8.5e-05  -0.157284  -0.144475  -0.000156  3.993848  0.0
C  C226  1  0.21146413  0.84894324  0.38383935  1  -0.17757  -8.5e-05  -0.157175  -0.144466  -0.000156  3.993782  0.0
C  C227  1  0.78853439  0.65105289  0.88383496  1  -0.177437  -8.5e-05  -0.157296  -0.144465  -0.000156  3.993908  0.0
C  C228  1  0.66869579  0.14056261  0.65650141  1  -0.138236  -0.000219  -0.157583  -0.174282  -0.000236  3.986496  0.0
C  C229  1  0.33130539  0.35944030  0.15650190  1  -0.138255  -0.00022  -0.157611  -0.174326  -0.000236  3.986406  0.0
C  C230  1  0.33129654  0.85943694  0.34349958  1  -0.138365  -0.000219  -0.157626  -0.17432  -0.000236  3.986449  0.0
C  C231  1  0.66869886  0.64056108  0.84349633  1  -0.137919  -0.000219  -0.157557  -0.17425  -0.000236  3.986454  0.0
N  N232  1  0.12982618  0.10574626  0.70674451  1  -1.1954  0.078385  -0.379693  -0.274518  0.051598  3.675329  0.067
N  N233  1  0.87017596  0.39425870  0.20674504  1  -1.195927  0.078384  -0.379833  -0.274692  0.051598  3.675476  0.067
N  N234  1  0.87017756  0.89425187  0.29325482  1  -1.195429  0.078382  -0.37971  -0.274567  0.051596  3.675416  0.067
N  N235  1  0.12982625  0.60574205  0.79325594  1  -1.195899  0.078388  -0.379822  -0.274689  0.0516  3.675489  0.067
N  N236  1  0.06971963  0.99133084  0.63906454  1  -1.26382  0.002104  -0.248782  0.036184  0.001005  3.798166  0.002
N  N237  1  0.93027578  0.50867126  0.13905940  1  -1.263894  0.002104  -0.24879  0.036337  0.001005  3.797892  0.002
N  N238  1  0.93028390  0.00866601  0.36093645  1  -1.26383  0.002103  -0.248781  0.036332  0.001004  3.798035  0.002
N  N239  1  0.06972536  0.49132885  0.86094048  1  -1.26389  0.002104  -0.248886  0.036155  0.001005  3.797917  0.002
N  N240  1  0.25413589  0.13851846  0.85521745  1  -1.204968  0.011251  -0.353254  -0.330166  0.007417  3.489762  0.011
N  N241  1  0.74586216  0.36148559  0.35521908  1  -1.20483  0.011259  -0.353324  -0.330389  0.007422  3.489758  0.011
N  N242  1  0.74586000  0.86147911  0.14478134  1  -1.204875  0.011259  -0.353352  -0.330259  0.007422  3.489732  0.011
N  N243  1  0.25414189  0.63851449  0.64478356  1  -1.204783  0.011257  -0.35333  -0.330393  0.00742  3.48983  0.011
N  N244  1  0.31364347  0.01615829  0.90314392  1  -1.23067  0.000258  -0.250572  0.03615  7.5e-05  3.798239  0.0
N  N245  1  0.68635317  0.48384523  0.40314654  1  -1.230709  0.000258  -0.250635  0.036246  7.5e-05  3.798002  0.0
N  N246  1  0.68635456  0.98384055  0.09685266  1  -1.230891  0.000258  -0.250544  0.036342  7.5e-05  3.798091  0.0
N  N247  1  0.31364915  0.51615617  0.59685279  1  -1.230748  0.000258  -0.250613  0.036241  7.5e-05  3.798032  0.0
N  N248  1  0.31975394  0.31771763  0.78233482  1  -1.177009  0.074613  -0.376868  -0.27245  0.049224  3.668117  0.064
N  N249  1  0.68025346  0.18229005  0.28234315  1  -1.177157  0.074617  -0.376845  -0.272374  0.049227  3.66811  0.064
N  N250  1  0.68024375  0.68228512  0.21766507  1  -1.177044  0.074612  -0.376833  -0.272285  0.049223  3.668005  0.064
N  N251  1  0.31975175  0.81771132  0.71765948  1  -1.177126  0.074614  -0.376917  -0.272519  0.049225  3.667989  0.064
N  N252  1  0.45021686  0.40547116  0.85007489  1  -1.233392  0.002236  -0.247374  0.038407  0.001074  3.787019  0.002
N  N253  1  0.54978423  0.09453414  0.35007655  1  -1.233343  0.002235  -0.2474  0.038721  0.001074  3.786605  0.002
N  N254  1  0.54977920  0.59453355  0.14992444  1  -1.233413  0.002235  -0.247359  0.038762  0.001074  3.78643  0.002
N  N255  1  0.45021584  0.90546533  0.64992279  1  -1.233297  0.002235  -0.247389  0.038688  0.001074  3.786601  0.002
O  O256  1  0.07830409  0.27839322  0.71479434  1  -1.114817  0.12652  -0.330099  -0.5395  0.079042  2.310517  0.115
O  O257  1  0.92169988  0.22161044  0.21479545  1  -1.114777  0.126507  -0.330144  -0.539562  0.079035  2.310628  0.115
O  O258  1  0.92169022  0.72160047  0.28521710  1  -1.114532  0.126515  -0.330156  -0.539634  0.079036  2.310507  0.115
O  O259  1  0.07830406  0.77838899  0.78520884  1  -1.114642  0.126516  -0.330155  -0.539586  0.079039  2.310392  0.115
O  O260  1  0.96371040  0.24118400  0.81902191  1  -1.1906  0.003099  -0.3492  -0.583165  0.000966  2.070342  0.003
O  O261  1  0.03629710  0.25881532  0.31902329  1  -1.190295  0.003103  -0.349125  -0.583089  0.000968  2.070302  0.003
O  O262  1  0.03627092  0.75880723  0.18098679  1  -1.190177  0.003102  -0.349195  -0.583345  0.000967  2.070298  0.003
O  O263  1  0.96371433  0.74118858  0.68097715  1  -1.190297  0.003101  -0.349162  -0.583198  0.000966  2.070563  0.003
O  O264  1  0.40656616  0.16847887  0.70701812  1  -1.150048  0.076765  -0.339747  -0.577502  0.048407  2.285459  0.07
O  O265  1  0.59343450  0.33152286  0.20701855  1  -1.150015  0.076759  -0.339739  -0.577504  0.048403  2.285474  0.07
O  O266  1  0.59343204  0.83152711  0.29298122  1  -1.15003  0.07677  -0.339759  -0.577593  0.04841  2.285416  0.07
O  O267  1  0.40656644  0.66847595  0.79298189  1  -1.150063  0.07676  -0.339741  -0.577551  0.048403  2.285461  0.07
O  O268  1  0.36482631  0.23573037  0.59968629  1  -1.194495  0.001522  -0.350382  -0.578921  0.000132  2.074306  0.002
O  O269  1  0.63516786  0.26426339  0.09968903  1  -1.194576  0.001523  -0.350372  -0.578923  0.000133  2.074388  0.002
O  O270  1  0.63516868  0.76427370  0.40030919  1  -1.194527  0.001521  -0.350417  -0.578941  0.000131  2.07459  0.002
O  O271  1  0.36483336  0.73572504  0.90031416  1  -1.19455  0.001522  -0.350453  -0.578954  0.000132  2.074434  0.002
