# generated using pymatgen
data_Zn2H24C35(NO4)2
_symmetry_space_group_name_H-M   'P 1'
_cell_length_a   10.96749514
_cell_length_b   11.66243575
_cell_length_c   13.22082034
_cell_angle_alpha   96.52017453
_cell_angle_beta   96.22333265
_cell_angle_gamma   104.83771808
_symmetry_Int_Tables_number   1
_chemical_formula_structural   Zn2H24C35(NO4)2
_chemical_formula_sum   'Zn2 H24 C35 N2 O8'
_cell_volume   1607.35709826
_cell_formula_units_Z   1
loop_
 _symmetry_equiv_pos_site_id
 _symmetry_equiv_pos_as_xyz
  1  'x, y, z'
loop_
 _atom_site_type_symbol
 _atom_site_label
 _atom_site_symmetry_multiplicity
 _atom_site_fract_x
 _atom_site_fract_y
 _atom_site_fract_z
 _atom_site_occupancy
 _atom_site_pbe_bader_charge
 _atom_site_pbe_bader_spin_density
 _atom_site_pbe_cm5_charge
 _atom_site_pbe_ddec_charge
 _atom_site_pbe_ddec_spin_density
 _atom_site_pbe_ddec_sum_bond_order
 _atom_site_pbe_magmom
Zn  Zn0  1  0.53784679  0.63329856  0.52470965  1  1.29182  0  0.670353  0.813079  0  2.421161  0
Zn  Zn1  1  0.46353287  0.38394258  0.50403483  1  1.283744  0  0.66617  0.818717  0  2.433952  0
H  H2  1  0.85414015  0.35738605  0.57512816  1  0.071613  0  0.102124  0.106261  0  0.997492  0
H  H3  1  0.58011419  0.20622566  0.41129920  1  0.153496  0  0.135046  0.114523  0  0.967146  0
H  H4  1  0.82823876  0.71735096  0.44698369  1  0.085797  0  0.095348  0.105187  0  1.065477  0
H  H5  1  0.95782377  0.85449953  0.34355856  1  0.064297  0  0.094406  0.091102  0  1.002219  0
H  H6  1  0.14291266  0.80284144  0.27604737  1  0.010357  0  0.096816  0.09781  0  0.998871  0
H  H7  1  0.07654427  0.34590002  0.55799642  1  0.080258  0  0.102731  0.10812  0  1.003393  0
H  H8  1  0.66494910  0.69856626  0.84920301  1  0.074355  0  0.104218  0.112473  0  0.991711  0
H  H9  1  0.27807456  0.31419521  0.99093588  1  0.03229  0  0.100051  0.099144  0  1.020082  0
H  H10  1  0.33656217  0.66849429  0.34257071  1  0.073381  0  0.087509  0.133088  0  1.032514  0
H  H11  1  0.23224124  0.52634969  0.29442536  1  0.007454  0  0.091108  0.131588  0  1.002578  0
H  H12  1  0.23242890  0.64794074  0.22532202  1  0.037893  0  0.088101  0.121762  0  0.998519  0
H  H13  1  0.69788887  0.71499324  0.04048453  1  0.049826  0  0.099508  0.100598  0  1.000044  0
H  H14  1  0.18571889  0.50716934  0.79561491  1  0.025822  0  0.087376  0.119083  0  0.995494  0
H  H15  1  0.16273536  0.43467259  0.90569042  1  0.013322  0  0.083678  0.109444  0  1.018967  0
H  H16  1  0.09072808  0.35651857  0.78137764  1  0.011106  0  0.083027  0.109785  0  1.006839  0
H  H17  1  0.30742691  0.36626045  0.73047537  1  0.075916  0  0.091039  0.095381  0  1.032314  0
H  H18  1  0.28277606  0.28804376  0.83608235  1  0.018634  0  0.088472  0.079423  0  0.99431  0
H  H19  1  0.32177667  0.32310057  0.17894423  1  0.086738  0  0.103382  0.109819  0  0.999196  0
H  H20  1  0.63308825  0.63848206  0.19848212  1  0.057199  0  0.101777  0.105227  0  1.009784  0
H  H21  1  0.41410855  0.80800480  0.60959330  1  0.142942  0  0.13588  0.113919  0  0.963388  0
H  H22  1  0.67127285  0.81609304  0.40168627  1  0.119193  0  0.129169  0.108111  0  0.988173  0
H  H23  1  0.31843514  0.98753560  0.64724440  1  0.109592  0  0.1259  0.134487  0  0.968046  0
H  H24  1  0.66815962  0.02327071  0.36758250  1  0.103113  0  0.12432  0.133062  0  0.97007  0
H  H25  1  0.31735586  0.19558220  0.61482497  1  0.128022  0  0.130807  0.107227  0  0.981474  0
C  C26  1  0.49710769  0.48912582  0.31445253  1  1.58203  0  0.214776  0.59146  0  4.170359  0
C  C27  1  0.37995665  0.38974205  0.13988725  1  -0.042612  0  -0.092056  -0.106025  0  4.015633  0
C  C28  1  0.55610842  0.56723079  0.15219271  1  -0.003812  0  -0.081044  -0.139478  0  3.934621  0
C  C29  1  0.74335244  0.52098751  0.52520082  1  1.563686  0  0.216917  0.603728  0  4.147755  0
C  C30  1  0.53816464  0.56144327  0.04381710  1  -0.053171  0  -0.008009  0.078342  0  4.025539  0
C  C31  1  0.43465680  0.46981396  0.98281035  1  -0.017823  0  -0.005276  0.025741  0  3.93993  0
C  C32  1  0.41459826  0.46372222  0.87313798  1  0.049989  0  0.003608  0.0698  0  3.862482  0
C  C33  1  0.60201644  0.63605666  0.88871257  1  -0.022619  0  -0.093101  -0.105104  0  4.032181  0
C  C34  1  0.61999341  0.64483671  0.99398506  1  -0.032879  0  -0.097745  -0.145662  0  4.0379  0
C  C35  1  0.37725280  0.03252081  0.59437447  1  -0.060606  0  -0.06381  -0.153364  0  3.94879  0
C  C36  1  0.37557445  0.14609772  0.57676425  1  0.477082  0  0.053508  0.085303  0  3.919059  0
C  C37  1  0.95463959  0.60328354  0.45530860  1  -0.025489  0  -0.003206  0.062078  0  3.941618  0
C  C38  1  0.52315165  0.15351600  0.46140127  1  0.561671  0  0.085094  0.07892  0  3.838795  0
C  C39  1  0.53191100  0.03676874  0.47385072  1  -0.002635  0  0.013951  0.054808  0  4.005384  0
C  C40  1  0.45742575  0.97532894  0.54327377  1  -0.025735  0  0.014397  0.054047  0  3.999376  0
C  C41  1  0.49821654  0.53958616  0.71328144  1  1.560681  0  0.218689  0.609573  0  4.145154  0
C  C42  1  0.46877504  0.85980648  0.55772524  1  0.557783  0  0.088398  0.088169  0  3.826303  0
C  C43  1  0.61465885  0.86647710  0.44085451  1  0.442431  0  0.050404  0.080386  0  3.924635  0
C  C44  1  0.61118516  0.97914728  0.42192028  1  0.012937  0  -0.067934  -0.158781  0  3.955338  0
C  C45  1  0.25442194  0.48738917  0.48465822  1  1.547372  0  0.213617  0.592832  0  4.173358  0
C  C46  1  0.91565458  0.70250373  0.42386872  1  0.014668  0  -0.104036  -0.149241  0  4.014277  0
C  C47  1  0.98721714  0.77729786  0.36597520  1  -0.120361  0  -0.105815  -0.093905  0  4.115967  0
C  C48  1  0.87575476  0.51806088  0.50764801  1  0.008425  0  -0.008606  -0.061991  0  3.911391  0
C  C49  1  0.09428004  0.74999485  0.33030619  1  -0.049847  0  -0.102696  -0.158307  0  4.021517  0
C  C50  1  0.13722336  0.65428765  0.35796903  1  -0.003259  0  -0.006547  0.130608  0  3.930163  0
C  C51  1  0.07389558  0.58456662  0.42961491  1  0.006086  0  -0.000414  0.003653  0  3.872569  0
C  C52  1  0.24031105  0.62279898  0.30289125  1  -0.036753  0  -0.246717  -0.412021  0  3.978483  0
C  C53  1  0.29588816  0.37721562  0.81187710  1  -0.044297  0  -0.168439  -0.158123  0  3.990163  0
C  C54  1  0.17681057  0.42119930  0.82463513  1  -0.03091  0  -0.243764  -0.348799  0  3.958098  0
C  C55  1  0.91704405  0.42303580  0.53819262  1  -0.051449  0  -0.091606  -0.104146  0  4.029996  0
C  C56  1  0.03960439  0.41418850  0.52558909  1  0.00061  0  -0.089136  -0.101607  0  4.018169  0
C  C57  1  0.11865714  0.49356797  0.47444622  1  -0.035371  0  -0.013924  -0.06728  0  3.924481  0
C  C58  1  0.50119998  0.54453615  0.82763017  1  -0.037386  0  -0.016055  -0.081888  0  3.932909  0
C  C59  1  0.47926429  0.48290489  0.20006770  1  -0.005263  0  -0.020414  -0.026636  0  3.993273  0
C  C60  1  0.35676453  0.38527106  0.03495024  1  -0.070647  0  -0.093904  -0.136411  0  4.019304  0
N  N61  1  0.54500758  0.80885305  0.50887853  1  -1.24206  0  -0.308608  -0.179104  0  3.51602  0
N  N62  1  0.44848371  0.20535944  0.51144371  1  -1.221058  0  -0.307788  -0.17644  0  3.513147  0
O  O63  1  0.54847731  0.59156367  0.36844286  1  -1.176308  0  -0.319106  -0.566576  0  2.341597  0
O  O64  1  0.45667933  0.39114203  0.34962564  1  -1.165285  0  -0.319346  -0.542702  0  2.316535  0
O  O65  1  0.72092647  0.62139912  0.55150459  1  -1.161773  0  -0.318982  -0.536219  0  2.311685  0
O  O66  1  0.66115815  0.41918304  0.51139187  1  -1.16881  0  -0.31689  -0.563556  0  2.337819  0
O  O67  1  0.52103802  0.63928123  0.67851758  1  -1.162616  0  -0.319936  -0.543667  0  2.293945  0
O  O68  1  0.47915395  0.43675617  0.65979208  1  -1.178931  0  -0.318089  -0.559724  0  2.348644  0
O  O69  1  0.34033738  0.58685577  0.49764917  1  -1.185629  0  -0.312846  -0.561436  0  2.399044  0
O  O70  1  0.27477057  0.38471500  0.48687143  1  -1.158239  0  -0.325832  -0.549673  0  2.292609  0
