# generated using pymatgen
data_CoH15C26N2(O2F3)2
_symmetry_space_group_name_H-M   'P 1'
_cell_length_a   7.10011823
_cell_length_b   14.63910073
_cell_length_c   25.12817082
_cell_angle_alpha   106.69533224
_cell_angle_beta   89.99954391
_cell_angle_gamma   89.99960962
_symmetry_Int_Tables_number   1
_chemical_formula_structural   CoH15C26N2(O2F3)2
_chemical_formula_sum   'Co4 H60 C104 N8 O16 F24'
_cell_volume   2501.70732889
_cell_formula_units_Z   4
loop_
 _symmetry_equiv_pos_site_id
 _symmetry_equiv_pos_as_xyz
  1  'x, y, z'
loop_
 _atom_site_type_symbol
 _atom_site_label
 _atom_site_symmetry_multiplicity
 _atom_site_fract_x
 _atom_site_fract_y
 _atom_site_fract_z
 _atom_site_occupancy
 _atom_site_pbe_bader_charge
 _atom_site_pbe_bader_spin_density
 _atom_site_pbe_cm5_charge
 _atom_site_pbe_ddec_charge
 _atom_site_pbe_ddec_spin_density
 _atom_site_pbe_ddec_sum_bond_order
 _atom_site_pbe_magmom
Co  Co0  1  0.62512493  0.44721931  0.48807027  1  1.198507  2.612123  0.61682  0.775297  2.828557  2.710295  2.597
Co  Co1  1  0.62573341  0.55296838  0.01197626  1  1.200186  2.612199  0.615817  0.773612  2.827643  2.707067  2.597
Co  Co2  1  0.37466324  0.55279220  0.51193657  1  1.20035  2.612326  0.615877  0.774184  2.828187  2.705541  2.597
Co  Co3  1  0.37532516  0.44739899  0.98811371  1  1.198767  2.612363  0.616315  0.775099  2.828804  2.707159  2.597
H  H4  1  0.05621202  0.55918885  0.62738648  1  0.149477  0.000476  0.10715  0.117125  0.000267  1.044218  0.0
H  H5  1  0.05645743  0.44078289  0.87260624  1  0.149139  0.000476  0.10712  0.117248  0.000267  1.043777  0.0
H  H6  1  0.94363249  0.44077540  0.37263116  1  0.149343  0.000475  0.107216  0.117449  0.000267  1.043959  0.0
H  H7  1  0.94385890  0.55915074  0.12735718  1  0.15108  0.000476  0.107263  0.117429  0.000266  1.044204  0.0
H  H8  1  0.19352478  0.64826161  0.71787468  1  0.114311  0.000135  0.103744  0.11379  5.9e-05  0.990162  0.0
H  H9  1  0.19354432  0.35166899  0.78209169  1  0.114141  0.000135  0.103671  0.113615  5.9e-05  0.990416  0.0
H  H10  1  0.80648451  0.35164399  0.28212728  1  0.071187  0.000141  0.103592  0.113404  5.9e-05  0.990582  0.0
H  H11  1  0.80653117  0.64825995  0.21783040  1  0.070158  0.000141  0.103599  0.113417  5.9e-05  0.990537  0.0
H  H12  1  0.71636222  0.83966269  0.74673050  1  0.088757  0.000123  0.088762  0.097311  6.8e-05  1.052651  0.0
H  H13  1  0.71631341  0.16037192  0.75333868  1  0.089507  0.000123  0.088922  0.097236  6.8e-05  1.052917  0.0
H  H14  1  0.28344707  0.16026706  0.25334893  1  0.089022  0.000123  0.088898  0.096993  6.8e-05  1.053184  0.0
H  H15  1  0.28347336  0.83974610  0.24666873  1  0.0889  0.000123  0.08885  0.097017  6.8e-05  1.052897  0.0
H  H16  1  0.57330870  0.74272385  0.66081122  1  0.075002  0.00023  0.099215  0.099346  0.000129  1.04297  0.0
H  H17  1  0.57339141  0.25729582  0.83923246  1  0.074861  0.00023  0.099256  0.099394  0.00013  1.042565  0.0
H  H18  1  0.42655271  0.25718355  0.33923044  1  0.074618  0.000229  0.099189  0.099413  0.000128  1.043079  0.0
H  H19  1  0.42667422  0.74284203  0.16079880  1  0.075965  0.000226  0.099273  0.099413  0.000128  1.04318  0.0
H  H20  1  0.90756916  0.66593624  0.81804466  1  0.091724  0.000114  0.104346  0.113969  4.6e-05  0.993729  0.0
H  H21  1  0.90720715  0.33397585  0.68194015  1  0.091796  0.000115  0.104333  0.113818  4.6e-05  0.993578  0.0
H  H22  1  0.09274717  0.33396906  0.18197238  1  0.091317  0.000114  0.104288  0.113725  4.6e-05  0.993629  0.0
H  H23  1  0.09246413  0.66587477  0.31797349  1  0.089519  0.000114  0.104259  0.113856  4.6e-05  0.993349  0.0
H  H24  1  0.02223579  0.57689999  0.88141978  1  0.114158  0.000422  0.108368  0.112701  0.00022  1.028411  0.0
H  H25  1  0.02174184  0.42309867  0.61859084  1  0.114182  0.000421  0.108543  0.112925  0.000219  1.02822  0.0
H  H26  1  0.97830307  0.42306156  0.11860301  1  0.11493  0.00042  0.108538  0.11292  0.000219  1.028442  0.0
H  H27  1  0.97793225  0.57685076  0.38135361  1  0.113081  0.00042  0.108474  0.11282  0.000219  1.028583  0.0
H  H28  1  0.53384407  0.74070918  0.90802403  1  0.105226  0.00041  0.107319  0.116445  0.000222  0.990831  0.0
H  H29  1  0.53347567  0.25938467  0.59194833  1  0.105819  0.000411  0.107538  0.116686  0.000223  0.990626  0.0
H  H30  1  0.46652015  0.25945183  0.09197230  1  0.105244  0.000412  0.107452  0.116603  0.000224  0.990418  0.0
H  H31  1  0.46632236  0.74060526  0.40802244  1  0.105242  0.00041  0.107283  0.116345  0.000223  0.990523  0.0
H  H32  1  0.41789546  0.83382360  0.84744339  1  0.067787  0.000128  0.091382  0.10027  6.7e-05  1.045234  0.0
H  H33  1  0.41764223  0.16620466  0.65249934  1  0.069125  0.000128  0.091381  0.100199  6.7e-05  1.045595  0.0
H  H34  1  0.58216736  0.16628088  0.15253681  1  0.068695  0.000128  0.091258  0.100161  6.7e-05  1.045766  0.0
H  H35  1  0.58212622  0.83374507  0.34743003  1  0.068321  0.000128  0.091331  0.100389  6.7e-05  1.045636  0.0
H  H36  1  0.00309188  0.34283459  0.52379264  1  0.146469  0.000307  0.135579  0.105878  -2e-05  1.037378  0.0
H  H37  1  0.00346947  0.65711316  0.97624775  1  0.146164  0.000307  0.135857  0.106131  -2e-05  1.03672  0.0
H  H38  1  0.99674418  0.65708243  0.47618606  1  0.145518  0.000307  0.135675  0.106065  -2e-05  1.03651  0.0
H  H39  1  0.99709052  0.34291778  0.02381988  1  0.173342  0.000308  0.135487  0.10608  -2e-05  1.036915  0.0
H  H40  1  0.68746897  0.26086805  0.37620192  1  0.110347  0.00054  0.113128  0.106225  0.000146  1.039553  0.001
H  H41  1  0.68767322  0.73921945  0.12380070  1  0.111374  0.000538  0.113266  0.106383  0.000145  1.039316  0.001
H  H42  1  0.31221217  0.73914343  0.62377824  1  0.112526  0.000537  0.113224  0.106352  0.000145  1.039265  0.001
H  H43  1  0.31248396  0.26089521  0.87621335  1  0.11067  0.000537  0.11311  0.106151  0.000145  1.039815  0.001
H  H44  1  0.96033728  0.12147713  0.37257955  1  0.12412  0.000456  0.111278  0.118453  0.000185  1.04273  0.0
H  H45  1  0.96060003  0.87858382  0.12743412  1  0.124105  0.000455  0.111111  0.118014  0.000184  1.043875  0.0
H  H46  1  0.03930300  0.87844804  0.62743706  1  0.125128  0.000453  0.111237  0.118179  0.000184  1.043998  0.0
H  H47  1  0.03955151  0.12157663  0.87256729  1  0.125385  0.000453  0.111317  0.118415  0.000184  1.043383  0.0
H  H48  1  0.38255567  0.19232045  0.41689220  1  0.078048  4.5e-05  0.106989  0.118096  5e-06  1.020126  0.0
H  H49  1  0.38297835  0.80771657  0.08313260  1  0.079731  4.3e-05  0.107109  0.118234  4e-06  1.020334  0.0
H  H50  1  0.61711842  0.80764026  0.58312608  1  0.078905  4.4e-05  0.107104  0.118198  5e-06  1.020239  0.0
H  H51  1  0.61747037  0.19234814  0.91687273  1  0.077597  4.5e-05  0.107014  0.11799  6e-06  1.020332  0.0
H  H52  1  0.61297487  0.08270743  0.43724100  1  0.077064  1.1e-05  0.096939  0.094623  -1e-06  1.040454  0.0
H  H53  1  0.61333036  0.91733863  0.06276518  1  0.076506  1.1e-05  0.096876  0.094575  -1e-06  1.040153  0.0
H  H54  1  0.38674711  0.91732902  0.56276940  1  0.075917  1.1e-05  0.096797  0.094601  -1e-06  1.040076  0.0
H  H55  1  0.38702823  0.08269534  0.93720661  1  0.076495  1.1e-05  0.096889  0.09463  -1e-06  1.040281  0.0
H  H56  1  0.21467206  0.01030637  0.54862886  1  0.075636  1.4e-05  0.095043  0.097109  9e-06  1.052119  0.0
H  H57  1  0.21485690  0.98968867  0.95138669  1  0.075689  1.4e-05  0.095167  0.097217  9e-06  1.051987  0.0
H  H58  1  0.78509781  0.98965963  0.45137512  1  0.076083  1.4e-05  0.095213  0.097352  9e-06  1.051644  0.0
H  H59  1  0.78531436  0.01037942  0.04863788  1  0.076221  1.4e-05  0.095181  0.097338  9e-06  1.052166  0.0
H  H60  1  0.98449256  0.11973418  0.52724092  1  0.090605  1.2e-05  0.105098  0.114109  0.0  1.003435  0.0
H  H61  1  0.98479668  0.88021180  0.97277615  1  0.088966  1.3e-05  0.105051  0.113979  0.0  1.003556  0.0
H  H62  1  0.01527167  0.88014459  0.47274086  1  0.08929  1.2e-05  0.105143  0.114211  0.0  1.002937  0.0
H  H63  1  0.01549008  0.11985960  0.02726566  1  0.089379  1.2e-05  0.105126  0.11413  0.0  1.003161  0.0
C  C64  1  0.70743954  0.58939205  0.58597475  1  1.543917  -0.010767  0.213601  0.558286  -0.014051  4.171675  -0.01
C  C65  1  0.70760962  0.41062545  0.91403921  1  1.5425  -0.010801  0.2135  0.557948  -0.014102  4.172517  -0.01
C  C66  1  0.29261059  0.41053308  0.41404066  1  1.544841  -0.010812  0.213225  0.55666  -0.014104  4.174094  -0.01
C  C67  1  0.29272784  0.58945289  0.08599654  1  1.544887  -0.010752  0.213172  0.557409  -0.014025  4.173384  -0.01
C  C68  1  0.80171857  0.64315417  0.63893966  1  -0.049894  0.01039  -0.014819  -0.023143  0.005492  3.960381  0.008
C  C69  1  0.80180774  0.35684887  0.86108133  1  -0.052866  0.010385  -0.014862  -0.023324  0.005489  3.961057  0.008
C  C70  1  0.19825833  0.35677188  0.36110894  1  -0.056557  0.010392  -0.014821  -0.022722  0.005488  3.961886  0.008
C  C71  1  0.19833395  0.64320422  0.13891459  1  -0.053325  0.010378  -0.014709  -0.022511  0.005483  3.961006  0.008
C  C72  1  0.97780997  0.61753861  0.65526450  1  -0.060935  -0.002275  -0.076997  -0.076999  -0.002741  3.936358  -0.001
C  C73  1  0.97792597  0.38245259  0.84474345  1  -0.059765  -0.002284  -0.076863  -0.076969  -0.002751  3.935073  -0.001
C  C74  1  0.02215144  0.38242298  0.34478536  1  -0.05981  -0.002287  -0.076973  -0.077245  -0.002755  3.935868  -0.001
C  C75  1  0.02225234  0.61752985  0.15521340  1  -0.062562  -0.002275  -0.076984  -0.077372  -0.002742  3.937089  -0.001
C  C76  1  0.05696087  0.66969121  0.70565201  1  -0.043378  0.001665  -0.091608  -0.132537  0.000679  3.959326  0.001
C  C77  1  0.05698038  0.33029322  0.79433796  1  -0.043441  0.001668  -0.091553  -0.132472  0.00068  3.959156  0.001
C  C78  1  0.94303715  0.33028495  0.29438583  1  0.001393  0.001665  -0.091482  -0.132466  0.000682  3.959147  0.001
C  C79  1  0.94309511  0.66966953  0.20560024  1  0.002622  0.001662  -0.091658  -0.132588  0.00068  3.959745  0.001
C  C80  1  0.96598837  0.75082216  0.73957095  1  -0.053463  -0.004224  -0.019658  0.0796  -0.004519  3.960237  -0.003
C  C81  1  0.96596768  0.24916404  0.76043384  1  -0.053946  -0.004233  -0.01965  0.08019  -0.004527  3.960093  -0.003
C  C82  1  0.03391811  0.24912984  0.26046584  1  -0.055958  -0.004241  -0.019532  0.080179  -0.004536  3.959215  -0.003
C  C83  1  0.03398809  0.75082543  0.23952054  1  -0.056066  -0.004229  -0.019491  0.080126  -0.004523  3.958884  -0.003
C  C84  1  0.79148428  0.77695885  0.72250375  1  -0.06562  0.001574  -0.105815  -0.148825  0.000635  4.00974  0.001
C  C85  1  0.79152265  0.22304908  0.77753794  1  -0.065247  0.001574  -0.106109  -0.148895  0.000635  4.01095  0.001
C  C86  1  0.20834333  0.22297308  0.27755215  1  -0.063812  0.001574  -0.105882  -0.147934  0.000635  4.010313  0.001
C  C87  1  0.20839087  0.77703751  0.22243663  1  -0.062422  0.001573  -0.105825  -0.147992  0.000635  4.010082  0.001
C  C88  1  0.71001907  0.72278217  0.67336276  1  0.03318  -0.002609  -0.087889  -0.082787  -0.002952  3.983049  -0.002
C  C89  1  0.71010184  0.27722550  0.82668147  1  0.03563  -0.002616  -0.087791  -0.082741  -0.002957  3.983902  -0.002
C  C90  1  0.28984093  0.27712628  0.32669100  1  0.037065  -0.002627  -0.088135  -0.083773  -0.002969  3.984865  -0.002
C  C91  1  0.28993985  0.72288074  0.17331095  1  0.03199  -0.002613  -0.088238  -0.083696  -0.002957  3.984105  -0.002
C  C92  1  0.22305024  0.86783458  0.76765849  1  1.718703  -0.00024  0.303862  0.678115  -0.000276  3.961409  0.0
C  C93  1  0.22294605  0.13209175  0.73228723  1  1.72061  -0.000241  0.304055  0.679151  -0.000276  3.960885  0.0
C  C94  1  0.77677878  0.13214638  0.23232200  1  1.718158  -0.000241  0.303568  0.678501  -0.000277  3.960535  0.0
C  C95  1  0.77683367  0.86781719  0.26765597  1  1.717102  -0.000241  0.30375  0.677925  -0.000277  3.961057  0.0
C  C96  1  0.06924864  0.81374902  0.79101641  1  0.04158  -7.3e-05  -0.010426  -0.270932  -0.000323  3.858751  0.0
C  C97  1  0.06906545  0.18620246  0.70896511  1  0.04101  -7.4e-05  -0.010222  -0.272173  -0.000325  3.859975  0.0
C  C98  1  0.93071981  0.18620306  0.20899770  1  0.04151  -7.3e-05  -0.010415  -0.271909  -0.000324  3.859492  0.0
C  C99  1  0.93070864  0.81373136  0.29097965  1  0.041509  -7.3e-05  -0.010214  -0.271101  -0.000324  3.859467  0.0
C  C100  1  0.93509656  0.88909184  0.82939588  1  1.714889  -0.000253  0.304962  0.675635  -0.000294  3.959925  0.0
C  C101  1  0.93484081  0.11088032  0.67060914  1  1.713373  -0.000253  0.305135  0.675811  -0.000295  3.959379  0.0
C  C102  1  0.06481837  0.11081714  0.17062572  1  1.714889  -0.000253  0.3056  0.676558  -0.000295  3.959015  0.0
C  C103  1  0.06477694  0.88907458  0.32937876  1  1.713084  -0.000253  0.304993  0.676166  -0.000295  3.959736  0.0
C  C104  1  0.15438658  0.75579444  0.82737745  1  -0.017097  -0.004449  -0.019764  0.079157  -0.004765  3.957483  -0.003
C  C105  1  0.15406270  0.24416548  0.67258968  1  -0.015738  -0.004462  -0.020121  0.078483  -0.004779  3.958171  -0.003
C  C106  1  0.84580581  0.24417850  0.17262087  1  -0.017831  -0.004454  -0.019827  0.078904  -0.00477  3.957816  -0.003
C  C107  1  0.84561561  0.75574731  0.32733860  1  -0.017636  -0.004456  -0.019802  0.079131  -0.004773  3.957735  -0.003
C  C108  1  0.04513525  0.68284813  0.83764897  1  -0.045797  0.001647  -0.091099  -0.126066  0.000655  3.971095  0.001
C  C109  1  0.04477541  0.31711255  0.66232690  1  -0.051726  0.001651  -0.090817  -0.124741  0.000657  3.969324  0.001
C  C110  1  0.95518389  0.31708951  0.16235648  1  -0.049795  0.001647  -0.090967  -0.125101  0.000655  3.970217  0.001
C  C111  1  0.95490149  0.68279256  0.33758066  1  -0.045798  0.001646  -0.091185  -0.125734  0.000654  3.971007  0.001
C  C112  1  0.11049039  0.63192133  0.87293235  1  -0.003744  -0.002538  -0.082358  -0.091542  -0.002892  3.963207  -0.001
C  C113  1  0.11011106  0.36809870  0.62707030  1  -0.000434  -0.002547  -0.082677  -0.092746  -0.002903  3.962985  -0.001
C  C114  1  0.88993017  0.36808942  0.12709824  1  -0.002285  -0.002545  -0.082517  -0.092472  -0.002901  3.963899  -0.001
C  C115  1  0.88962218  0.63182811  0.37285185  1  -0.001946  -0.002548  -0.082471  -0.092152  -0.002903  3.964179  -0.001
C  C116  1  0.28806723  0.65167117  0.89802260  1  -0.076478  0.010279  -0.015402  -0.029146  0.005472  3.970455  0.008
C  C117  1  0.28771985  0.34839395  0.60197245  1  -0.078729  0.010294  -0.015416  -0.02907  0.005479  3.970033  0.008
C  C118  1  0.71233501  0.34843311  0.10200174  1  -0.078268  0.010298  -0.015507  -0.029146  0.005479  3.970558  0.008
C  C119  1  0.71206410  0.65152412  0.39796702  1  -0.078564  0.010298  -0.015186  -0.028934  0.005478  3.969584  0.008
C  C120  1  0.39710166  0.72447497  0.88783473  1  0.026828  -0.002664  -0.080122  -0.07167  -0.003029  3.951278  -0.002
C  C121  1  0.39676911  0.27560178  0.61216310  1  0.043381  -0.002671  -0.080501  -0.072021  -0.003042  3.951039  -0.002
C  C122  1  0.60319917  0.27567626  0.11219268  1  0.043525  -0.00266  -0.080176  -0.071594  -0.003029  3.951282  -0.002
C  C123  1  0.60300357  0.72434320  0.38779974  1  0.041833  -0.002663  -0.079892  -0.071014  -0.003032  3.950186  -0.002
C  C124  1  0.33056625  0.77653135  0.85329699  1  -0.075523  0.00159  -0.09892  -0.141777  0.000642  3.988779  0.001
C  C125  1  0.33024195  0.22348817  0.64667401  1  -0.089109  0.00159  -0.098556  -0.141173  0.000643  3.98836  0.001
C  C126  1  0.66962332  0.22354384  0.14670204  1  -0.088441  0.001591  -0.098635  -0.141489  0.000643  3.988638  0.001
C  C127  1  0.66946312  0.77644440  0.35327652  1  -0.088305  0.001591  -0.098955  -0.142329  0.000644  3.988916  0.001
C  C128  1  0.36114054  0.59733869  0.93584287  1  1.52265  -0.011521  0.210238  0.548916  -0.01525  4.18638  -0.01
C  C129  1  0.36087228  0.40275968  0.56416047  1  1.524576  -0.011559  0.210856  0.549659  -0.015294  4.18715  -0.01
C  C130  1  0.63929973  0.40278737  0.06417299  1  1.524892  -0.011539  0.211304  0.550105  -0.015273  4.186705  -0.01
C  C131  1  0.63904969  0.59722078  0.43582751  1  1.525436  -0.011545  0.210736  0.549746  -0.015271  4.18693  -0.01
C  C132  1  0.95073890  0.30194308  0.48355998  1  0.971049  0.002283  0.150041  0.112747  0.001333  3.857718  0.002
C  C133  1  0.95118465  0.69807542  0.01648320  1  0.967554  0.002348  0.150295  0.112796  0.001375  3.856487  0.002
C  C134  1  0.04895068  0.69804956  0.51643192  1  0.982763  0.002281  0.150068  0.112609  0.001336  3.8566  0.002
C  C135  1  0.04933168  0.30198723  0.98357593  1  0.944555  0.002235  0.150018  0.112642  0.001301  3.857431  0.002
C  C136  1  0.79275980  0.25630774  0.40638256  1  0.41908  -0.000166  -9e-05  -0.020549  -0.000912  4.00363  0.0
C  C137  1  0.79305071  0.74379840  0.09364506  1  0.420483  -0.000162  -0.000238  -0.020648  -0.000913  4.00182  0.0
C  C138  1  0.20693260  0.74374539  0.59361456  1  0.417371  -0.000155  0.000107  -0.020132  -0.000908  4.002854  0.0
C  C139  1  0.20723323  0.25631620  0.90639286  1  0.418405  -0.000164  -0.000184  -0.020682  -0.000907  4.004336  0.0
C  C140  1  0.92596092  0.18730746  0.40383256  1  0.279126  0.002727  -0.008156  -0.120256  0.001391  3.937779  0.002
C  C141  1  0.92631417  0.81276223  0.09618339  1  0.278446  0.002745  -0.008099  -0.120117  0.0014  3.93808  0.002
C  C142  1  0.07365402  0.81268604  0.59616465  1  0.278063  0.002725  -0.008178  -0.120193  0.001389  3.939906  0.002
C  C143  1  0.07398949  0.18734628  0.90383964  1  0.277681  0.002709  -0.00824  -0.119914  0.00138  3.939421  0.002
C  C144  1  0.16765453  0.16068463  0.46955021  1  0.318908  0.00058  0.088777  0.156149  0.000332  4.015981  0.0
C  C145  1  0.16805284  0.83928744  0.03045086  1  0.327958  0.000578  0.088765  0.1561  0.000332  4.016574  0.0
C  C146  1  0.83202941  0.83920687  0.53043002  1  0.32701  0.000576  0.089201  0.156833  0.000331  4.016383  0.0
C  C147  1  0.83233813  0.16078751  0.96956525  1  0.317627  0.000578  0.088905  0.156469  0.000331  4.016014  0.0
C  C148  1  0.34562381  0.15053117  0.44492819  1  -0.011904  0.00049  -0.083589  -0.136629  0.000226  3.958418  0.0
C  C149  1  0.34602694  0.84946640  0.05507570  1  -0.01557  0.00049  -0.083425  -0.13679  0.000226  3.960257  0.0
C  C150  1  0.65407282  0.84938624  0.55506490  1  -0.014929  0.000488  -0.083601  -0.136805  0.000226  3.958975  0.0
C  C151  1  0.65438939  0.15059034  0.94492358  1  -0.012557  0.000487  -0.083686  -0.136651  0.000225  3.958445  0.0
C  C152  1  0.47563318  0.08826476  0.45717576  1  -0.029504  0.000116  -0.08686  -0.106323  5.3e-05  3.949096  0.0
C  C153  1  0.47597098  0.91175635  0.04282878  1  -0.03053  0.000117  -0.08708  -0.106405  5.3e-05  3.949902  0.0
C  C154  1  0.52412119  0.91169555  0.54282813  1  -0.029956  0.000117  -0.086917  -0.106454  5.4e-05  3.949036  0.0
C  C155  1  0.52438619  0.08829847  0.95715269  1  -0.028549  0.000118  -0.086742  -0.106432  5.4e-05  3.949063  0.0
C  C156  1  0.43215351  0.03448357  0.49397361  1  -0.030063  0.000382  -0.00773  0.060702  0.000188  3.976587  0.0
C  C157  1  0.43242675  0.96553714  0.00603454  1  -0.06985  0.000384  -0.007914  0.060445  0.000188  3.976506  0.0
C  C158  1  0.56761635  0.96550332  0.50604125  1  -0.06864  0.000383  -0.007639  0.060621  0.000188  3.976421  0.0
C  C159  1  0.56786423  0.03450791  0.99395294  1  -0.030106  0.000379  -0.007609  0.060995  0.000187  3.976306  0.0
C  C160  1  0.25394195  0.04896144  0.51936949  1  0.014363  -1.5e-05  -0.092136  -0.118853  -3.5e-05  3.989361  0.0
C  C161  1  0.25419274  0.95104263  0.98064541  1  0.016991  -1.6e-05  -0.091992  -0.118517  -3.6e-05  3.988835  0.0
C  C162  1  0.74585608  0.95100202  0.48064524  1  0.016141  -1.5e-05  -0.09234  -0.119208  -3.5e-05  3.98795  0.0
C  C163  1  0.74607148  0.04902005  0.01936318  1  -0.013702  -1.3e-05  -0.09234  -0.119504  -3.4e-05  3.989344  0.0
C  C164  1  0.12283399  0.11108427  0.50765436  1  -0.059593  0.000408  -0.08851  -0.152217  0.000193  4.001123  0.0
C  C165  1  0.12316422  0.88887826  0.99235068  1  -0.055834  0.00041  -0.088378  -0.152201  0.000194  4.001522  0.0
C  C166  1  0.87690630  0.88881030  0.49233431  1  -0.056396  0.000408  -0.088642  -0.152639  0.000193  4.000309  0.0
C  C167  1  0.87715915  0.11117885  0.00766180  1  -0.028456  0.000404  -0.088749  -0.152249  0.000192  4.000625  0.0
N  N168  1  0.80987243  0.32713794  0.45596521  1  -1.183009  0.04744  -0.336819  -0.246459  0.02705  3.472  0.036
N  N169  1  0.81022765  0.67293584  0.04407593  1  -1.179323  0.047474  -0.337051  -0.246367  0.027083  3.47322  0.036
N  N170  1  0.18985518  0.67290689  0.54403974  1  -1.180161  0.047374  -0.337098  -0.246996  0.027018  3.471841  0.036
N  N171  1  0.19019854  0.32715353  0.95597390  1  -1.183201  0.047309  -0.336551  -0.246678  0.026959  3.470349  0.036
N  N172  1  0.02591587  0.21701958  0.45330581  1  -1.236945  0.002786  -0.228663  -0.003937  0.001161  3.799118  0.002
N  N173  1  0.02632580  0.78300234  0.04672739  1  -1.246408  0.002813  -0.228574  -0.003313  0.00117  3.798928  0.002
N  N174  1  0.97376244  0.78295277  0.54669680  1  -1.259083  0.002789  -0.228728  -0.003736  0.001159  3.800191  0.002
N  N175  1  0.97408067  0.21708323  0.95331309  1  -1.238462  0.00276  -0.22872  -0.004554  0.001149  3.799968  0.002
O  O176  1  0.78634059  0.51570253  0.55397869  1  -1.120464  0.093157  -0.294765  -0.486111  0.048629  2.317911  0.08
O  O177  1  0.78683411  0.48428881  0.94595013  1  -1.121363  0.093097  -0.294312  -0.485738  0.048566  2.316904  0.08
O  O178  1  0.21341237  0.48422132  0.44593901  1  -1.12099  0.093119  -0.294337  -0.485341  0.048579  2.31726  0.08
O  O179  1  0.21374700  0.51577741  0.05400687  1  -1.121671  0.093074  -0.294552  -0.485781  0.048597  2.317497  0.08
O  O180  1  0.54754352  0.62124960  0.57606735  1  -1.142483  0.076804  -0.302091  -0.537835  0.039214  2.417422  0.072
O  O181  1  0.54769547  0.37888188  0.92403552  1  -1.140803  0.077013  -0.302241  -0.537401  0.039321  2.418745  0.072
O  O182  1  0.45255872  0.37881672  0.42402141  1  -1.142252  0.076798  -0.302258  -0.537051  0.039218  2.419597  0.072
O  O183  1  0.45268283  0.62128483  0.07611495  1  -1.141823  0.076614  -0.301903  -0.537355  0.039121  2.417377  0.072
O  O184  1  0.26722565  0.52515860  0.94004457  1  -1.125673  0.085767  -0.295451  -0.509412  0.044593  2.372281  0.076
O  O185  1  0.26678607  0.47489387  0.55997718  1  -1.128756  0.085746  -0.295606  -0.509481  0.044572  2.37221  0.076
O  O186  1  0.73339912  0.47490355  0.05997070  1  -1.127895  0.085654  -0.295674  -0.509681  0.044515  2.371987  0.076
O  O187  1  0.73295281  0.52507270  0.44007346  1  -1.128017  0.085806  -0.295656  -0.509894  0.044604  2.373399  0.076
O  O188  1  0.51317266  0.62640555  0.96209896  1  -1.125683  0.086219  -0.300363  -0.514502  0.044636  2.376416  0.078
O  O189  1  0.51294073  0.37381353  0.53790566  1  -1.124395  0.086372  -0.300728  -0.514802  0.044698  2.379806  0.078
O  O190  1  0.48720142  0.37382804  0.03792879  1  -1.125128  0.086526  -0.301002  -0.514839  0.044781  2.379003  0.078
O  O191  1  0.48700801  0.62629666  0.46207544  1  -1.124839  0.086333  -0.300679  -0.514864  0.044683  2.377808  0.078
F  F192  1  0.15304466  0.90286228  0.72725090  1  -0.617886  -5.9e-05  -0.094186  -0.203788  -5.4e-05  1.408175  0.0
F  F193  1  0.15306522  0.09706125  0.77270967  1  -0.618488  -5.9e-05  -0.093974  -0.203873  -5.4e-05  1.408146  0.0
F  F194  1  0.84660126  0.09707844  0.27273753  1  -0.618439  -5.9e-05  -0.094129  -0.203996  -5.4e-05  1.407636  0.0
F  F195  1  0.84674407  0.90291598  0.22726386  1  -0.617886  -5.9e-05  -0.094166  -0.203792  -5.4e-05  1.40805  0.0
F  F196  1  0.36683731  0.80810614  0.74423302  1  -0.629022  2e-06  -0.079046  -0.190202  -1e-06  1.380766  0.0
F  F197  1  0.36675278  0.19180812  0.75568617  1  -0.629978  2e-06  -0.079378  -0.190423  -1e-06  1.380282  0.0
F  F198  1  0.63303818  0.19192329  0.25572890  1  -0.629227  2e-06  -0.079007  -0.190239  -1e-06  1.379845  0.0
F  F199  1  0.63312694  0.80805079  0.24421963  1  -0.628654  1e-06  -0.07894  -0.190036  -1e-06  1.380294  0.0
F  F200  1  0.30165351  0.94276408  0.80694007  1  -0.623009  -4.7e-05  -0.101564  -0.210482  -4e-05  1.332092  0.0
F  F201  1  0.30151059  0.05716084  0.69299369  1  -0.622814  -4.7e-05  -0.101769  -0.21087  -4e-05  1.332198  0.0
F  F202  1  0.69819241  0.05722215  0.19302534  1  -0.622189  -4.7e-05  -0.101571  -0.2105  -4e-05  1.332212  0.0
F  F203  1  0.69816350  0.94270446  0.30696327  1  -0.622301  -4.7e-05  -0.101744  -0.210577  -4e-05  1.332194  0.0
F  F204  1  0.02014601  0.93684010  0.87796919  1  -0.628933  -2.3e-05  -0.086136  -0.20184  -1.9e-05  1.399272  0.0
F  F205  1  0.01972324  0.06311933  0.62200854  1  -0.629009  -2.3e-05  -0.085931  -0.201485  -1.9e-05  1.398698  0.0
F  F206  1  0.97972807  0.06305259  0.12205381  1  -0.628671  -2.3e-05  -0.086084  -0.201802  -1.9e-05  1.399187  0.0
F  F207  1  0.97959311  0.93679608  0.37793727  1  -0.628401  -2.3e-05  -0.085965  -0.20188  -1.9e-05  1.399432  0.0
F  F208  1  0.77963165  0.84666728  0.84347576  1  -0.623743  3e-06  -0.085114  -0.191553  8e-06  1.33876  0.0
F  F209  1  0.77935456  0.15333516  0.65657106  1  -0.623849  3e-06  -0.085343  -0.191679  8e-06  1.338371  0.0
F  F210  1  0.22029455  0.15322533  0.15654444  1  -0.625924  3e-06  -0.085471  -0.19193  8e-06  1.338348  0.0
F  F211  1  0.22024207  0.84665721  0.34346259  1  -0.624045  3e-06  -0.085341  -0.191849  8e-06  1.338434  0.0
F  F212  1  0.87419318  0.95739319  0.80609055  1  -0.61315  -4e-05  -0.096117  -0.203213  -3.7e-05  1.329449  0.0
F  F213  1  0.87401382  0.04256442  0.69391748  1  -0.613362  -4e-05  -0.096411  -0.203379  -3.7e-05  1.329672  0.0
F  F214  1  0.12567668  0.04250227  0.19393010  1  -0.611182  -4e-05  -0.096382  -0.203534  -3.7e-05  1.329393  0.0
F  F215  1  0.12568280  0.95742554  0.30610583  1  -0.610429  -4e-05  -0.096248  -0.203375  -3.7e-05  1.32919  0.0
