# generated using pymatgen
data_ZnH10C14(NO2)2
_symmetry_space_group_name_H-M   'P 1'
_cell_length_a   7.46445765
_cell_length_b   13.36141577
_cell_length_c   16.37336145
_cell_angle_alpha   113.02660785
_cell_angle_beta   89.99456739
_cell_angle_gamma   106.22147500
_symmetry_Int_Tables_number   1
_chemical_formula_structural   ZnH10C14(NO2)2
_chemical_formula_sum   'Zn4 H40 C56 N8 O16'
_cell_volume   1432.00898112
_cell_formula_units_Z   4
loop_
 _symmetry_equiv_pos_site_id
 _symmetry_equiv_pos_as_xyz
  1  'x, y, z'
loop_
 _atom_site_type_symbol
 _atom_site_label
 _atom_site_symmetry_multiplicity
 _atom_site_fract_x
 _atom_site_fract_y
 _atom_site_fract_z
 _atom_site_occupancy
 _atom_site_hle17_bader_spin_density
 _atom_site_hle17_ddec_charge
 _atom_site_hle17_ddec_spin_density
 _atom_site_hle17_ddec_sum_bond_order
 _atom_site_hle17_magmom
 _atom_site_hse06_10hf_bader_spin_density
 _atom_site_hse06_10hf_ddec_charge
 _atom_site_hse06_10hf_ddec_spin_density
 _atom_site_hse06_10hf_ddec_sum_bond_order
 _atom_site_hse06_10hf_magmom
 _atom_site_hse06_bader_spin_density
 _atom_site_hse06_ddec_charge
 _atom_site_hse06_ddec_spin_density
 _atom_site_hse06_ddec_sum_bond_order
 _atom_site_hse06_magmom
 _atom_site_pbe_bader_spin_density
 _atom_site_pbe_cm5_charge
 _atom_site_pbe_ddec_charge
 _atom_site_pbe_ddec_spin_density
 _atom_site_pbe_ddec_sum_bond_order
 _atom_site_pbe_magmom
Zn  Zn0  1  0.62203810  0.67363277  0.82317712  1  0  1.017699  0  1.798912  0  0  0.828321  0  2.266017  0  0  0.875771  0  2.211087  0  0  0.689993  0.795297  0  2.303762  0
Zn  Zn1  1  0.94806920  0.32631106  0.67676370  1  0  1.017743  0  1.798096  0  0  0.828224  0  2.265205  0  0  0.87574  0  2.210278  0  0  0.689649  0.795169  0  2.302957  0
Zn  Zn2  1  0.37796160  0.32636890  0.17682437  1  0  1.017707  0  1.798924  0  0  0.828321  0  2.266032  0  0  0.875769  0  2.211103  0  0  0.69001  0.795302  0  2.303779  0
Zn  Zn3  1  0.05192922  0.67368807  0.32323513  1  0  1.017771  0  1.79811  0  0  0.828242  0  2.265223  0  0  0.875759  0  2.210296  0  0  0.689643  0.79519  0  2.302981  0
H  H4  1  0.96207682  0.48744300  0.34977414  1  0  0.334537  0  0.893598  0  0  0.319945  0  0.950825  0  0  0.327402  0  0.944791  0  0  0.299436  0.314633  0  0.955144  0
H  H5  1  0.47437005  0.51253222  0.15013468  1  0  0.335252  0  0.892659  0  0  0.32134  0  0.948887  0  0  0.328739  0  0.942886  0  0  0.300118  0.316072  0  0.953169  0
H  H6  1  0.03792111  0.51255781  0.65022769  1  0  0.334508  0  0.893636  0  0  0.319918  0  0.950862  0  0  0.327373  0  0.944829  0  0  0.299428  0.314607  0  0.955179  0
H  H7  1  0.52563148  0.48746776  0.84986382  1  0  0.335279  0  0.892636  0  0  0.321368  0  0.948855  0  0  0.328768  0  0.942852  0  0  0.300111  0.316097  0  0.953136  0
H  H8  1  0.79697635  0.47275426  0.27345446  1  0  0.324664  0  0.900001  0  0  0.308612  0  0.962189  0  0  0.316173  0  0.956001  0  0  0.295319  0.303208  0  0.966626  0
H  H9  1  0.32401092  0.52728127  0.22647048  1  0  0.324275  0  0.899619  0  0  0.307718  0  0.962592  0  0  0.315234  0  0.956451  0  0  0.294912  0.30232  0  0.967024  0
H  H10  1  0.20302024  0.52724654  0.72654736  1  0  0.324672  0  0.900023  0  0  0.308597  0  0.962247  0  0  0.316157  0  0.956059  0  0  0.2953  0.303193  0  0.966682  0
H  H11  1  0.67598837  0.47271957  0.77352768  1  0  0.32435  0  0.899527  0  0  0.307796  0  0.962497  0  0  0.315316  0  0.956349  0  0  0.294936  0.302396  0  0.966931  0
H  H12  1  0.45197286  0.68698726  0.58427274  1  0  0.115921  0  0.941087  0  0  0.123385  0  1.004245  0  0  0.128377  0  0.999398  0  0  0.104489  0.119771  0  1.007787  0
H  H13  1  0.76470339  0.31294019  0.91566324  1  0  0.115874  0  0.940471  0  0  0.123098  0  1.003953  0  0  0.128173  0  0.999012  0  0  0.104374  0.119428  0  1.007531  0
H  H14  1  0.54803608  0.31301950  0.41573224  1  0  0.115944  0  0.941077  0  0  0.123413  0  1.004223  0  0  0.128408  0  0.999373  0  0  0.10449  0.119797  0  1.00777  0
H  H15  1  0.23529321  0.68706064  0.08433615  1  0  0.115858  0  0.940464  0  0  0.123086  0  1.003951  0  0  0.128161  0  0.99901  0  0  0.104395  0.119414  0  1.007531  0
H  H16  1  0.58052417  0.58891757  0.31309357  1  0  0.111732  0  0.964212  0  0  0.121384  0  1.029922  0  0  0.124924  0  1.027148  0  0  0.109058  0.118772  0  1.032062  0
H  H17  1  0.99133999  0.41102191  0.18681961  1  0  0.111374  0  0.965111  0  0  0.121587  0  1.030276  0  0  0.125109  0  1.027554  0  0  0.109224  0.118969  0  1.032403  0
H  H18  1  0.41947326  0.41108493  0.68691002  1  0  0.111646  0  0.964205  0  0  0.121321  0  1.029924  0  0  0.12486  0  1.027152  0  0  0.10905  0.118711  0  1.032065  0
H  H19  1  0.00866288  0.58897807  0.81317950  1  0  0.11136  0  0.965123  0  0  0.121571  0  1.030299  0  0  0.125095  0  1.027573  0  0  0.109203  0.118953  0  1.032424  0
H  H20  1  0.92020796  0.55671087  0.50792469  1  0  0.116189  0  0.949751  0  0  0.124922  0  1.013983  0  0  0.128796  0  1.0107  0  0  0.10819  0.122045  0  1.016565  0
H  H21  1  0.36320296  0.44331520  0.99196543  1  0  0.116324  0  0.950042  0  0  0.125038  0  1.014098  0  0  0.129004  0  1.010654  0  0  0.108396  0.122119  0  1.016723  0
H  H22  1  0.07979045  0.44328823  0.49207657  1  0  0.116179  0  0.949761  0  0  0.124898  0  1.014007  0  0  0.128771  0  1.010725  0  0  0.108195  0.122021  0  1.016588  0
H  H23  1  0.63679413  0.55668394  0.00803157  1  0  0.116307  0  0.950105  0  0  0.125063  0  1.014119  0  0  0.129019  0  1.01069  0  0  0.108396  0.122143  0  1.016745  0
H  H24  1  0.78607959  0.81849565  0.01834967  1  0  0.098893  0  0.944136  0  0  0.107882  0  1.003817  0  0  0.110686  0  1.001267  0  0  0.121688  0.105787  0  1.005728  0
H  H25  1  0.96758480  0.18148674  0.48164488  1  0  0.098791  0  0.94494  0  0  0.108052  0  1.004218  0  0  0.110854  0  1.00173  0  0  0.121906  0.10596  0  1.006119  0
H  H26  1  0.21392602  0.18150175  0.98164922  1  0  0.098911  0  0.944086  0  0  0.107847  0  1.003832  0  0  0.110647  0  1.001281  0  0  0.121662  0.105757  0  1.005737  0
H  H27  1  0.03241490  0.81851494  0.51835478  1  0  0.098835  0  0.944899  0  0  0.108046  0  1.004221  0  0  0.110848  0  1.001734  0  0  0.121918  0.105956  0  1.00612  0
H  H28  1  0.11308716  0.93078330  0.09747965  1  0  0.109317  0  0.926783  0  0  0.123127  0  0.977992  0  0  0.126227  0  0.977662  0  0  0.112636  0.120926  0  0.978406  0
H  H29  1  0.18224298  0.06916582  0.40255030  1  0  0.109325  0  0.926567  0  0  0.123412  0  0.977419  0  0  0.126522  0  0.977068  0  0  0.112549  0.121209  0  0.977837  0
H  H30  1  0.88691845  0.06921412  0.90251802  1  0  0.109283  0  0.926751  0  0  0.123117  0  0.97794  0  0  0.126216  0  0.97761  0  0  0.112595  0.120916  0  0.978353  0
H  H31  1  0.81775496  0.93083501  0.59744970  1  0  0.109318  0  0.92654  0  0  0.123421  0  0.977402  0  0  0.126532  0  0.977052  0  0  0.112557  0.12122  0  0.977819  0
H  H32  1  0.29150476  0.89769807  0.83909793  1  0  0.110745  0  0.932271  0  0  0.126245  0  0.980656  0  0  0.129226  0  0.980012  0  0  0.115712  0.12406  0  0.981361  0
H  H33  1  0.39322103  0.10197173  0.66089816  1  0  0.111274  0  0.932071  0  0  0.12636  0  0.980912  0  0  0.129369  0  0.980232  0  0  0.115768  0.124197  0  0.981578  0
H  H34  1  0.70849630  0.10230364  0.16089930  1  0  0.110729  0  0.932259  0  0  0.126227  0  0.980637  0  0  0.129208  0  0.979993  0  0  0.11569  0.124038  0  0.98135  0
H  H35  1  0.60678007  0.89802739  0.33910067  1  0  0.111258  0  0.932084  0  0  0.126341  0  0.980931  0  0  0.12935  0  0.980251  0  0  0.11576  0.124179  0  0.981597  0
H  H36  1  0.96366389  0.78771989  0.77285622  1  0  0.087649  0  0.962848  0  0  0.096925  0  1.021946  0  0  0.099485  0  1.019579  0  0  0.119274  0.094983  0  1.023747  0
H  H37  1  0.17551126  0.21209943  0.72714108  1  0  0.087525  0  0.96293  0  0  0.096799  0  1.021927  0  0  0.099346  0  1.019577  0  0  0.11938  0.094876  0  1.023706  0
H  H38  1  0.03633533  0.21228350  0.22714339  1  0  0.087673  0  0.962789  0  0  0.096938  0  1.021908  0  0  0.099498  0  1.019541  0  0  0.119278  0.094997  0  1.023711  0
H  H39  1  0.82448893  0.78790055  0.27285803  1  0  0.08753  0  0.962925  0  0  0.09678  0  1.021946  0  0  0.099327  0  1.019597  0  0  0.119385  0.094859  0  1.023721  0
H  H40  1  0.43736662  0.01839203  0.09319195  1  0  0.093375  0  0.936573  0  0  0.10785  0  0.990905  0  0  0.110894  0  0.988934  0  0  0.109629  0.105603  0  0.992558  0
H  H41  1  0.41856402  0.98132633  0.40680580  1  0  0.093287  0  0.936332  0  0  0.10748  0  0.991099  0  0  0.110589  0  0.98905  0  0  0.109605  0.105186  0  0.992809  0
H  H42  1  0.56263760  0.98160798  0.90680412  1  0  0.093368  0  0.936607  0  0  0.107862  0  0.990919  0  0  0.1109  0  0.988954  0  0  0.109619  0.105614  0  0.992574  0
H  H43  1  0.58143349  0.01867366  0.59319209  1  0  0.093303  0  0.936263  0  0  0.107474  0  0.991054  0  0  0.110583  0  0.989005  0  0  0.109608  0.105181  0  0.992762  0
C  C44  1  0.69011509  0.62261774  0.55519778  1  0  -0.063438  0  3.783528  0  0  -0.037617  0  4.017549  0  0  -0.046626  0  4.043015  0  0  -0.021345  -0.031796  0  4.000333  0
C  C45  1  0.06723486  0.37739232  0.94472928  1  0  -0.063205  0  3.784814  0  0  -0.037467  0  4.018079  0  0  -0.046485  0  4.043566  0  0  -0.022174  -0.031649  0  4.000867  0
C  C46  1  0.30988326  0.37738392  0.44480431  1  0  -0.063431  0  3.783563  0  0  -0.03765  0  4.01766  0  0  -0.046657  0  4.043124  0  0  -0.021394  -0.031831  0  4.000448  0
C  C47  1  0.93276362  0.62260425  0.05526872  1  0  -0.063295  0  3.784831  0  0  -0.037531  0  4.018068  0  0  -0.046543  0  4.043555  0  0  -0.022196  -0.031716  0  4.000859  0
C  C48  1  0.53897829  0.65384990  0.53351305  1  0  -0.080817  0  3.712312  0  0  -0.121721  0  3.965682  0  0  -0.119938  0  3.984872  0  0  -0.084186  -0.122633  0  3.952642  0
C  C49  1  0.88486964  0.34609477  0.96640745  1  0  -0.080877  0  3.711059  0  0  -0.120901  0  3.963853  0  0  -0.11921  0  3.983035  0  0  -0.083806  -0.121738  0  3.950793  0
C  C50  1  0.46102444  0.34615518  0.46649016  1  0  -0.080903  0  3.712347  0  0  -0.121842  0  3.965695  0  0  -0.120061  0  3.984891  0  0  -0.0842  -0.122756  0  3.952659  0
C  C51  1  0.11512878  0.65390434  0.03359199  1  0  -0.080802  0  3.711024  0  0  -0.120847  0  3.963833  0  0  -0.119153  0  3.983009  0  0  -0.083827  -0.121688  0  3.950779  0
C  C52  1  0.49736502  0.64039800  0.44581490  1  0  -0.057758  0  3.793207  0  0  -0.030881  0  4.027048  0  0  -0.039401  0  4.051377  0  0  -0.022136  -0.025403  0  4.010556  0
C  C53  1  0.85665352  0.35953630  0.05411301  1  0  -0.057961  0  3.790808  0  0  -0.031811  0  4.025551  0  0  -0.040355  0  4.049922  0  0  -0.022038  -0.026308  0  4.009025  0
C  C54  1  0.50263551  0.35960535  0.55418958  1  0  -0.057809  0  3.793274  0  0  -0.030785  0  4.026939  0  0  -0.039309  0  4.051285  0  0  -0.022089  -0.025307  0  4.010447  0
C  C55  1  0.14334490  0.64046282  0.94588582  1  0  -0.057955  0  3.790725  0  0  -0.031788  0  4.025475  0  0  -0.040331  0  4.049845  0  0  -0.022023  -0.026284  0  4.008947  0
C  C56  1  0.60734662  0.59565228  0.38058952  1  0  -0.155167  0  3.689272  0  0  -0.190226  0  3.940871  0  0  -0.190618  0  3.960121  0  0  -0.090599  -0.189503  0  3.927681  0
C  C57  1  0.01140982  0.40430000  0.11932072  1  0  -0.15459  0  3.688354  0  0  -0.189527  0  3.941347  0  0  -0.189839  0  3.960488  0  0  -0.090837  -0.188853  0  3.928241  0
C  C58  1  0.39265173  0.40434937  0.61941258  1  0  -0.154947  0  3.689309  0  0  -0.190141  0  3.940891  0  0  -0.190534  0  3.960151  0  0  -0.090548  -0.189423  0  3.927704  0
C  C59  1  0.98858909  0.59569742  0.88067756  1  0  -0.154644  0  3.688304  0  0  -0.189605  0  3.941302  0  0  -0.189918  0  3.960442  0  0  -0.090817  -0.188932  0  3.928195  0
C  C60  1  0.75860744  0.56444039  0.40204141  1  0  0.264634  0  3.789157  0  0  0.266643  0  4.034324  0  0  0.27066  0  4.057509  0  0  0.080854  0.263655  0  4.018547  0
C  C61  1  0.19388858  0.43560701  0.09788499  1  0  0.266895  0  3.786044  0  0  0.266727  0  4.034245  0  0  0.270683  0  4.0575  0  0  0.081163  0.263768  0  4.018409  0
C  C62  1  0.24139493  0.43556127  0.59796069  1  0  0.26447  0  3.789557  0  0  0.266596  0  4.034574  0  0  0.270613  0  4.057758  0  0  0.080819  0.263612  0  4.018794  0
C  C63  1  0.80610984  0.56439212  0.90211324  1  0  0.267174  0  3.785944  0  0  0.267047  0  4.034097  0  0  0.271005  0  4.05735  0  0  0.081277  0.264086  0  4.01826  0
C  C64  1  0.80072487  0.57839145  0.48947506  1  0  -0.136664  0  3.664275  0  0  -0.169855  0  3.914041  0  0  -0.170291  0  3.932436  0  0  -0.078976  -0.169263  0  3.901627  0
C  C65  1  0.22204774  0.42163091  0.01044045  1  0  -0.138527  0  3.666051  0  0  -0.17055  0  3.915831  0  0  -0.171047  0  3.934252  0  0  -0.07909  -0.169912  0  3.903394  0
C  C66  1  0.19927347  0.42161018  0.51052947  1  0  -0.136638  0  3.664514  0  0  -0.169816  0  3.914212  0  0  -0.170252  0  3.932607  0  0  -0.07899  -0.169228  0  3.901799  0
C  C67  1  0.77795027  0.57836737  0.98955689  1  0  -0.138699  0  3.666155  0  0  -0.170797  0  3.915965  0  0  -0.17129  0  3.93439  0  0  -0.079187  -0.170159  0  3.903529  0
C  C68  1  0.73074701  0.63220310  0.64814524  1  0  0.636387  0  3.930637  0  0  0.589325  0  4.222481  0  0  0.62276  0  4.21617  0  0  0.20139  0.566693  0  4.225937  0
C  C69  1  0.09820564  0.36776819  0.85177318  1  0  0.636552  0  3.931684  0  0  0.589451  0  4.223644  0  0  0.622866  0  4.217379  0  0  0.200859  0.566833  0  4.227068  0
C  C70  1  0.26925359  0.36779770  0.35185659  1  0  0.636527  0  3.930392  0  0  0.589436  0  4.222274  0  0  0.622872  0  4.21596  0  0  0.201449  0.566805  0  4.225733  0
C  C71  1  0.90178797  0.63222666  0.14822426  1  0  0.636705  0  3.931728  0  0  0.589633  0  4.223633  0  0  0.623034  0  4.217383  0  0  0.200871  0.567015  0  4.22706  0
C  C72  1  0.33420819  0.67218619  0.42200017  1  0  0.634  0  3.918708  0  0  0.583329  0  4.212417  0  0  0.616753  0  4.207046  0  0  0.195922  0.560705  0  4.215166  0
C  C73  1  0.66165105  0.32772804  0.07795356  1  0  0.632084  0  3.918796  0  0  0.581709  0  4.212535  0  0  0.615115  0  4.207172  0  0  0.195753  0.559083  0  4.215279  0
C  C74  1  0.66579101  0.32781716  0.57800370  1  0  0.6341  0  3.918631  0  0  0.583404  0  4.212307  0  0  0.61683  0  4.206942  0  0  0.195957  0.560779  0  4.215053  0
C  C75  1  0.33834822  0.67227279  0.92204583  1  0  0.632195  0  3.918796  0  0  0.581801  0  4.212551  0  0  0.615207  0  4.207187  0  0  0.195773  0.559173  0  4.215292  0
C  C76  1  0.90361663  0.84068099  0.98274569  1  0  0.13281  0  3.708449  0  0  0.098928  0  3.963858  0  0  0.106731  0  3.983049  0  0  0.051025  0.093813  0  3.951118  0
C  C77  1  0.06275134  0.15921015  0.51725182  1  0  0.132163  0  3.712378  0  0  0.097925  0  3.96764  0  0  0.105659  0  3.986932  0  0  0.050789  0.092838  0  3.954845  0
C  C78  1  0.09638855  0.15931556  0.01725292  1  0  0.132763  0  3.708477  0  0  0.098891  0  3.963887  0  0  0.106698  0  3.983074  0  0  0.051034  0.093777  0  3.951151  0
C  C79  1  0.93724837  0.84079153  0.48274784  1  0  0.132124  0  3.712358  0  0  0.097965  0  3.967592  0  0  0.1057  0  3.986884  0  0  0.050771  0.092879  0  3.9548  0
C  C80  1  0.08516258  0.90234365  0.02537912  1  0  -0.154044  0  3.688475  0  0  -0.174347  0  3.94197  0  0  -0.183444  0  3.964521  0  0  -0.075898  -0.168565  0  3.927174  0
C  C81  1  0.18253237  0.09747908  0.47463001  1  0  -0.153864  0  3.69084  0  0  -0.174104  0  3.944301  0  0  -0.18326  0  3.966896  0  0  -0.075559  -0.168282  0  3.929459  0
C  C82  1  0.91484662  0.09765291  0.97461888  1  0  -0.153936  0  3.688261  0  0  -0.174249  0  3.941732  0  0  -0.183346  0  3.964281  0  0  -0.075805  -0.168467  0  3.926939  0
C  C83  1  0.81746380  0.90252091  0.52536788  1  0  -0.153846  0  3.690911  0  0  -0.174152  0  3.944403  0  0  -0.183308  0  3.967  0  0  -0.075578  -0.168329  0  3.929561  0
C  C84  1  0.23270010  0.92585699  0.97569023  1  0  0.141769  0  3.791199  0  0  0.155257  0  4.02761  0  0  0.161341  0  4.049776  0  0  0.014496  0.151231  0  4.01272  0
C  C85  1  0.30644143  0.07391260  0.52432310  1  0  0.14192  0  3.788397  0  0  0.155078  0  4.025184  0  0  0.16126  0  4.047245  0  0  0.014682  0.150991  0  4.010361  0
C  C86  1  0.76730327  0.07414130  0.02430650  1  0  0.141904  0  3.790974  0  0  0.15536  0  4.027408  0  0  0.161446  0  4.049569  0  0  0.014543  0.151327  0  4.012531  0
C  C87  1  0.69355608  0.92608737  0.47567662  1  0  0.141946  0  3.788504  0  0  0.155128  0  4.025274  0  0  0.16131  0  4.047334  0  0  0.014701  0.151042  0  4.010452  0
C  C88  1  0.18567731  0.88513727  0.88281603  1  0  -0.143614  0  3.686286  0  0  -0.162663  0  3.932004  0  0  -0.170735  0  3.952907  0  0  -0.074223  -0.157341  0  3.917978  0
C  C89  1  0.30009420  0.11462743  0.61719567  1  0  -0.144659  0  3.685668  0  0  -0.163169  0  3.93141  0  0  -0.171319  0  3.952248  0  0  -0.074271  -0.157802  0  3.917423  0
C  C90  1  0.81432289  0.11486271  0.11718186  1  0  -0.143713  0  3.686289  0  0  -0.162743  0  3.932006  0  0  -0.170815  0  3.952908  0  0  -0.074259  -0.157415  0  3.917987  0
C  C91  1  0.69990599  0.88537254  0.38280405  1  0  -0.144641  0  3.685635  0  0  -0.163156  0  3.931375  0  0  -0.171306  0  3.952212  0  0  -0.074258  -0.157789  0  3.917389  0
C  C92  1  0.00203807  0.82428119  0.84487535  1  0  0.126741  0  3.719849  0  0  0.093685  0  3.973219  0  0  0.101473  0  3.990888  0  0  0.044724  0.08864  0  3.961215  0
C  C93  1  0.17736884  0.17555437  0.65512210  1  0  0.127676  0  3.720173  0  0  0.094737  0  3.973169  0  0  0.102546  0  3.990847  0  0  0.045227  0.089667  0  3.961169  0
C  C94  1  0.99796389  0.17571966  0.15512282  1  0  0.126755  0  3.719988  0  0  0.093675  0  3.97335  0  0  0.101463  0  3.99102  0  0  0.044706  0.088631  0  3.961345  0
C  C95  1  0.82263135  0.82444561  0.34487701  1  0  0.12771  0  3.720134  0  0  0.094785  0  3.973143  0  0  0.102593  0  3.990822  0  0  0.045231  0.089716  0  3.961146  0
C  C96  1  0.42302419  0.98853868  0.02046896  1  0  -0.075222  0  3.684338  0  0  -0.099224  0  3.939132  0  0  -0.101725  0  3.958486  0  0  -0.067774  -0.097457  0  3.925979  0
C  C97  1  0.43423846  0.01130365  0.47954574  1  0  -0.075443  0  3.679794  0  0  -0.099184  0  3.935127  0  0  -0.101752  0  3.954416  0  0  -0.068202  -0.097368  0  3.922019  0
C  C98  1  0.57697789  0.01145704  0.97952754  1  0  -0.075316  0  3.684379  0  0  -0.099322  0  3.93918  0  0  -0.101816  0  3.958538  0  0  -0.067788  -0.097551  0  3.926028  0
C  C99  1  0.56575996  0.98869548  0.52045249  1  0  -0.075423  0  3.679824  0  0  -0.099127  0  3.935136  0  0  -0.101696  0  3.954427  0  0  -0.068182  -0.097312  0  3.922028  0
N  N100  1  0.87609556  0.52789604  0.33444020  1  0  -0.672565  0  3.129047  0  0  -0.605713  0  3.36985  0  0  -0.62661  0  3.363727  0  0  -0.597574  -0.5912  0  3.374151  0
N  N101  1  0.34791225  0.47211605  0.16547182  1  0  -0.673496  0  3.126168  0  0  -0.606228  0  3.368241  0  0  -0.626962  0  3.362051  0  0  -0.59794  -0.59178  0  3.372513  0
N  N102  1  0.12390280  0.47210563  0.66556129  1  0  -0.672486  0  3.129143  0  0  -0.605667  0  3.369926  0  0  -0.626555  0  3.363791  0  0  -0.597553  -0.591158  0  3.374226  0
N  N103  1  0.65208794  0.52788393  0.83452668  1  0  -0.67368  0  3.126168  0  0  -0.606412  0  3.3682  0  0  -0.627148  0  3.362004  0  0  -0.597988  -0.591959  0  3.372467  0
N  N104  1  0.86206212  0.80145375  0.89343286  1  0  -0.353474  0  3.323324  0  0  -0.266961  0  3.60262  0  0  -0.287352  0  3.617431  0  0  -0.334282  -0.253382  0  3.592708  0
N  N105  1  0.06037556  0.19845728  0.60656474  1  0  -0.352827  0  3.323862  0  0  -0.266287  0  3.603295  0  0  -0.286704  0  3.618194  0  0  -0.334244  -0.25267  0  3.593318  0
N  N106  1  0.13794166  0.19854537  0.10656658  1  0  -0.353525  0  3.323556  0  0  -0.26692  0  3.602724  0  0  -0.287312  0  3.617539  0  0  -0.334252  -0.253342  0  3.592816  0
N  N107  1  0.93962597  0.80154269  0.39343437  1  0  -0.352973  0  3.323911  0  0  -0.266424  0  3.603307  0  0  -0.286841  0  3.618205  0  0  -0.334293  -0.252815  0  3.593343  0
O  O108  1  0.62638768  0.67931484  0.70502618  1  0  -0.658658  0  2.049486  0  0  -0.584728  0  2.319095  0  0  -0.613041  0  2.302937  0  0  -0.343736  -0.564842  0  2.329431  0
O  O109  1  0.94669732  0.32066569  0.79492464  1  0  -0.658555  0  2.051711  0  0  -0.584752  0  2.321272  0  0  -0.613078  0  2.305147  0  0  -0.343399  -0.564851  0  2.33158  0
O  O110  1  0.37361512  0.32068768  0.29497498  1  0  -0.658712  0  2.04943  0  0  -0.584769  0  2.319059  0  0  -0.613083  0  2.302901  0  0  -0.343759  -0.564884  0  2.329398  0
O  O111  1  0.05329361  0.67932916  0.20507342  1  0  -0.658608  0  2.051794  0  0  -0.584825  0  2.321363  0  0  -0.613147  0  2.305242  0  0  -0.343398  -0.564922  0  2.33167  0
O  O112  1  0.85726388  0.59662074  0.66704842  1  0  -0.628623  0  1.942691  0  0  -0.582118  0  2.16836  0  0  -0.605192  0  2.159806  0  0  -0.324144  -0.56599  0  2.173737  0
O  O113  1  0.26031237  0.40327517  0.83283187  1  0  -0.62829  0  1.940033  0  0  -0.582104  0  2.165743  0  0  -0.605176  0  2.157247  0  0  -0.323592  -0.565996  0  2.171089  0
O  O114  1  0.14273141  0.40337748  0.33295562  1  0  -0.628676  0  1.942541  0  0  -0.582172  0  2.168261  0  0  -0.605245  0  2.159704  0  0  -0.32417  -0.566044  0  2.173642  0
O  O115  1  0.73968221  0.59671628  0.16716386  1  0  -0.628337  0  1.940092  0  0  -0.582142  0  2.165755  0  0  -0.605208  0  2.157262  0  0  -0.323576  -0.566034  0  2.171105  0
O  O116  1  0.30455995  0.65729706  0.33863641  1  0  -0.66346  0  2.035154  0  0  -0.582875  0  2.295759  0  0  -0.612418  0  2.282138  0  0  -0.336279  -0.562194  0  2.304397  0
O  O117  1  0.64689236  0.34270191  0.16133905  1  0  -0.662305  0  2.034646  0  0  -0.582422  0  2.296289  0  0  -0.611938  0  2.282656  0  0  -0.336722  -0.561746  0  2.30491  0
O  O118  1  0.69543931  0.34270372  0.66136724  1  0  -0.663418  0  2.035198  0  0  -0.582849  0  2.295811  0  0  -0.612396  0  2.282193  0  0  -0.336249  -0.562169  0  2.304448  0
O  O119  1  0.35310643  0.65730063  0.83866089  1  0  -0.662378  0  2.034679  0  0  -0.582454  0  2.296285  0  0  -0.611972  0  2.282656  0  0  -0.336731  -0.561779  0  2.304903  0
O  O120  1  0.23169491  0.70998210  0.47939112  1  0  -0.614067  0  1.905767  0  0  -0.567028  0  2.12891  0  0  -0.590466  0  2.120633  0  0  -0.322916  -0.550473  0  2.133932  0
O  O121  1  0.52136992  0.28988962  0.02055417  1  0  -0.613186  0  1.90756  0  0  -0.566004  0  2.130326  0  0  -0.589469  0  2.12213  0  0  -0.322248  -0.549469  0  2.13537  0
O  O122  1  0.76830521  0.29002040  0.52061247  1  0  -0.614177  0  1.905639  0  0  -0.567144  0  2.128794  0  0  -0.590584  0  2.12052  0  0  -0.322991  -0.550588  0  2.133815  0
O  O123  1  0.47863064  0.71011378  0.97944544  1  0  -0.613235  0  1.907569  0  0  -0.566073  0  2.130385  0  0  -0.589542  0  2.122193  0  0  -0.32226  -0.549541  0  2.135428  0
