# generated using pymatgen
data_RbH7(C2O5)2
_symmetry_space_group_name_H-M   'P 1'
_cell_length_a   6.31979737
_cell_length_b   7.17288213
_cell_length_c   10.61694014
_cell_angle_alpha   94.02515047
_cell_angle_beta   100.60779694
_cell_angle_gamma   97.81486654
_symmetry_Int_Tables_number   1
_chemical_formula_structural   RbH7(C2O5)2
_chemical_formula_sum   'Rb2 H14 C8 O20'
_cell_volume   466.41369753
_cell_formula_units_Z   2
loop_
 _symmetry_equiv_pos_site_id
 _symmetry_equiv_pos_as_xyz
  1  'x, y, z'
loop_
 _atom_site_type_symbol
 _atom_site_label
 _atom_site_symmetry_multiplicity
 _atom_site_fract_x
 _atom_site_fract_y
 _atom_site_fract_z
 _atom_site_occupancy
 _atom_site_hle17_bader_spin_density
 _atom_site_hle17_ddec_charge
 _atom_site_hle17_ddec_spin_density
 _atom_site_hle17_ddec_sum_bond_order
 _atom_site_hle17_magmom
 _atom_site_hse06_10hf_bader_spin_density
 _atom_site_hse06_10hf_ddec_charge
 _atom_site_hse06_10hf_ddec_spin_density
 _atom_site_hse06_10hf_ddec_sum_bond_order
 _atom_site_hse06_10hf_magmom
 _atom_site_hse06_bader_spin_density
 _atom_site_hse06_ddec_charge
 _atom_site_hse06_ddec_spin_density
 _atom_site_hse06_ddec_sum_bond_order
 _atom_site_hse06_magmom
 _atom_site_pbe_bader_spin_density
 _atom_site_pbe_cm5_charge
 _atom_site_pbe_ddec_charge
 _atom_site_pbe_ddec_spin_density
 _atom_site_pbe_ddec_sum_bond_order
 _atom_site_pbe_magmom
Rb  Rb0  1  0.65834606  0.64757538  0.27151152  1  0  0.932463  0  0.495244  0  0  0.874146  0  0.709734  0  0  0.890468  0  0.685421  0  0  0.780625  0.862097  0  0.727064  0
Rb  Rb1  1  0.34165178  0.35242468  0.72848882  1  0  0.932462  0  0.495235  0  0  0.874135  0  0.709736  0  0  0.890456  0  0.685423  0  0  0.780625  0.862085  0  0.727067  0
H  H2  1  0.13336205  0.43345382  0.24698155  1  0  0.425817  0  0.878583  0  0  0.390726  0  0.952607  0  0  0.404659  0  0.933394  0  0  0.302301  0.381052  0  0.965937  0
H  H3  1  0.86663740  0.56654625  0.75301896  1  0  0.425833  0  0.878561  0  0  0.390743  0  0.952579  0  0  0.404676  0  0.933366  0  0  0.302311  0.38107  0  0.96591  0
H  H4  1  0.14706350  0.93536562  0.24355954  1  0  0.398986  0  0.901616  0  0  0.364255  0  0.984949  0  0  0.378896  0  0.967693  0  0  0.30132  0.354067  0  0.994985  0
H  H5  1  0.85293755  0.06463446  0.75643926  1  0  0.398966  0  0.901639  0  0  0.364209  0  0.985037  0  0  0.37885  0  0.967767  0  0  0.301316  0.354021  0  0.995072  0
H  H6  1  0.63980992  0.15100198  0.23194763  1  0  0.431962  0  0.859046  0  0  0.400379  0  0.931184  0  0  0.413669  0  0.91269  0  0  0.306853  0.391121  0  0.942236  0
H  H7  1  0.36019114  0.84899809  0.76805212  1  0  0.431926  0  0.859083  0  0  0.400314  0  0.931276  0  0  0.413603  0  0.912786  0  0  0.306845  0.391056  0  0.942324  0
H  H8  1  0.26256116  0.30462475  0.39010299  1  0  0.438674  0  0.854877  0  0  0.407314  0  0.917434  0  0  0.418811  0  0.900774  0  0  0.303963  0.399169  0  0.929236  0
H  H9  1  0.73744127  0.69537390  0.60989777  1  0  0.438671  0  0.854883  0  0  0.40732  0  0.917427  0  0  0.418816  0  0.900768  0  0  0.303968  0.399176  0  0.929228  0
H  H10  1  0.23659598  0.52181993  0.42574768  1  0  0.429392  0  0.872272  0  0  0.395269  0  0.941477  0  0  0.406779  0  0.924677  0  0  0.304357  0.387142  0  0.953331  0
H  H11  1  0.76340508  0.47818014  0.57425301  1  0  0.429396  0  0.872263  0  0  0.39527  0  0.941471  0  0  0.406782  0  0.924669  0  0  0.304354  0.387145  0  0.953325  0
H  H12  1  0.41198080  0.19678290  0.07503739  1  0  0.435638  0  0.85448  0  0  0.401731  0  0.923974  0  0  0.412646  0  0.90782  0  0  0.302707  0.393952  0  0.935468  0
H  H13  1  0.58801840  0.80321575  0.92496302  1  0  0.435626  0  0.854488  0  0  0.401718  0  0.92399  0  0  0.412635  0  0.907832  0  0  0.302705  0.39394  0  0.935481  0
H  H14  1  0.64920164  0.29115264  0.06280424  1  0  0.42938  0  0.869639  0  0  0.39404  0  0.940905  0  0  0.405049  0  0.924694  0  0  0.299221  0.386233  0  0.95239  0
H  H15  1  0.35079942  0.70884743  0.93719645  1  0  0.429356  0  0.869663  0  0  0.394005  0  0.94095  0  0  0.405014  0  0.924737  0  0  0.299194  0.386199  0  0.952432  0
C  C16  1  0.08419299  0.51356577  0.06394757  1  0  0.561501  0  3.861454  0  0  0.510942  0  4.167765  0  0  0.539898  0  4.160168  0  0  0.229819  0.491122  0  4.172776  0
C  C17  1  0.91580621  0.48643288  0.93605284  1  0  0.561529  0  3.861467  0  0  0.510965  0  4.167777  0  0  0.53992  0  4.160183  0  0  0.229826  0.491143  0  4.172791  0
C  C18  1  0.98774705  0.95335339  0.06225173  1  0  0.564137  0  3.831793  0  0  0.514553  0  4.136204  0  0  0.543979  0  4.127162  0  0  0.23513  0.494509  0  4.142025  0
C  C19  1  0.01225561  0.04664669  0.93774725  1  0  0.564108  0  3.83184  0  0  0.514536  0  4.136251  0  0  0.543968  0  4.127202  0  0  0.235127  0.494492  0  4.142072  0
C  C20  1  0.22485578  0.94058176  0.45790448  1  0  0.553232  0  3.919929  0  0  0.504402  0  4.2276  0  0  0.533277  0  4.220758  0  0  0.220207  0.484757  0  4.231876  0
C  C21  1  0.77514367  0.05941831  0.54209509  1  0  0.553375  0  3.91986  0  0  0.504512  0  4.227538  0  0  0.533387  0  4.220696  0  0  0.220242  0.484867  0  4.231815  0
C  C22  1  0.74290441  0.17518934  0.42300496  1  0  0.578457  0  3.789519  0  0  0.52982  0  4.09306  0  0  0.559344  0  4.083635  0  0  0.240229  0.509609  0  4.099247  0
C  C23  1  0.25709503  0.82481073  0.57699461  1  0  0.578532  0  3.789445  0  0  0.529828  0  4.093086  0  0  0.559352  0  4.083661  0  0  0.240227  0.509617  0  4.099274  0
O  O24  1  0.26830035  0.43238833  0.35715813  1  0  -0.811817  0  1.93813  0  0  -0.759375  0  2.114102  0  0  -0.779337  0  2.079434  0  0  -0.595625  -0.745406  0  2.138254  0
O  O25  1  0.73169885  0.56761032  0.64284228  1  0  -0.811831  0  1.938131  0  0  -0.759395  0  2.114095  0  0  -0.779357  0  2.079427  0  0  -0.595624  -0.745425  0  2.138245  0
O  O26  1  0.55873167  0.24790975  0.12549868  1  0  -0.834393  0  1.921916  0  0  -0.782009  0  2.098803  0  0  -0.800845  0  2.064642  0  0  -0.598579  -0.768747  0  2.12219  0
O  O27  1  0.44126753  0.75208890  0.87450173  1  0  -0.834344  0  1.921919  0  0  -0.781928  0  2.098833  0  0  -0.800755  0  2.064653  0  0  -0.598531  -0.768662  0  2.12222  0
O  O28  1  0.01171845  0.42730164  0.15458124  1  0  -0.557431  0  2.141789  0  0  -0.504617  0  2.368015  0  0  -0.529345  0  2.35471  0  0  -0.325772  -0.48749  0  2.376825  0
O  O29  1  0.98828236  0.57269701  0.84542029  1  0  -0.557419  0  2.141767  0  0  -0.504613  0  2.368015  0  0  -0.529343  0  2.354713  0  0  -0.325773  -0.487486  0  2.376827  0
O  O30  1  0.26553320  0.61019680  0.07274008  1  0  -0.566898  0  2.020794  0  0  -0.52185  0  2.246093  0  0  -0.542351  0  2.238078  0  0  -0.332015  -0.507601  0  2.251412  0
O  O31  1  0.73446762  0.38980185  0.92726145  1  0  -0.566907  0  2.020795  0  0  -0.521859  0  2.246084  0  0  -0.542353  0  2.238059  0  0  -0.332018  -0.507607  0  2.251406  0
O  O32  1  0.15318845  0.00841595  0.15584226  1  0  -0.514236  0  2.141357  0  0  -0.458969  0  2.360333  0  0  -0.482783  0  2.347131  0  0  -0.299887  -0.442509  0  2.36785  0
O  O33  1  0.84681421  0.99158413  0.84415672  1  0  -0.514162  0  2.141339  0  0  -0.458931  0  2.360395  0  0  -0.482746  0  2.34718  0  0  -0.299874  -0.442471  0  2.367912  0
O  O34  1  0.82373202  0.83834684  0.06528604  1  0  -0.574202  0  2.015712  0  0  -0.530116  0  2.242299  0  0  -0.550749  0  2.233894  0  0  -0.331309  -0.515819  0  2.247848  0
O  O35  1  0.17626904  0.16165324  0.93471276  1  0  -0.574173  0  2.015763  0  0  -0.530075  0  2.242332  0  0  -0.550707  0  2.233926  0  0  -0.331283  -0.515777  0  2.247881  0
O  O36  1  0.15724487  0.83983173  0.35049101  1  0  -0.587314  0  2.073287  0  0  -0.540972  0  2.307147  0  0  -0.565044  0  2.298318  0  0  -0.32275  -0.52417  0  2.312024  0
O  O37  1  0.84275296  0.16016834  0.64950839  1  0  -0.5874  0  2.073297  0  0  -0.541023  0  2.307167  0  0  -0.565098  0  2.298342  0  0  -0.32279  -0.524221  0  2.312045  0
O  O38  1  0.73222287  0.88236948  0.52288999  1  0  -0.615897  0  2.0273  0  0  -0.568264  0  2.255282  0  0  -0.591379  0  2.247342  0  0  -0.346201  -0.552188  0  2.260528  0
O  O39  1  0.26777658  0.11763059  0.47711052  1  0  -0.615867  0  2.02734  0  0  -0.568238  0  2.255312  0  0  -0.591354  0  2.247372  0  0  -0.3462  -0.552162  0  2.260557  0
O  O40  1  0.68315263  0.07122046  0.31259967  1  0  -0.547081  0  2.128947  0  0  -0.497621  0  2.352828  0  0  -0.521321  0  2.337391  0  0  -0.34861  -0.481294  0  2.361938  0
O  O41  1  0.31684843  0.92877961  0.68740008  1  0  -0.547084  0  2.128897  0  0  -0.497585  0  2.352841  0  0  -0.521287  0  2.337403  0  0  -0.348626  -0.481259  0  2.361949  0
O  O42  1  0.77253933  0.35030717  0.43631148  1  0  -0.57047  0  2.048904  0  0  -0.523846  0  2.275591  0  0  -0.544387  0  2.266291  0  0  -0.326007  -0.509671  0  2.281791  0
O  O43  1  0.22746011  0.64969290  0.56368809  1  0  -0.570492  0  2.04894  0  0  -0.523845  0  2.27565  0  0  -0.544392  0  2.266369  0  0  -0.325996  -0.509671  0  2.281854  0
