# generated using pymatgen
data_HgH2CN5
_symmetry_space_group_name_H-M   'P 1'
_cell_length_a   5.02947080
_cell_length_b   6.98102988
_cell_length_c   13.11433369
_cell_angle_alpha   89.99939752
_cell_angle_beta   90.00016958
_cell_angle_gamma   104.24204104
_symmetry_Int_Tables_number   1
_chemical_formula_structural   HgH2CN5
_chemical_formula_sum   'Hg4 H8 C4 N20'
_cell_volume   446.30380545
_cell_formula_units_Z   4
loop_
 _symmetry_equiv_pos_site_id
 _symmetry_equiv_pos_as_xyz
  1  'x, y, z'
loop_
 _atom_site_type_symbol
 _atom_site_label
 _atom_site_symmetry_multiplicity
 _atom_site_fract_x
 _atom_site_fract_y
 _atom_site_fract_z
 _atom_site_occupancy
 _atom_site_pbe_bader_spin_density
 _atom_site_pbe_cm5_charge
 _atom_site_pbe_ddec_charge
 _atom_site_pbe_ddec_spin_density
 _atom_site_pbe_ddec_sum_bond_order
 _atom_site_pbe_magmom
Hg  Hg0  1  0.47568985  0.98201182  0.09721174  1  0  0.384832  0.252421  0  2.432828  0
Hg  Hg1  1  0.52430943  0.51799237  0.59721256  1  0  0.384828  0.252428  0  2.432776  0
Hg  Hg2  1  0.52431203  0.01799100  0.90278801  1  0  0.384838  0.252447  0  2.432854  0
Hg  Hg3  1  0.47568945  0.48200750  0.40278872  1  0  0.384817  0.252445  0  2.432772  0
H  H4  1  0.63052172  0.08320277  0.35462736  1  0  0.288741  0.286026  0  1.023389  0
H  H5  1  0.36948074  0.41679962  0.85462881  1  0  0.28874  0.28603  0  1.023345  0
H  H6  1  0.36948017  0.91680005  0.64537239  1  0  0.288746  0.28604  0  1.023349  0
H  H7  1  0.63052012  0.58320024  0.14537095  1  0  0.288732  0.286035  0  1.023343  0
H  H8  1  0.90228270  0.21018467  0.42789127  1  0  0.291099  0.286944  0  1.002262  0
H  H9  1  0.09772182  0.28981629  0.92789083  1  0  0.291151  0.287021  0  1.00221  0
H  H10  1  0.09771618  0.78981520  0.57210924  1  0  0.29112  0.286962  0  1.002251  0
H  H11  1  0.90227904  0.71018357  0.07210892  1  0  0.291138  0.287016  0  1.002221  0
C  C12  1  0.95062028  0.25324123  0.27382235  1  0  0.314621  0.471106  0  4.103265  0
C  C13  1  0.04937260  0.24675832  0.77382210  1  0  0.31459  0.471001  0  4.103364  0
C  C14  1  0.04937911  0.74676011  0.72617816  1  0  0.314617  0.471091  0  4.103246  0
C  C15  1  0.95062974  0.75324006  0.22617765  1  0  0.314541  0.470992  0  4.103387  0
N  N16  1  0.79948836  0.20158451  0.36017449  1  0  -0.580974  -0.611582  0  3.369698  0
N  N17  1  0.20051269  0.29842518  0.86017870  1  0  -0.581039  -0.611635  0  3.369401  0
N  N18  1  0.20050955  0.79841832  0.63982602  1  0  -0.580999  -0.611597  0  3.369668  0
N  N19  1  0.79948765  0.70157321  0.13981953  1  0  -0.580987  -0.611637  0  3.369389  0
N  N20  1  0.86078826  0.20832418  0.17792430  1  0  -0.244034  -0.275014  0  3.372848  0
N  N21  1  0.13920893  0.29167279  0.67792695  1  0  -0.243993  -0.274937  0  3.372886  0
N  N22  1  0.13921260  0.79167569  0.82207621  1  0  -0.244032  -0.275025  0  3.372797  0
N  N23  1  0.86078994  0.70832708  0.32207204  1  0  -0.244  -0.274987  0  3.372912  0
N  N24  1  0.06934718  0.29688872  0.11484758  1  0  -0.107233  -0.100358  0  3.31515  0
N  N25  1  0.93064994  0.20310947  0.61484858  1  0  -0.107248  -0.100425  0  3.315185  0
N  N26  1  0.93064971  0.70311115  0.88515369  1  0  -0.107256  -0.100406  0  3.315121  0
N  N27  1  0.06935041  0.79688892  0.38515118  1  0  -0.107214  -0.100356  0  3.315128  0
N  N28  1  0.27701472  0.39211496  0.16918416  1  0  -0.100175  -0.080881  0  3.317256  0
N  N29  1  0.72298150  0.10788514  0.66918241  1  0  -0.100174  -0.080857  0  3.317172  0
N  N30  1  0.72298467  0.60788639  0.83081712  1  0  -0.10017  -0.08086  0  3.317259  0
N  N31  1  0.27701885  0.89211325  0.33081735  1  0  -0.100221  -0.080896  0  3.317226  0
N  N32  1  0.20940460  0.36796030  0.26955376  1  0  -0.246878  -0.228698  0  3.447717  0
N  N33  1  0.79059174  0.13203784  0.76955423  1  0  -0.246854  -0.228621  0  3.447749  0
N  N34  1  0.79059575  0.63203808  0.73044752  1  0  -0.246847  -0.228636  0  3.447597  0
N  N35  1  0.20940912  0.86796202  0.23044552  1  0  -0.246822  -0.228597  0  3.447735  0
