# generated using pymatgen
data_AgH6C8N(OF)3
_symmetry_space_group_name_H-M   'P 1'
_cell_length_a   5.63481996
_cell_length_b   11.26860703
_cell_length_c   16.75643761
_cell_angle_alpha   67.62570692
_cell_angle_beta   80.36476416
_cell_angle_gamma   75.50153022
_symmetry_Int_Tables_number   1
_chemical_formula_structural   AgH6C8N(OF)3
_chemical_formula_sum   'Ag4 H24 C32 N4 O12 F12'
_cell_volume   949.45269530
_cell_formula_units_Z   4
loop_
 _symmetry_equiv_pos_site_id
 _symmetry_equiv_pos_as_xyz
  1  'x, y, z'
loop_
 _atom_site_type_symbol
 _atom_site_label
 _atom_site_symmetry_multiplicity
 _atom_site_fract_x
 _atom_site_fract_y
 _atom_site_fract_z
 _atom_site_occupancy
 _atom_site_hle17_bader_spin_density
 _atom_site_hle17_ddec_charge
 _atom_site_hle17_ddec_spin_density
 _atom_site_hle17_ddec_sum_bond_order
 _atom_site_hle17_magmom
 _atom_site_hse06_10hf_bader_spin_density
 _atom_site_hse06_10hf_ddec_charge
 _atom_site_hse06_10hf_ddec_spin_density
 _atom_site_hse06_10hf_ddec_sum_bond_order
 _atom_site_hse06_10hf_magmom
 _atom_site_hse06_bader_spin_density
 _atom_site_hse06_ddec_charge
 _atom_site_hse06_ddec_spin_density
 _atom_site_hse06_ddec_sum_bond_order
 _atom_site_hse06_magmom
 _atom_site_pbe_bader_spin_density
 _atom_site_pbe_cm5_charge
 _atom_site_pbe_ddec_charge
 _atom_site_pbe_ddec_spin_density
 _atom_site_pbe_ddec_sum_bond_order
 _atom_site_pbe_magmom
Ag  Ag0  1  0.07358590  0.86163788  0.69784121  1  0  0.631892  0  1.371525  0  0  0.515982  0  1.808526  0  0  0.543469  0  1.761055  0  0  0.471791  0.496784  0  1.841591  0
Ag  Ag1  1  0.63245401  0.63869687  0.80260805  1  0  0.631537  0  1.374903  0  0  0.51586  0  1.81243  0  0  0.543282  0  1.764883  0  0  0.47219  0.497091  0  1.845254  0
Ag  Ag2  1  0.92636774  0.13835836  0.30217499  1  0  0.632024  0  1.371274  0  0  0.516056  0  1.808329  0  0  0.543526  0  1.760801  0  0  0.471823  0.496854  0  1.841369  0
Ag  Ag3  1  0.36755903  0.36129618  0.19738395  1  0  0.631455  0  1.375447  0  0  0.515832  0  1.81263  0  0  0.543215  0  1.765002  0  0  0.472139  0.497083  0  1.845364  0
H  H4  1  0.75001903  0.86238620  0.62451576  1  0  0.077105  0  1.027021  0  0  0.080017  0  1.113748  0  0  0.085166  0  1.107405  0  0  0.086265  0.076181  0  1.118485  0
H  H5  1  0.23619065  0.63789009  0.87567969  1  0  0.077153  0  1.026933  0  0  0.079958  0  1.113735  0  0  0.08507  0  1.10743  0  0  0.086681  0.076156  0  1.118392  0
H  H6  1  0.24997901  0.13760355  0.37549622  1  0  0.077098  0  1.027074  0  0  0.080028  0  1.113742  0  0  0.085168  0  1.107432  0  0  0.086259  0.076194  0  1.118493  0
H  H7  1  0.76380781  0.36210912  0.12430707  1  0  0.076978  0  1.026692  0  0  0.07976  0  1.113583  0  0  0.084856  0  1.107322  0  0  0.086611  0.075957  0  1.118248  0
H  H8  1  0.49362478  0.76326899  0.57444740  1  0  0.119491  0  0.96236  0  0  0.122909  0  1.031041  0  0  0.126895  0  1.027931  0  0  0.107596  0.119864  0  1.033616  0
H  H9  1  0.83090962  0.73690734  0.92610677  1  0  0.119122  0  0.962385  0  0  0.121938  0  1.031583  0  0  0.12593  0  1.028477  0  0  0.107029  0.119032  0  1.033923  0
H  H10  1  0.50634391  0.23671798  0.42557718  1  0  0.119579  0  0.96214  0  0  0.122805  0  1.031216  0  0  0.126966  0  1.027781  0  0  0.107643  0.119938  0  1.033461  0
H  H11  1  0.16909138  0.26309594  0.07387687  1  0  0.119159  0  0.962261  0  0  0.122022  0  1.031377  0  0  0.126112  0  1.028111  0  0  0.107037  0.119117  0  1.033718  0
H  H12  1  0.86285783  0.37540405  0.56774753  1  0  0.086079  0  0.932823  0  0  0.093202  0  1.000211  0  0  0.094901  0  0.997532  0  0  0.103366  0.091429  0  1.002702  0
H  H13  1  0.80668790  0.12496680  0.93172931  1  0  0.086307  0  0.933773  0  0  0.093375  0  1.001107  0  0  0.095144  0  0.998346  0  0  0.103455  0.092018  0  1.003217  0
H  H14  1  0.13713993  0.62459499  0.43225574  1  0  0.086111  0  0.932769  0  0  0.092804  0  1.000569  0  0  0.094976  0  0.99739  0  0  0.103379  0.091502  0  1.002575  0
H  H15  1  0.19333355  0.87502093  0.06828390  1  0  0.086318  0  0.933778  0  0  0.09348  0  1.000986  0  0  0.095455  0  0.997973  0  0  0.10352  0.092166  0  1.003033  0
H  H16  1  0.09888171  0.31873262  0.49654213  1  0  0.078894  0  0.923185  0  0  0.092026  0  0.984761  0  0  0.092269  0  0.984844  0  0  0.105377  0.091836  0  0.984616  0
H  H17  1  0.91425255  0.18133819  0.00323778  1  0  0.078762  0  0.923636  0  0  0.091953  0  0.984841  0  0  0.092102  0  0.985148  0  0  0.104882  0.091766  0  0.984765  0
H  H18  1  0.90107524  0.68125605  0.50345786  1  0  0.078905  0  0.923456  0  0  0.092092  0  0.984825  0  0  0.09226  0  0.985089  0  0  0.105427  0.091839  0  0.984852  0
H  H19  1  0.08575231  0.81866347  0.99676928  1  0  0.078989  0  0.923598  0  0  0.092108  0  0.984865  0  0  0.092225  0  0.985252  0  0  0.104902  0.091884  0  0.98483  0
H  H20  1  0.25344213  0.14107757  0.62404673  1  0  0.073627  0  0.942219  0  0  0.08898  0  1.006428  0  0  0.088554  0  1.007637  0  0  0.100374  0.089098  0  1.005919  0
H  H21  1  0.01863489  0.35906404  0.87590702  1  0  0.072665  0  0.941879  0  0  0.087619  0  1.006846  0  0  0.08717  0  1.007996  0  0  0.099672  0.087765  0  1.006242  0
H  H22  1  0.74654559  0.85891650  0.37595871  1  0  0.073688  0  0.942398  0  0  0.089066  0  1.006634  0  0  0.088646  0  1.007787  0  0  0.10043  0.089211  0  1.006041  0
H  H23  1  0.98137858  0.64092288  0.12408994  1  0  0.07234  0  0.942333  0  0  0.087575  0  1.006718  0  0  0.087129  0  1.007883  0  0  0.099658  0.087729  0  1.006117  0
H  H24  1  0.98345073  0.17583254  0.68973819  1  0  0.086385  0  0.911968  0  0  0.098332  0  0.975982  0  0  0.099454  0  0.974661  0  0  0.103217  0.097253  0  0.977355  0
H  H25  1  0.84851859  0.32488038  0.80999468  1  0  0.085968  0  0.913066  0  0  0.097973  0  0.976988  0  0  0.099053  0  0.975672  0  0  0.103254  0.096956  0  0.978253  0
H  H26  1  0.01656181  0.82417696  0.31026730  1  0  0.086401  0  0.912173  0  0  0.098346  0  0.976195  0  0  0.099496  0  0.974801  0  0  0.103251  0.097314  0  0.977459  0
H  H27  1  0.15149576  0.67509653  0.19000734  1  0  0.085445  0  0.914029  0  0  0.097951  0  0.977186  0  0  0.099068  0  0.97581  0  0  0.103252  0.096974  0  0.978376  0
C  C28  1  0.64110574  0.92387534  0.56974599  1  0  -0.063851  0  3.704749  0  0  -0.084842  0  3.954663  0  0  -0.08722  0  3.974427  0  0  -0.080658  -0.083249  0  3.941713  0
C  C29  1  0.13430836  0.57625482  0.93033385  1  0  -0.064912  0  3.704061  0  0  -0.085667  0  3.954135  0  0  -0.088013  0  3.973898  0  0  -0.081519  -0.084061  0  3.941121  0
C  C30  1  0.35884644  0.07611526  0.43026796  1  0  -0.063728  0  3.704608  0  0  -0.084711  0  3.954469  0  0  -0.087088  0  3.974295  0  0  -0.080504  -0.083114  0  3.941551  0
C  C31  1  0.86571114  0.42375339  0.06964817  1  0  -0.064764  0  3.704033  0  0  -0.085441  0  3.954134  0  0  -0.087808  0  3.973969  0  0  -0.081507  -0.083826  0  3.94111  0
C  C32  1  0.49578352  0.86691897  0.54142430  1  0  -0.089503  0  3.712692  0  0  -0.113477  0  3.971831  0  0  -0.113202  0  3.988495  0  0  -0.084339  -0.113799  0  3.961036  0
C  C33  1  0.90384028  0.63316543  0.95883355  1  0  -0.088055  0  3.709651  0  0  -0.11144  0  3.969359  0  0  -0.111139  0  3.985871  0  0  -0.082737  -0.111756  0  3.958505  0
C  C34  1  0.50417277  0.13307406  0.45859647  1  0  -0.089749  0  3.71239  0  0  -0.113794  0  3.971749  0  0  -0.113486  0  3.988286  0  0  -0.084439  -0.114073  0  3.960826  0
C  C35  1  0.09614834  0.36683725  0.04115893  1  0  -0.088079  0  3.709904  0  0  -0.111554  0  3.96959  0  0  -0.11128  0  3.986145  0  0  -0.082781  -0.11187  0  3.958737  0
C  C36  1  0.64765550  0.05738703  0.52902650  1  0  -0.022884  0  3.774274  0  0  -0.008319  0  4.012651  0  0  -0.011943  0  4.033867  0  0  -0.006378  -0.006055  0  3.998538  0
C  C37  1  0.23396359  0.44266015  0.97080126  1  0  -0.023606  0  3.773262  0  0  -0.009313  0  4.012233  0  0  -0.012919  0  4.03347  0  0  -0.007202  -0.00704  0  3.99809  0
C  C38  1  0.35231913  0.94259581  0.47098777  1  0  -0.022915  0  3.774768  0  0  -0.008359  0  4.013118  0  0  -0.011997  0  4.03431  0  0  -0.006324  -0.006096  0  3.998977  0
C  C39  1  0.76604391  0.55733604  0.02918727  1  0  -0.02349  0  3.773095  0  0  -0.009224  0  4.012161  0  0  -0.012813  0  4.033362  0  0  -0.007215  -0.006952  0  3.998027  0
C  C40  1  0.80045807  0.11945873  0.55776547  1  0  0.421617  0  3.766256  0  0  0.385186  0  4.035048  0  0  0.40879  0  4.041695  0  0  0.233434  0.369097  0  4.030198  0
C  C41  1  0.47760479  0.38069027  0.94202458  1  0  0.423537  0  3.763938  0  0  0.386582  0  4.033944  0  0  0.410087  0  4.040738  0  0  0.234663  0.370528  0  4.029131  0
C  C42  1  0.19952632  0.88053988  0.44224401  1  0  0.421408  0  3.766262  0  0  0.385223  0  4.034961  0  0  0.408842  0  4.041632  0  0  0.233392  0.369115  0  4.030149  0
C  C43  1  0.52240392  0.61930751  0.05796882  1  0  0.423341  0  3.764459  0  0  0.386566  0  4.03383  0  0  0.410088  0  4.040612  0  0  0.234657  0.370509  0  4.029038  0
C  C44  1  0.95748830  0.29075355  0.54983012  1  0  0.071372  0  3.490714  0  0  0.011685  0  3.758668  0  0  0.019375  0  3.763197  0  0  -0.062372  0.006498  0  3.755987  0
C  C45  1  0.79830191  0.20949455  0.94981163  1  0  0.069508  0  3.493384  0  0  0.010353  0  3.760406  0  0  0.017857  0  3.765195  0  0  -0.063059  0.005155  0  3.757308  0
C  C46  1  0.04247609  0.70924041  0.45017702  1  0  0.071156  0  3.490923  0  0  0.011459  0  3.759371  0  0  0.019295  0  3.763434  0  0  -0.062497  0.006384  0  3.75624  0
C  C47  1  0.20171282  0.79049849  0.05019446  1  0  0.068995  0  3.493845  0  0  0.009981  0  3.760693  0  0  0.017464  0  3.765406  0  0  -0.06311  0.004792  0  3.757602  0
C  C48  1  0.05217386  0.16742475  0.62634510  1  0  -0.002355  0  3.638229  0  0  -0.06068  0  3.907309  0  0  -0.056744  0  3.919942  0  0  -0.075566  -0.063349  0  3.898978  0
C  C49  1  0.84591752  0.33293705  0.87348559  1  0  0.000862  0  3.636246  0  0  -0.057501  0  3.905569  0  0  -0.053424  0  3.918068  0  0  -0.073616  -0.060098  0  3.897104  0
C  C50  1  0.94780920  0.83257138  0.37365839  1  0  -0.002671  0  3.638698  0  0  -0.061054  0  3.90804  0  0  -0.057036  0  3.920522  0  0  -0.075695  -0.063615  0  3.899486  0
C  C51  1  0.15410136  0.66705250  0.12651506  1  0  0.00029  0  3.637948  0  0  -0.05735  0  3.905442  0  0  -0.053282  0  3.918004  0  0  -0.073628  -0.059931  0  3.896973  0
C  C52  1  0.47004684  0.02944784  0.82790443  1  0  0.680638  0  3.629454  0  0  0.610175  0  3.973497  0  0  0.637391  0  3.9467  0  0  0.297685  0.590282  0  3.993559  0
C  C53  1  0.32516398  0.47055906  0.67264077  1  0  0.679998  0  3.629649  0  0  0.60745  0  3.976831  0  0  0.634809  0  3.949611  0  0  0.296549  0.587152  0  3.9979  0
C  C54  1  0.52995036  0.97054676  0.17209326  1  0  0.679887  0  3.630268  0  0  0.610012  0  3.973195  0  0  0.637545  0  3.945796  0  0  0.29763  0.590123  0  3.993272  0
C  C55  1  0.67489734  0.52947796  0.32734314  1  0  0.678566  0  3.632468  0  0  0.607131  0  3.977951  0  0  0.635628  0  3.948441  0  0  0.296805  0.587865  0  3.996935  0
C  C56  1  0.42753044  0.90929771  0.81155966  1  0  0.494163  0  4.02489  0  0  0.436804  0  4.327816  0  0  0.467878  0  4.322795  0  0  0.187296  0.415669  0  4.330877  0
C  C57  1  0.14785262  0.59141078  0.68868073  1  0  0.49521  0  4.029793  0  0  0.439271  0  4.33102  0  0  0.470206  0  4.326213  0  0  0.18985  0.417866  0  4.334472  0
C  C58  1  0.57245903  0.09070088  0.18843617  1  0  0.494318  0  4.024808  0  0  0.437014  0  4.327662  0  0  0.46817  0  4.322528  0  0  0.187296  0.415878  0  4.330731  0
C  C59  1  0.85214972  0.40860543  0.31131144  1  0  0.49383  0  4.031784  0  0  0.438364  0  4.332129  0  0  0.469677  0  4.3264  0  0  0.189855  0.417396  0  4.33458  0
N  N60  1  0.95376216  0.06397455  0.61726185  1  0  -0.445323  0  3.193851  0  0  -0.37185  0  3.496406  0  0  -0.396477  0  3.509677  0  0  -0.381051  -0.354883  0  3.486904  0
N  N61  1  0.63491780  0.43633201  0.88276257  1  0  -0.446349  0  3.194288  0  0  -0.372721  0  3.497289  0  0  -0.397396  0  3.510586  0  0  -0.382413  -0.356043  0  3.487924  0
N  N62  1  0.04620774  0.93602218  0.38274705  1  0  -0.445127  0  3.193609  0  0  -0.371861  0  3.496378  0  0  -0.396509  0  3.509656  0  0  -0.38101  -0.354889  0  3.486859  0
N  N63  1  0.36510820  0.56366093  0.11723092  1  0  -0.447161  0  3.195522  0  0  -0.372851  0  3.49711  0  0  -0.397509  0  3.510404  0  0  -0.382378  -0.356171  0  3.487779  0
O  O64  1  0.21204656  0.89345578  0.82089513  1  0  -0.550616  0  2.042247  0  0  -0.510668  0  2.300308  0  0  -0.533043  0  2.288353  0  0  -0.313767  -0.495122  0  2.30815  0
O  O65  1  0.92564021  0.60805093  0.67924265  1  0  -0.551297  0  2.044985  0  0  -0.511595  0  2.302449  0  0  -0.533884  0  2.29048  0  0  -0.314576  -0.496133  0  2.310625  0
O  O66  1  0.78793040  0.10656358  0.17909356  1  0  -0.550708  0  2.042673  0  0  -0.510635  0  2.300454  0  0  -0.533008  0  2.288331  0  0  -0.313657  -0.495084  0  2.308297  0
O  O67  1  0.07436677  0.39193490  0.32075600  1  0  -0.551147  0  2.045406  0  0  -0.511719  0  2.302977  0  0  -0.533664  0  2.290467  0  0  -0.314548  -0.495927  0  2.310576  0
O  O68  1  0.62634864  0.84156880  0.78934273  1  0  -0.612377  0  2.211112  0  0  -0.545768  0  2.507817  0  0  -0.575317  0  2.493781  0  0  -0.329779  -0.525126  0  2.516694  0
O  O69  1  0.25797823  0.65876881  0.71074447  1  0  -0.613034  0  2.211662  0  0  -0.546716  0  2.507346  0  0  -0.576166  0  2.49332  0  0  -0.331687  -0.526019  0  2.516689  0
O  O70  1  0.37362478  0.15842139  0.21066313  1  0  -0.612485  0  2.210673  0  0  -0.545996  0  2.507447  0  0  -0.575526  0  2.493273  0  0  -0.329879  -0.525367  0  2.516371  0
O  O71  1  0.74198846  0.34125123  0.28924852  1  0  -0.613402  0  2.212722  0  0  -0.546857  0  2.507665  0  0  -0.576094  0  2.493213  0  0  -0.331754  -0.525947  0  2.516532  0
O  O72  1  0.77532521  0.25093849  0.51724007  1  0  -0.290346  0  2.206173  0  0  -0.219607  0  2.437551  0  0  -0.239313  0  2.43692  0  0  -0.165516  -0.205695  0  2.437334  0
O  O73  1  0.54363086  0.24914267  0.98227382  1  0  -0.290576  0  2.205659  0  0  -0.219748  0  2.437057  0  0  -0.239574  0  2.436562  0  0  -0.165537  -0.205919  0  2.436905  0
O  O74  1  0.22463866  0.74906299  0.48277011  1  0  -0.290006  0  2.206105  0  0  -0.219356  0  2.437419  0  0  -0.239331  0  2.436995  0  0  -0.165441  -0.205643  0  2.43738  0
O  O75  1  0.45637826  0.75085640  0.01772891  1  0  -0.290479  0  2.205898  0  0  -0.219656  0  2.43718  0  0  -0.2396  0  2.436873  0  0  -0.165547  -0.205818  0  2.437018  0
F  F76  1  0.56624812  0.11404008  0.75402456  1  0  -0.251177  0  1.179305  0  0  -0.210394  0  1.343364  0  0  -0.219619  0  1.327307  0  0  -0.103232  -0.203819  0  1.354816  0
F  F77  1  0.43183059  0.38584948  0.74658308  1  0  -0.251133  0  1.179897  0  0  -0.20974  0  1.344922  0  0  -0.219024  0  1.328761  0  0  -0.102783  -0.20341  0  1.35653  0
F  F78  1  0.43376838  0.88595007  0.24596755  1  0  -0.251777  0  1.179971  0  0  -0.210284  0  1.343379  0  0  -0.219403  0  1.327047  0  0  -0.103145  -0.203664  0  1.354748  0
F  F79  1  0.56802421  0.61413615  0.25343378  1  0  -0.241483  0  1.169598  0  0  -0.210387  0  1.345342  0  0  -0.219057  0  1.328693  0  0  -0.102765  -0.20341  0  1.356495  0
F  F80  1  0.25854228  0.09946012  0.85410614  1  0  -0.250498  0  1.176439  0  0  -0.207602  0  1.340597  0  0  -0.21853  0  1.325686  0  0  -0.100174  -0.199023  0  1.350196  0
F  F81  1  0.20794867  0.40104432  0.64665422  1  0  -0.250229  0  1.173764  0  0  -0.206949  0  1.338753  0  0  -0.217673  0  1.3236  0  0  -0.099596  -0.198736  0  1.34879  0
F  F82  1  0.74147232  0.90053870  0.14588618  1  0  -0.250419  0  1.176825  0  0  -0.20759  0  1.340456  0  0  -0.218485  0  1.32534  0  0  -0.10019  -0.199039  0  1.350062  0
F  F83  1  0.79222932  0.59905045  0.35323323  1  0  -0.251595  0  1.174578  0  0  -0.20608  0  1.337347  0  0  -0.217734  0  1.323337  0  0  -0.099689  -0.198877  0  1.348662  0
F  F84  1  0.63028303  0.99204737  0.88978832  1  0  -0.242058  0  1.177078  0  0  -0.201745  0  1.34053  0  0  -0.212074  0  1.324897  0  0  -0.093571  -0.194355  0  1.35151  0
F  F85  1  0.51009140  0.50688918  0.61072910  1  0  -0.2417  0  1.17736  0  0  -0.201767  0  1.342085  0  0  -0.212128  0  1.326361  0  0  -0.093507  -0.191752  0  1.350099  0
F  F86  1  0.36972542  0.00794561  0.11020467  1  0  -0.241889  0  1.177109  0  0  -0.201769  0  1.340428  0  0  -0.212433  0  1.324792  0  0  -0.093575  -0.194369  0  1.351409  0
F  F87  1  0.49010475  0.49315957  0.38933571  1  0  -0.243222  0  1.177869  0  0  -0.198669  0  1.337539  0  0  -0.212695  0  1.326016  0  0  -0.09368  -0.192173  0  1.349696  0
