# generated using pymatgen
data_FeH24C27S2(N3O2)2
_symmetry_space_group_name_H-M   'P 1'
_cell_length_a   8.90883592
_cell_length_b   12.37524591
_cell_length_c   24.21244643
_cell_angle_alpha   89.99985857
_cell_angle_beta   89.99995553
_cell_angle_gamma   111.09184667
_symmetry_Int_Tables_number   1
_chemical_formula_structural   FeH24C27S2(N3O2)2
_chemical_formula_sum   'Fe2 H48 C54 S4 N12 O8'
_cell_volume   2490.56182764
_cell_formula_units_Z   2
loop_
 _symmetry_equiv_pos_site_id
 _symmetry_equiv_pos_as_xyz
  1  'x, y, z'
loop_
 _atom_site_type_symbol
 _atom_site_label
 _atom_site_symmetry_multiplicity
 _atom_site_fract_x
 _atom_site_fract_y
 _atom_site_fract_z
 _atom_site_occupancy
 _atom_site_pbe_bader_charge
 _atom_site_pbe_bader_spin_density
 _atom_site_pbe_cm5_charge
 _atom_site_pbe_ddec_charge
 _atom_site_pbe_ddec_spin_density
 _atom_site_pbe_ddec_sum_bond_order
 _atom_site_pbe_magmom
Fe  Fe0  1  0.50000011  0.50000079  0.50000031  1  1.365597  3.591906  0.724906  0.684564  3.898903  2.890104  3.566
Fe  Fe1  1  0.00000450  0.50000209  0.99999983  1  1.366007  3.592002  0.724824  0.682779  3.899281  2.893363  3.566
H  H2  1  0.85249802  0.59064008  0.54573783  1  0.106894  0.00156  0.111742  0.081704  0.000315  1.030666  0.001
H  H3  1  0.02480002  0.73291040  0.61290456  1  0.116185  0.001121  0.105436  0.127616  0.000528  1.010776  0.0
H  H4  1  0.59900593  0.79897566  0.66374894  1  0.07248  0.000904  0.106463  0.1216  0.000429  1.017139  0.0
H  H5  1  0.44749363  0.65645748  0.59315767  1  0.062599  0.001429  0.116304  0.087423  0.000185  1.002993  0.001
H  H6  1  0.81594805  0.97691982  0.68707936  1  0.064391  -0.000166  0.109123  0.081826  -0.000118  0.976069  0.0
H  H7  1  0.76310901  0.86704846  0.73995514  1  0.07484  -0.000118  0.107133  0.077367  -8e-05  0.984142  0.0
H  H8  1  0.14751387  0.40936035  0.54573805  1  0.113215  0.00156  0.111754  0.081715  0.000316  1.03067  0.001
H  H9  1  0.97520773  0.26708875  0.61290389  1  0.116284  0.001121  0.105461  0.12766  0.000528  1.010766  0.0
H  H10  1  0.40100104  0.20102664  0.66374852  1  0.072463  0.000904  0.106459  0.121626  0.000429  1.017156  0.0
H  H11  1  0.55251750  0.34354612  0.59315868  1  0.062462  0.001429  0.116333  0.08747  0.000185  1.002843  0.001
H  H12  1  0.18405413  0.02307974  0.68708047  1  0.064404  -0.000166  0.10909  0.081799  -0.000118  0.97613  0.0
H  H13  1  0.23689109  0.13295164  0.73995609  1  0.074826  -0.000118  0.107144  0.077386  -8e-05  0.984163  0.0
H  H14  1  0.73819888  0.59077062  0.95430788  1  0.116629  0.001564  0.111596  0.081698  0.000316  1.030682  0.001
H  H15  1  0.70839959  0.73317285  0.88713284  1  0.107233  0.001126  0.10579  0.127845  0.000528  1.009899  0.0
H  H16  1  0.20003566  0.79870195  0.83622021  1  0.063665  0.000911  0.106246  0.120627  0.00043  1.017551  0.0
H  H17  1  0.20886243  0.65607952  0.90682035  1  0.088441  0.001443  0.116217  0.087934  0.000185  1.002645  0.001
H  H18  1  0.16115342  0.97708221  0.81293415  1  0.079407  -0.000167  0.109262  0.082433  -0.000119  0.976389  0.0
H  H19  1  0.10419574  0.86715848  0.76008124  1  0.06088  -0.000117  0.107072  0.077753  -8e-05  0.984378  0.0
H  H20  1  0.26180098  0.40922989  0.95430476  1  0.122854  0.001563  0.111586  0.081667  0.000316  1.030654  0.001
H  H21  1  0.29159776  0.26682461  0.88713071  1  0.107176  0.001126  0.105786  0.127859  0.000528  1.009853  0.0
H  H22  1  0.79996144  0.20129929  0.83621802  1  0.063742  0.000911  0.106231  0.120599  0.00043  1.017559  0.0
H  H23  1  0.79113699  0.34392215  0.90681799  1  0.088422  0.001443  0.116229  0.087919  0.000185  1.002652  0.001
H  H24  1  0.83884362  0.02291657  0.81293341  1  0.079377  -0.000167  0.109263  0.082221  -0.000119  0.976292  0.0
H  H25  1  0.89580226  0.13283977  0.76007994  1  0.06078  -0.000117  0.10707  0.07773  -8e-05  0.984356  0.0
H  H26  1  0.14750806  0.40935977  0.45426319  1  0.107033  0.00156  0.111759  0.081726  0.000315  1.03066  0.001
H  H27  1  0.97520157  0.26708945  0.38709729  1  0.116203  0.001121  0.105428  0.127587  0.000528  1.010821  0.0
H  H28  1  0.40099142  0.20102246  0.33625126  1  0.072442  0.000904  0.106464  0.12158  0.000429  1.017166  0.0
H  H29  1  0.55251158  0.34354063  0.40684087  1  0.062533  0.001429  0.116319  0.087505  0.000185  1.002802  0.001
H  H30  1  0.18404931  0.02307830  0.31292084  1  0.064607  -0.000166  0.109093  0.081807  -0.000118  0.976067  0.0
H  H31  1  0.23688835  0.13294965  0.26004548  1  0.074881  -0.000118  0.107133  0.077397  -8e-05  0.984133  0.0
H  H32  1  0.85248971  0.59064123  0.45426215  1  0.113278  0.00156  0.111739  0.081682  0.000316  1.030689  0.001
H  H33  1  0.02479119  0.73291023  0.38709466  1  0.116293  0.001121  0.105467  0.127677  0.000528  1.010736  0.0
H  H34  1  0.59899606  0.79897320  0.33625209  1  0.072447  0.000904  0.106439  0.121585  0.000429  1.017193  0.0
H  H35  1  0.44748073  0.65645372  0.40684234  1  0.062436  0.001429  0.116335  0.087493  0.000185  1.002815  0.001
H  H36  1  0.81594228  0.97692097  0.31292014  1  0.064361  -0.000166  0.109075  0.081708  -0.000118  0.976097  0.0
H  H37  1  0.76310550  0.86705167  0.26004452  1  0.074792  -0.000118  0.107127  0.077344  -8e-05  0.984156  0.0
H  H38  1  0.26180358  0.40923096  0.04569273  1  0.116621  0.001564  0.111624  0.081735  0.000316  1.030681  0.001
H  H39  1  0.29159777  0.26682527  0.11286736  1  0.107222  0.001126  0.105793  0.12784  0.000528  1.009883  0.0
H  H40  1  0.79996411  0.20129877  0.16377957  1  0.063665  0.000911  0.106237  0.120614  0.00043  1.017583  0.0
H  H41  1  0.79113684  0.34392466  0.09318108  1  0.088403  0.001443  0.116223  0.08794  0.000185  1.002607  0.001
H  H42  1  0.83884567  0.02291937  0.18706605  1  0.079417  -0.000167  0.109258  0.082236  -0.000119  0.976296  0.0
H  H43  1  0.89580404  0.13284224  0.23991978  1  0.060856  -0.000117  0.107056  0.077742  -8e-05  0.984369  0.0
H  H44  1  0.73820043  0.59076736  0.04569420  1  0.122809  0.001563  0.111606  0.081686  0.000316  1.030662  0.001
H  H45  1  0.70839855  0.73316917  0.11286866  1  0.107205  0.001126  0.105779  0.127821  0.000529  1.00992  0.0
H  H46  1  0.20003385  0.79870142  0.16378176  1  0.063767  0.000911  0.106214  0.12061  0.00043  1.017576  0.0
H  H47  1  0.20886521  0.65608116  0.09318180  1  0.088184  0.001443  0.116227  0.087907  0.000185  1.002616  0.001
H  H48  1  0.16114864  0.97707808  0.18706679  1  0.079488  -0.000167  0.109283  0.082452  -0.000119  0.976328  0.0
H  H49  1  0.10419242  0.86715748  0.23992026  1  0.060872  -0.000117  0.107049  0.07773  -8e-05  0.984392  0.0
C  C50  1  0.80075701  0.63875275  0.57255583  1  0.466493  -0.008392  0.041651  0.108576  -0.008821  3.963779  -0.005
C  C51  1  0.89649732  0.71696210  0.61055276  1  0.016711  0.005813  -0.10227  -0.246385  0.002244  3.973605  0.004
C  C52  1  0.82603099  0.77743462  0.64432833  1  0.452866  -0.012933  0.094942  0.295489  -0.013627  4.068656  -0.009
C  C53  1  0.66121655  0.75529103  0.63868458  1  -0.064079  0.005407  -0.112492  -0.282219  0.001844  4.006126  0.004
C  C54  1  0.57560469  0.67505035  0.59914919  1  0.58494  -0.010466  0.046014  0.120863  -0.011109  3.964075  -0.006
C  C55  1  0.86117701  0.92330311  0.71376649  1  0.405395  0.000104  -0.060099  -0.027991  -6.1e-05  3.856348  0.0
C  C56  1  0.19925137  0.36124751  0.57255610  1  0.466425  -0.008386  0.041632  0.108609  -0.008815  3.96386  -0.005
C  C57  1  0.10351130  0.28303880  0.61055273  1  0.016774  0.005811  -0.102293  -0.246444  0.002243  3.973732  0.004
C  C58  1  0.17398013  0.22256693  0.64432795  1  0.452343  -0.012927  0.094891  0.295414  -0.013621  4.068812  -0.009
C  C59  1  0.33879168  0.24471143  0.63868495  1  -0.063544  0.005406  -0.112436  -0.282222  0.001844  4.006142  0.004
C  C60  1  0.42440555  0.32495148  0.59914902  1  0.584821  -0.010461  0.046083  0.121013  -0.011105  3.963913  -0.006
C  C61  1  0.13882728  0.07669628  0.71376630  1  0.405709  0.000104  -0.060108  -0.028061  -6.1e-05  3.8565  0.0
C  C62  1  0.83806615  0.63879638  0.92748527  1  0.445992  -0.008361  0.041842  0.108584  -0.008837  3.963763  -0.005
C  C63  1  0.82064110  0.71705458  0.88948451  1  0.032458  0.005826  -0.102825  -0.246519  0.00225  3.973052  0.004
C  C64  1  0.95157015  0.77739189  0.85568325  1  0.469974  -0.01295  0.095074  0.29386  -0.013659  4.068564  -0.009
C  C65  1  0.09413252  0.75504934  0.86128629  1  -0.072776  0.005401  -0.111726  -0.278699  0.001851  4.005634  0.004
C  C66  1  0.09942415  0.67477609  0.90082592  1  0.555824  -0.010488  0.045346  0.118209  -0.011121  3.965568  -0.006
C  C67  1  0.06231467  0.92339228  0.78626857  1  0.40298  0.000104  -0.060102  -0.02993  -6.1e-05  3.857257  0.0
C  C68  1  0.16193272  0.36120430  0.92748265  1  0.446044  -0.008363  0.041868  0.108581  -0.008838  3.963848  -0.005
C  C69  1  0.17935581  0.28294199  0.88948323  1  0.032443  0.005826  -0.102889  -0.24664  0.00225  3.973104  0.004
C  C70  1  0.04842936  0.22260750  0.85568125  1  0.470087  -0.012951  0.095103  0.293972  -0.01366  4.068546  -0.009
C  C71  1  0.90586376  0.24495261  0.86128443  1  -0.072994  0.005401  -0.111698  -0.278702  0.001851  4.005601  0.004
C  C72  1  0.90057530  0.32522561  0.90082437  1  0.555846  -0.010487  0.045345  0.118189  -0.01112  3.965573  -0.006
C  C73  1  0.93768364  0.07660667  0.78626774  1  0.40313  0.000104  -0.060113  -0.02956  -6.1e-05  3.856853  0.0
C  C74  1  0.19924751  0.36124623  0.42744478  1  0.466415  -0.008391  0.041572  0.108504  -0.00882  3.963835  -0.005
C  C75  1  0.10350583  0.28303861  0.38944785  1  0.016754  0.005813  -0.102258  -0.24633  0.002244  3.973615  0.004
C  C76  1  0.17397017  0.22256436  0.35567269  1  0.452823  -0.012932  0.094902  0.295433  -0.013626  4.068765  -0.009
C  C77  1  0.33878392  0.24470882  0.36131521  1  -0.064034  0.005407  -0.11245  -0.282161  0.001844  4.006237  0.004
C  C78  1  0.42439958  0.32495036  0.40084936  1  0.585095  -0.010466  0.046015  0.120851  -0.01111  3.963962  -0.006
C  C79  1  0.13882104  0.07669414  0.28623412  1  0.405175  0.000105  -0.060086  -0.028014  -6e-05  3.856339  0.0
C  C80  1  0.80074797  0.63875233  0.42744369  1  0.466385  -0.008386  0.041661  0.108698  -0.008815  3.963799  -0.005
C  C81  1  0.89648718  0.71695932  0.38944623  1  0.016776  0.005811  -0.102374  -0.246575  0.002243  3.973674  0.004
C  C82  1  0.82601921  0.77743292  0.35567142  1  0.452337  -0.012926  0.094934  0.295453  -0.01362  4.068814  -0.009
C  C83  1  0.66120810  0.75528929  0.36131484  1  -0.063528  0.005405  -0.112442  -0.282167  0.001843  4.00612  0.004
C  C84  1  0.57559268  0.67504837  0.40085118  1  0.585073  -0.01046  0.046064  0.1209  -0.011104  3.963943  -0.006
C  C85  1  0.86117025  0.92330443  0.28623348  1  0.405711  0.000105  -0.06003  -0.027755  -6e-05  3.856322  0.0
C  C86  1  0.16193518  0.36120520  0.07251535  1  0.445996  -0.008361  0.041845  0.108563  -0.008837  3.963909  -0.005
C  C87  1  0.17935670  0.28294440  0.11051610  1  0.032429  0.005825  -0.102885  -0.246567  0.002249  3.973118  0.004
C  C88  1  0.04842946  0.22260623  0.14431695  1  0.470084  -0.012949  0.09509  0.293922  -0.013658  4.068608  -0.009
C  C89  1  0.90586769  0.24495224  0.13871432  1  -0.072846  0.0054  -0.111738  -0.278737  0.001851  4.005688  0.004
C  C90  1  0.90057848  0.32522809  0.09917510  1  0.555919  -0.010487  0.045344  0.118205  -0.01112  3.965496  -0.006
C  C91  1  0.93768511  0.07660843  0.21373204  1  0.403019  0.000104  -0.060088  -0.02963  -6.1e-05  3.856982  0.0
C  C92  1  0.83806576  0.63879382  0.07251631  1  0.44604  -0.008363  0.041864  0.108587  -0.008839  3.96379  -0.005
C  C93  1  0.82064293  0.71705439  0.11051656  1  0.032453  0.005825  -0.102846  -0.246501  0.002249  3.973169  0.004
C  C94  1  0.95156999  0.77739235  0.14431647  1  0.470018  -0.012951  0.095111  0.293922  -0.013661  4.068632  -0.009
C  C95  1  0.09413533  0.75504897  0.13871577  1  -0.072985  0.005402  -0.111723  -0.278786  0.001851  4.005618  0.004
C  C96  1  0.09942535  0.67477683  0.09917500  1  0.556103  -0.010489  0.045401  0.118359  -0.011122  3.965494  -0.006
C  C97  1  0.06230949  0.92338972  0.21373246  1  0.402981  0.000104  -0.060145  -0.030004  -6.1e-05  3.857277  0.0
C  C98  1  0.72028536  0.34484285  0.49999996  1  0.456058  0.025183  0.137235  0.257912  0.013463  4.366066  0.026
C  C99  1  0.27971572  0.65516046  0.49999941  1  0.455918  0.025194  0.137241  0.257993  0.013469  4.366104  0.026
C  C100  1  0.62458022  0.34471577  0.00000052  1  0.485699  0.025022  0.138451  0.258201  0.013448  4.361345  0.026
C  C101  1  0.37542586  0.65528407  0.99999927  1  0.485405  0.025024  0.138396  0.258102  0.013449  4.361436  0.026
C  C102  1  0.99999937  0.00000028  0.75001508  1  0.071502  0.000111  -0.01802  0.050353  6.1e-05  3.813814  0.0
C  C103  1  0.99999549  0.99999956  0.24998512  1  0.071476  0.000111  -0.018006  0.050409  6.1e-05  3.813816  0.0
S  S104  1  0.79814065  0.24605709  0.50000042  1  0.125091  0.056786  -0.196652  -0.345489  0.023456  2.177687  0.031
S  S105  1  0.20185160  0.75393756  0.49999647  1  0.125167  0.056801  -0.196607  -0.345441  0.023472  2.177821  0.031
S  S106  1  0.44803512  0.24590949  0.00000102  1  0.101554  0.056691  -0.197269  -0.345809  0.023512  2.176627  0.031
S  S107  1  0.55197295  0.75409209  0.99999959  1  0.101648  0.056692  -0.197271  -0.345783  0.023512  2.176567  0.031
N  N108  1  0.64208556  0.61743696  0.56596504  1  -1.256186  0.050929  -0.328844  -0.246934  0.024342  3.532217  0.042
N  N109  1  0.35792329  0.38256422  0.56596565  1  -1.256342  0.050932  -0.328904  -0.247096  0.024344  3.532461  0.042
N  N110  1  0.97531716  0.61733346  0.93404057  1  -1.252674  0.051046  -0.328349  -0.245694  0.024334  3.532701  0.042
N  N111  1  0.02468436  0.38266804  0.93403879  1  -1.252657  0.051044  -0.328353  -0.245609  0.024332  3.532686  0.042
N  N112  1  0.35791853  0.38256116  0.43403557  1  -1.256422  0.05093  -0.328823  -0.246934  0.024341  3.532221  0.042
N  N113  1  0.64207580  0.61743736  0.43403414  1  -1.256553  0.05093  -0.328865  -0.246998  0.024343  3.532467  0.042
N  N114  1  0.02468685  0.38266899  0.06596005  1  -1.252685  0.051045  -0.328328  -0.245678  0.024333  3.532786  0.042
N  N115  1  0.97531922  0.61733354  0.06596059  1  -1.252652  0.051046  -0.328403  -0.245756  0.024333  3.532818  0.042
N  N116  1  0.66238510  0.41816457  0.49999951  1  -1.335859  0.058571  -0.416635  -0.494025  0.027633  3.326793  0.022
N  N117  1  0.33762098  0.58183528  0.50000152  1  -1.335778  0.058573  -0.416675  -0.494174  0.027634  3.326864  0.022
N  N118  1  0.75576347  0.41807655  0.00000004  1  -1.340021  0.058531  -0.417205  -0.49367  0.027656  3.323053  0.022
N  N119  1  0.24424391  0.58192590  0.99999851  1  -1.339893  0.058535  -0.417166  -0.49361  0.027654  3.32324  0.022
O  O120  1  0.92549359  0.85442959  0.68046795  1  -1.088975  -0.003484  -0.173714  -0.191557  -0.003132  2.561413  -0.002
O  O121  1  0.07451355  0.14557088  0.68046728  1  -1.089086  -0.003482  -0.173686  -0.191497  -0.00313  2.561432  -0.002
O  O122  1  0.92920431  0.85451478  0.81958978  1  -1.083699  -0.003487  -0.174237  -0.191105  -0.003131  2.561249  -0.002
O  O123  1  0.07079201  0.14548482  0.81958870  1  -1.083704  -0.003488  -0.174216  -0.191123  -0.003131  2.561238  -0.002
O  O124  1  0.07450644  0.14556939  0.31953349  1  -1.088946  -0.003484  -0.173686  -0.191586  -0.003132  2.561478  -0.002
O  O125  1  0.92548511  0.85442983  0.31953209  1  -1.089057  -0.003482  -0.173712  -0.191604  -0.00313  2.561542  -0.002
O  O126  1  0.07079503  0.14548506  0.18041124  1  -1.083713  -0.003487  -0.1742  -0.191103  -0.003131  2.561218  -0.002
O  O127  1  0.92920043  0.85451243  0.18041150  1  -1.083744  -0.003488  -0.174217  -0.191074  -0.003131  2.561208  -0.002
