# generated using pymatgen
data_ZnH3C9Br4NO4
_symmetry_space_group_name_H-M   'P 1'
_cell_length_a   9.77336962
_cell_length_b   11.16433534
_cell_length_c   10.82400610
_cell_angle_alpha   95.25924949
_cell_angle_beta   110.23747233
_cell_angle_gamma   88.54904289
_symmetry_Int_Tables_number   1
_chemical_formula_structural   ZnH3C9Br4NO4
_chemical_formula_sum   'Zn2 H6 C18 Br8 N2 O8'
_cell_volume   1103.44157199
_cell_formula_units_Z   2
loop_
 _symmetry_equiv_pos_site_id
 _symmetry_equiv_pos_as_xyz
  1  'x, y, z'
loop_
 _atom_site_type_symbol
 _atom_site_label
 _atom_site_symmetry_multiplicity
 _atom_site_fract_x
 _atom_site_fract_y
 _atom_site_fract_z
 _atom_site_occupancy
 _atom_site_pbe_bader_charge
 _atom_site_pbe_bader_spin_density
 _atom_site_pbe_cm5_charge
 _atom_site_pbe_ddec_charge
 _atom_site_pbe_ddec_spin_density
 _atom_site_pbe_ddec_sum_bond_order
 _atom_site_pbe_magmom
Zn  Zn0  1  0.64982833  0.48005919  0.54673223  1  1.297388  0  0.674235  0.847462  0  2.399409  0
Zn  Zn1  1  0.34883400  0.51614233  0.45961621  1  1.299324  0  0.674877  0.848094  0  2.395998  0
H  H2  1  0.56797621  0.30263256  0.09043775  1  0.073009  0  0.108914  0.116063  0  0.966007  0
H  H3  1  0.43139217  0.69537603  0.91637750  1  0.08943  0  0.101368  0.108813  0  0.987133  0
H  H4  1  0.65764942  0.65466752  0.15870033  1  0.084464  0  0.098565  0.101966  0  0.995164  0
H  H5  1  0.34317904  0.34327525  0.84875154  1  0.09681  0  0.0981  0.100748  0  0.997156  0
H  H6  1  0.85948777  0.57838916  0.45412564  1  0.177891  0  0.13607  0.1214  0  0.998916  0
H  H7  1  0.13828758  0.41439788  0.54655479  1  0.195583  0  0.136711  0.123068  0  0.996983  0
C  C8  1  0.44691457  0.26902172  0.48641697  1  1.66121  0  0.204081  0.604377  0  4.224427  0
C  C9  1  0.51582837  0.49936536  0.88319135  1  0.010116  0  -0.006013  -0.042367  0  3.630822  0
C  C10  1  0.58745128  0.58590682  0.08884494  1  -0.018537  0  -0.077048  -0.089531  0  3.630898  0
C  C11  1  0.41259999  0.41241680  0.91868959  1  -0.022991  0  -0.076196  -0.09202  0  3.634436  0
C  C12  1  0.43198112  0.13543404  0.48914042  1  -0.039366  0  -0.028033  -0.061741  0  3.870736  0
C  C13  1  0.56460190  0.86266854  0.54202618  1  0.028839  0  -0.025108  -0.056507  0  3.840731  0
C  C14  1  0.49733835  0.07274170  0.59390631  1  0.018596  0  -0.043236  0.007346  0  4.046917  0
C  C15  1  0.48939440  0.94265308  0.59356141  1  -0.044785  0  -0.037165  0.025212  0  4.02706  0
C  C16  1  0.07074357  0.48799333  0.49713562  1  0.606074  0  0.0897  0.102143  0  3.857617  0
C  C17  1  0.92773758  0.50661828  0.50674992  1  0.649109  0  0.089157  0.101667  0  3.862159  0
C  C18  1  0.54856957  0.72788342  0.53014401  1  1.645096  0  0.205673  0.607635  0  4.207287  0
C  C19  1  0.51877518  0.50175987  0.74698006  1  1.578959  0  0.214921  0.605186  0  4.165776  0
C  C20  1  0.48279581  0.49649464  0.26111032  1  1.585138  0  0.217909  0.611285  0  4.155122  0
C  C21  1  0.63991825  0.47615827  0.01664174  1  0.021139  0  -0.007302  0.103954  0  3.607422  0
C  C22  1  0.35997864  0.52190078  0.99102328  1  -0.009109  0  -0.006169  0.109068  0  3.59783  0
C  C23  1  0.53745979  0.38977000  0.05057242  1  -0.004379  0  -0.071956  -0.087249  0  3.62178  0
C  C24  1  0.46230776  0.60849137  0.95678720  1  -0.024427  0  -0.074156  -0.082421  0  3.612404  0
C  C25  1  0.48468994  0.50009085  0.12469352  1  0.001998  0  -0.005609  -0.040925  0  3.623552  0
Br  Br26  1  0.84040954  0.44157323  0.04022467  1  -0.092108  0  -0.024649  -0.113073  0  1.413762  0
Br  Br27  1  0.15957834  0.55430229  0.96907523  1  -0.091939  0  -0.027008  -0.119655  0  1.393549  0
Br  Br28  1  0.35981537  0.88830246  0.67564348  1  -0.039882  0  0.022749  -0.040654  0  1.412447  0
Br  Br29  1  0.60980924  0.15696773  0.75916068  1  -0.031939  0  0.033469  -0.025778  0  1.465972  0
Br  Br30  1  0.70288889  0.91631011  0.47137102  1  -0.020663  0  0.032941  -0.02333  0  1.416812  0
Br  Br31  1  0.31190318  0.05766797  0.32568764  1  -0.009259  0  0.039205  -0.00741  0  1.385459  0
Br  Br32  1  0.96175041  0.31729958  0.66359040  1  0.248379  0  0.208994  0.118954  0  1.383236  0
Br  Br33  1  0.03621888  0.68038560  0.34452641  1  0.24268  0  0.206877  0.113321  0  1.407724  0
N  N34  1  0.13157776  0.54943575  0.43469914  1  -0.961207  0  -0.287161  -0.152718  0  3.244963  0
N  N35  1  0.86643773  0.44630110  0.56964086  1  -0.970127  0  -0.286725  -0.15103  0  3.244341  0
O  O36  1  0.57058376  0.30485197  0.49099468  1  -1.149216  0  -0.310151  -0.532393  0  2.321744  0
O  O37  1  0.42058359  0.68855910  0.46660013  1  -1.148759  0  -0.311408  -0.535802  0  2.361563  0
O  O38  1  0.33490154  0.33219896  0.47827377  1  -1.155286  0  -0.31189  -0.532365  0  2.297892  0
O  O39  1  0.66248349  0.66758193  0.58124778  1  -1.155381  0  -0.315165  -0.527995  0  2.282113  0
O  O40  1  0.63474998  0.46936502  0.72558049  1  -1.146526  0  -0.312723  -0.531547  0  2.37449  0
O  O41  1  0.36170476  0.48236288  0.27729170  1  -1.144278  0  -0.312346  -0.523206  0  2.315624  0
O  O42  1  0.40085723  0.53594892  0.66248277  1  -1.171414  0  -0.320748  -0.555341  0  2.329243  0
O  O43  1  0.60805528  0.50642318  0.35167072  1  -1.159652  0  -0.316553  -0.552705  0  2.336893  0
