# generated using pymatgen
data_HgH14C10(BrN)2
_symmetry_space_group_name_H-M   'P 1'
_cell_length_a   7.57588658
_cell_length_b   11.08592658
_cell_length_c   15.37196231
_cell_angle_alpha   89.99962515
_cell_angle_beta   90.00046839
_cell_angle_gamma   89.99966886
_symmetry_Int_Tables_number   1
_chemical_formula_structural   HgH14C10(BrN)2
_chemical_formula_sum   'Hg4 H56 C40 Br8 N8'
_cell_volume   1291.02535937
_cell_formula_units_Z   4
loop_
 _symmetry_equiv_pos_site_id
 _symmetry_equiv_pos_as_xyz
  1  'x, y, z'
loop_
 _atom_site_type_symbol
 _atom_site_label
 _atom_site_symmetry_multiplicity
 _atom_site_fract_x
 _atom_site_fract_y
 _atom_site_fract_z
 _atom_site_occupancy
 _atom_site_hle17_bader_spin_density
 _atom_site_hle17_ddec_charge
 _atom_site_hle17_ddec_spin_density
 _atom_site_hle17_ddec_sum_bond_order
 _atom_site_hle17_magmom
 _atom_site_hse06_10hf_bader_spin_density
 _atom_site_hse06_10hf_ddec_charge
 _atom_site_hse06_10hf_ddec_spin_density
 _atom_site_hse06_10hf_ddec_sum_bond_order
 _atom_site_hse06_10hf_magmom
 _atom_site_hse06_bader_spin_density
 _atom_site_hse06_ddec_charge
 _atom_site_hse06_ddec_spin_density
 _atom_site_hse06_ddec_sum_bond_order
 _atom_site_hse06_magmom
 _atom_site_pbe_bader_spin_density
 _atom_site_pbe_cm5_charge
 _atom_site_pbe_ddec_charge
 _atom_site_pbe_ddec_spin_density
 _atom_site_pbe_ddec_sum_bond_order
 _atom_site_pbe_magmom
Hg  Hg0  1  0.04413449  0.06435355  0.80455825  1  0  0.630877  0  2.086707  0  0  0.480543  0  2.572754  0  0  0.527008  0  2.543539  0  0  0.468068  0.449213  0  2.592068  0
Hg  Hg1  1  0.45586201  0.93564076  0.30455840  1  0  0.63086  0  2.08665  0  0  0.480566  0  2.572649  0  0  0.527029  0  2.543432  0  0  0.468085  0.449237  0  2.591961  0
Hg  Hg2  1  0.95586239  0.56435646  0.69544143  1  0  0.6309  0  2.086695  0  0  0.480561  0  2.572751  0  0  0.527031  0  2.543535  0  0  0.468088  0.449225  0  2.59207  0
Hg  Hg3  1  0.54414069  0.43563867  0.19543772  1  0  0.630833  0  2.086631  0  0  0.480504  0  2.572673  0  0  0.526972  0  2.543459  0  0  0.468044  0.449168  0  2.591987  0
H  H4  1  0.18264379  0.80573329  0.71641513  1  0  0.074527  0  0.973456  0  0  0.079029  0  1.049247  0  0  0.081721  0  1.04647  0  0  0.103725  0.076937  0  1.051528  0
H  H5  1  0.31734863  0.19427264  0.21641758  1  0  0.074471  0  0.973546  0  0  0.079036  0  1.049268  0  0  0.081728  0  1.046492  0  0  0.103756  0.07694  0  1.051554  0
H  H6  1  0.81733917  0.30574015  0.78358275  1  0  0.074488  0  0.973518  0  0  0.079049  0  1.049214  0  0  0.081742  0  1.046438  0  0  0.103755  0.076956  0  1.051492  0
H  H7  1  0.68265876  0.69425689  0.28358358  1  0  0.07451  0  0.973496  0  0  0.079033  0  1.049245  0  0  0.081725  0  1.04647  0  0  0.103707  0.07694  0  1.051523  0
H  H8  1  0.45738903  0.59163611  0.90816010  1  0  0.098505  0  0.950365  0  0  0.107458  0  1.016332  0  0  0.110537  0  1.013549  0  0  0.102474  0.105212  0  1.01838  0
H  H9  1  0.04261313  0.40835906  0.40816301  1  0  0.098549  0  0.950235  0  0  0.107501  0  1.01622  0  0  0.110577  0  1.01344  0  0  0.102502  0.105255  0  1.018268  0
H  H10  1  0.54260894  0.09163767  0.59184205  1  0  0.098532  0  0.950378  0  0  0.107477  0  1.016363  0  0  0.110554  0  1.013583  0  0  0.102481  0.105231  0  1.018415  0
H  H11  1  0.95738848  0.90835749  0.09184299  1  0  0.098508  0  0.950285  0  0  0.107481  0  1.016256  0  0  0.110557  0  1.013474  0  0  0.102493  0.105236  0  1.018307  0
H  H12  1  0.35902167  0.74324334  0.02064305  1  0  0.099468  0  0.982975  0  0  0.107678  0  1.046575  0  0  0.110769  0  1.045943  0  0  0.095804  0.105517  0  1.047071  0
H  H13  1  0.14099262  0.25674812  0.52064368  1  0  0.09941  0  0.983108  0  0  0.107628  0  1.046717  0  0  0.110714  0  1.046076  0  0  0.095811  0.10547  0  1.04721  0
H  H14  1  0.64098134  0.24324101  0.47935723  1  0  0.099504  0  0.983082  0  0  0.107711  0  1.046665  0  0  0.1108  0  1.046035  0  0  0.095818  0.105551  0  1.047161  0
H  H15  1  0.85901847  0.75675516  0.97935833  1  0  0.099519  0  0.98303  0  0  0.107722  0  1.046634  0  0  0.110813  0  1.045994  0  0  0.095844  0.105563  0  1.047131  0
H  H16  1  0.17417644  0.91753426  0.97286812  1  0  0.0693  0  0.976406  0  0  0.073202  0  1.052527  0  0  0.076108  0  1.049506  0  0  0.096996  0.071078  0  1.054764  0
H  H17  1  0.32584130  0.08246394  0.47286853  1  0  0.069343  0  0.976406  0  0  0.073249  0  1.052515  0  0  0.07615  0  1.049505  0  0  0.097015  0.071125  0  1.054752  0
H  H18  1  0.82581745  0.41753348  0.52712793  1  0  0.069318  0  0.976344  0  0  0.073231  0  1.052465  0  0  0.076139  0  1.04944  0  0  0.096982  0.071105  0  1.054701  0
H  H19  1  0.67417495  0.58246587  0.02712926  1  0  0.069402  0  0.976399  0  0  0.073299  0  1.052518  0  0  0.076207  0  1.049493  0  0  0.097018  0.071172  0  1.054754  0
H  H20  1  0.51058703  0.55513905  0.76036719  1  0  0.040415  0  0.946842  0  0  0.049263  0  1.01966  0  0  0.04988  0  1.018974  0  0  0.091914  0.048764  0  1.020279  0
H  H21  1  0.98941184  0.44486451  0.26036850  1  0  0.040403  0  0.946803  0  0  0.049274  0  1.019641  0  0  0.049889  0  1.018959  0  0  0.091891  0.048774  0  1.02026  0
H  H22  1  0.48940730  0.05514129  0.73963318  1  0  0.040444  0  0.946828  0  0  0.049317  0  1.019662  0  0  0.049933  0  1.01898  0  0  0.091909  0.048817  0  1.02028  0
H  H23  1  0.01059078  0.94485722  0.23963212  1  0  0.040419  0  0.946814  0  0  0.049281  0  1.019654  0  0  0.049898  0  1.018971  0  0  0.0919  0.048783  0  1.020273  0
H  H24  1  0.23163845  0.36842513  0.61937465  1  0  0.060503  0  0.957852  0  0  0.074662  0  1.026524  0  0  0.075027  0  1.026431  0  0  0.092941  0.074392  0  1.026578  0
H  H25  1  0.26836293  0.63157627  0.11937223  1  0  0.060493  0  0.957798  0  0  0.07464  0  1.026488  0  0  0.075006  0  1.026393  0  0  0.092927  0.074371  0  1.026544  0
H  H26  1  0.76836377  0.86842530  0.88062813  1  0  0.06052  0  0.957799  0  0  0.074682  0  1.026469  0  0  0.075052  0  1.026371  0  0  0.092947  0.074415  0  1.026524  0
H  H27  1  0.73164102  0.13157628  0.38062337  1  0  0.060568  0  0.957844  0  0  0.074686  0  1.026518  0  0  0.07505  0  1.026432  0  0  0.092962  0.074425  0  1.026557  0
H  H28  1  0.44822990  0.38068419  0.66214775  1  0  0.050094  0  0.958386  0  0  0.067048  0  1.024219  0  0  0.065931  0  1.027657  0  0  0.090992  0.067791  0  1.021903  0
H  H29  1  0.05177086  0.61932042  0.16214515  1  0  0.050099  0  0.958396  0  0  0.067047  0  1.024244  0  0  0.065931  0  1.027681  0  0  0.091007  0.067789  0  1.021927  0
H  H30  1  0.55176694  0.88068290  0.83785433  1  0  0.050098  0  0.958381  0  0  0.067049  0  1.024202  0  0  0.065936  0  1.027642  0  0  0.090993  0.067793  0  1.021887  0
H  H31  1  0.94823452  0.11931455  0.33784986  1  0  0.05013  0  0.958361  0  0  0.067108  0  1.024122  0  0  0.065993  0  1.027562  0  0  0.091006  0.06785  0  1.021806  0
H  H32  1  0.26271983  0.55875773  0.54064977  1  0  0.06744  0  0.971987  0  0  0.079908  0  1.042874  0  0  0.081224  0  1.042659  0  0  0.074097  0.078933  0  1.043068  0
H  H33  1  0.23727366  0.44124348  0.04065072  1  0  0.067418  0  0.971974  0  0  0.079869  0  1.042866  0  0  0.081183  0  1.042655  0  0  0.074053  0.078895  0  1.043063  0
H  H34  1  0.73727446  0.05875790  0.95935123  1  0  0.067439  0  0.97199  0  0  0.079906  0  1.042864  0  0  0.081224  0  1.042647  0  0  0.074079  0.078933  0  1.04306  0
H  H35  1  0.76273295  0.94124296  0.45934992  1  0  0.067436  0  0.971983  0  0  0.079854  0  1.042916  0  0  0.081169  0  1.042709  0  0  0.074069  0.078883  0  1.043112  0
H  H36  1  0.48603117  0.51196824  0.53887568  1  0  0.078649  0  0.94994  0  0  0.093738  0  1.014589  0  0  0.09488  0  1.014873  0  0  0.083489  0.092903  0  1.014439  0
H  H37  1  0.01396229  0.48803478  0.03887420  1  0  0.078633  0  0.949982  0  0  0.093736  0  1.014595  0  0  0.094879  0  1.014878  0  0  0.083492  0.092901  0  1.014445  0
H  H38  1  0.51396220  0.01196568  0.96112685  1  0  0.078616  0  0.949979  0  0  0.093706  0  1.014618  0  0  0.094848  0  1.014901  0  0  0.083489  0.092874  0  1.014466  0
H  H39  1  0.98604260  0.98803337  0.46112427  1  0  0.078645  0  0.950007  0  0  0.093739  0  1.014635  0  0  0.094884  0  1.014922  0  0  0.083509  0.092906  0  1.014486  0
H  H40  1  0.33724578  0.72047304  0.62668540  1  0  0.074537  0  0.965023  0  0  0.089588  0  1.032372  0  0  0.090642  0  1.032091  0  0  0.080523  0.088705  0  1.032839  0
H  H41  1  0.16274384  0.27952829  0.12668811  1  0  0.074591  0  0.965095  0  0  0.089624  0  1.032452  0  0  0.090673  0  1.032168  0  0  0.080521  0.088735  0  1.032915  0
H  H42  1  0.66273658  0.22047609  0.87331614  1  0  0.074575  0  0.965066  0  0  0.089603  0  1.03244  0  0  0.090649  0  1.032159  0  0  0.080507  0.08872  0  1.032903  0
H  H43  1  0.83726150  0.77952465  0.37331720  1  0  0.074505  0  0.965068  0  0  0.089589  0  1.032411  0  0  0.090635  0  1.032127  0  0  0.080513  0.088706  0  1.032875  0
H  H44  1  0.55814430  0.67165211  0.63585200  1  0  0.0751  0  0.96672  0  0  0.088322  0  1.03887  0  0  0.089505  0  1.038707  0  0  0.079606  0.087424  0  1.039005  0
H  H45  1  0.94184460  0.32835439  0.13585367  1  0  0.075094  0  0.966728  0  0  0.088326  0  1.038873  0  0  0.089497  0  1.038711  0  0  0.07958  0.087425  0  1.039008  0
H  H46  1  0.44183715  0.17164709  0.86414846  1  0  0.075133  0  0.966649  0  0  0.088387  0  1.03879  0  0  0.089549  0  1.038634  0  0  0.07963  0.087489  0  1.038925  0
H  H47  1  0.05816164  0.82834939  0.36414880  1  0  0.075104  0  0.966635  0  0  0.088362  0  1.038801  0  0  0.089523  0  1.038646  0  0  0.079622  0.087465  0  1.038936  0
H  H48  1  0.17278213  0.33213075  0.78038399  1  0  0.086154  0  0.970014  0  0  0.103518  0  1.045079  0  0  0.103588  0  1.045587  0  0  0.087338  0.103193  0  1.045062  0
H  H49  1  0.32721662  0.66787099  0.28038294  1  0  0.086122  0  0.970034  0  0  0.10348  0  1.045118  0  0  0.10355  0  1.045626  0  0  0.087317  0.103155  0  1.045103  0
H  H50  1  0.82721117  0.83213395  0.71961832  1  0  0.08619  0  0.97003  0  0  0.103565  0  1.045083  0  0  0.103636  0  1.045591  0  0  0.087361  0.103241  0  1.045069  0
H  H51  1  0.67278307  0.16786547  0.21961379  1  0  0.086146  0  0.970021  0  0  0.103491  0  1.045102  0  0  0.103563  0  1.04561  0  0  0.087323  0.103166  0  1.045087  0
H  H52  1  0.18878957  0.45582145  0.85318771  1  0  0.097676  0  0.969482  0  0  0.115125  0  1.037365  0  0  0.115907  0  1.037812  0  0  0.089482  0.114475  0  1.037123  0
H  H53  1  0.31121037  0.54417873  0.35318718  1  0  0.097702  0  0.969453  0  0  0.115155  0  1.037329  0  0  0.115938  0  1.037777  0  0  0.089496  0.114506  0  1.037088  0
H  H54  1  0.81120136  0.95582356  0.64681336  1  0  0.097714  0  0.969316  0  0  0.115167  0  1.037211  0  0  0.11595  0  1.037658  0  0  0.089472  0.114518  0  1.036972  0
H  H55  1  0.68879169  0.04417381  0.14681079  1  0  0.097699  0  0.969466  0  0  0.115159  0  1.037336  0  0  0.115943  0  1.037784  0  0  0.089484  0.114509  0  1.037096  0
H  H56  1  0.38550847  0.38106338  0.81642720  1  0  0.089619  0  0.938066  0  0  0.11121  0  1.003093  0  0  0.111876  0  1.003095  0  0  0.093546  0.110598  0  1.003267  0
H  H57  1  0.11449086  0.61893804  0.31642486  1  0  0.089615  0  0.938075  0  0  0.111211  0  1.003099  0  0  0.111876  0  1.003102  0  0  0.093542  0.110599  0  1.003272  0
H  H58  1  0.61448309  0.88106504  0.68357552  1  0  0.089573  0  0.938083  0  0  0.111186  0  1.003106  0  0  0.111851  0  1.00311  0  0  0.093521  0.110575  0  1.00328  0
H  H59  1  0.88551056  0.11893291  0.18357210  1  0  0.089621  0  0.938096  0  0  0.111219  0  1.003107  0  0  0.111885  0  1.003112  0  0  0.093546  0.110608  0  1.003281  0
C  C60  1  0.22193883  0.78505174  0.78314649  1  0  0.059533  0  3.715965  0  0  0.023085  0  3.974047  0  0  0.029259  0  3.991022  0  0  0.036447  0.019118  0  3.962566  0
C  C61  1  0.27805864  0.21495089  0.28314803  1  0  0.059637  0  3.71584  0  0  0.023105  0  3.973908  0  0  0.029282  0  3.990875  0  0  0.036464  0.019139  0  3.962426  0
C  C62  1  0.77804958  0.28505304  0.71685279  1  0  0.059697  0  3.7158  0  0  0.0232  0  3.973885  0  0  0.029378  0  3.990855  0  0  0.036458  0.019232  0  3.9624  0
C  C63  1  0.72194857  0.71494099  0.21685303  1  0  0.059722  0  3.715876  0  0  0.023289  0  3.973851  0  0  0.029467  0  3.990819  0  0  0.036656  0.019322  0  3.962365  0
C  C64  1  0.32527387  0.68413520  0.80307543  1  0  0.00229  0  3.717608  0  0  0.021886  0  3.953402  0  0  0.017072  0  3.977486  0  0  -0.005559  0.024787  0  3.937244  0
C  C65  1  0.17471997  0.31586814  0.30308193  1  0  0.002153  0  3.71778  0  0  0.021906  0  3.953442  0  0  0.017093  0  3.97753  0  0  -0.0056  0.024804  0  3.93728  0
C  C66  1  0.67471408  0.18413890  0.69691977  1  0  0.002405  0  3.717726  0  0  0.022073  0  3.953507  0  0  0.017264  0  3.977591  0  0  -0.00548  0.024966  0  3.937352  0
C  C67  1  0.82528242  0.81586073  0.19691996  1  0  0.002271  0  3.717809  0  0  0.02193  0  3.953578  0  0  0.01712  0  3.977665  0  0  -0.005606  0.024826  0  3.937422  0
C  C68  1  0.37357527  0.66773554  0.89031752  1  0  -0.040498  0  3.681224  0  0  -0.06493  0  3.924931  0  0  -0.061709  0  3.942485  0  0  -0.063363  -0.066824  0  3.913095  0
C  C69  1  0.12642924  0.33226160  0.39031789  1  0  -0.040519  0  3.681283  0  0  -0.064992  0  3.924965  0  0  -0.061773  0  3.942519  0  0  -0.063368  -0.066888  0  3.913136  0
C  C70  1  0.62641942  0.16773571  0.60968556  1  0  -0.040673  0  3.681467  0  0  -0.065133  0  3.925199  0  0  -0.061908  0  3.942738  0  0  -0.063439  -0.067031  0  3.913374  0
C  C71  1  0.87357302  0.83226020  0.10968392  1  0  -0.040557  0  3.681361  0  0  -0.065015  0  3.925048  0  0  -0.061799  0  3.942608  0  0  -0.063394  -0.066912  0  3.91322  0
C  C72  1  0.31885312  0.75039693  0.95285055  1  0  -0.103237  0  3.725537  0  0  -0.110464  0  3.966616  0  0  -0.117406  0  3.988308  0  0  -0.082564  -0.106083  0  3.952168  0
C  C73  1  0.18115505  0.24959784  0.45285413  1  0  -0.103266  0  3.725333  0  0  -0.110522  0  3.966451  0  0  -0.117447  0  3.988148  0  0  -0.082713  -0.106148  0  3.952011  0
C  C74  1  0.68114483  0.25039654  0.54714629  1  0  -0.103245  0  3.725617  0  0  -0.110467  0  3.966685  0  0  -0.117404  0  3.988379  0  0  -0.082592  -0.106091  0  3.952245  0
C  C75  1  0.81885451  0.74960173  0.04714742  1  0  -0.103241  0  3.725557  0  0  -0.110483  0  3.966649  0  0  -0.11742  0  3.988342  0  0  -0.082612  -0.106109  0  3.952211  0
C  C76  1  0.21614240  0.84799847  0.92694060  1  0  0.116559  0  3.718202  0  0  0.086843  0  3.967314  0  0  0.093646  0  3.985663  0  0  0.040003  0.082461  0  3.954942  0
C  C77  1  0.28387458  0.15200194  0.42694051  1  0  0.116536  0  3.718082  0  0  0.0868  0  3.967247  0  0  0.093601  0  3.985595  0  0  0.040066  0.08242  0  3.954875  0
C  C78  1  0.78385604  0.34799655  0.57305643  1  0  0.116527  0  3.718541  0  0  0.086794  0  3.967641  0  0  0.093596  0  3.985997  0  0  0.040004  0.082412  0  3.955263  0
C  C79  1  0.71613976  0.65199879  0.07305630  1  0  0.116382  0  3.718496  0  0  0.086665  0  3.967606  0  0  0.093467  0  3.98596  0  0  0.039922  0.082283  0  3.95523  0
C  C80  1  0.38683744  0.59540848  0.73520285  1  0  0.076364  0  3.603228  0  0  0.059445  0  3.828033  0  0  0.06291  0  3.845333  0  0  0.000942  0.057177  0  3.816128  0
C  C81  1  0.11316321  0.40459548  0.23520542  1  0  0.076509  0  3.603236  0  0  0.05944  0  3.828173  0  0  0.062894  0  3.84547  0  0  0.000994  0.05718  0  3.816249  0
C  C82  1  0.61315390  0.09541181  0.76479733  1  0  0.076313  0  3.603213  0  0  0.059225  0  3.82831  0  0  0.062678  0  3.845602  0  0  0.000933  0.056976  0  3.816372  0
C  C83  1  0.88684240  0.90458630  0.26479605  1  0  0.076399  0  3.603086  0  0  0.059364  0  3.828136  0  0  0.062818  0  3.845426  0  0  0.000981  0.057101  0  3.816227  0
C  C84  1  0.32961503  0.43267565  0.64382246  1  0  -0.007334  0  3.625773  0  0  -0.062188  0  3.879528  0  0  -0.058551  0  3.893427  0  0  -0.079444  -0.064559  0  3.869874  0
C  C85  1  0.17038279  0.56732552  0.14382124  1  0  -0.007226  0  3.625871  0  0  -0.062109  0  3.879646  0  0  -0.058471  0  3.893543  0  0  -0.079415  -0.064481  0  3.869996  0
C  C86  1  0.67037873  0.93267643  0.85618002  1  0  -0.00733  0  3.625768  0  0  -0.062205  0  3.879516  0  0  -0.058582  0  3.893429  0  0  -0.079443  -0.064573  0  3.869864  0
C  C87  1  0.82962171  0.06732175  0.35617597  1  0  -0.007553  0  3.626012  0  0  -0.062316  0  3.879632  0  0  -0.058686  0  3.893541  0  0  -0.079513  -0.064684  0  3.869982  0
C  C88  1  0.37599150  0.53555583  0.58187771  1  0  -0.12919  0  3.649775  0  0  -0.167718  0  3.903807  0  0  -0.169426  0  3.916944  0  0  -0.17507  -0.16639  0  3.894665  0
C  C89  1  0.12400531  0.46444590  0.08187875  1  0  -0.129265  0  3.649931  0  0  -0.167741  0  3.903891  0  0  -0.169456  0  3.917015  0  0  -0.175077  -0.166422  0  3.894768  0
C  C90  1  0.62400695  0.03555592  0.91812340  1  0  -0.129178  0  3.649866  0  0  -0.167651  0  3.903802  0  0  -0.169363  0  3.916927  0  0  -0.17505  -0.166345  0  3.894702  0
C  C91  1  0.87600242  0.96444170  0.41812179  1  0  -0.129116  0  3.649885  0  0  -0.167582  0  3.903858  0  0  -0.169309  0  3.917004  0  0  -0.175035  -0.166269  0  3.894741  0
C  C92  1  0.42044178  0.64264440  0.64260109  1  0  -0.15826  0  3.626764  0  0  -0.202213  0  3.875849  0  0  -0.204126  0  3.889397  0  0  -0.17131  -0.200584  0  3.866355  0
C  C93  1  0.07954810  0.35735949  0.14260310  1  0  -0.158293  0  3.626921  0  0  -0.20222  0  3.876003  0  0  -0.204098  0  3.889524  0  0  -0.171255  -0.20058  0  3.86649  0
C  C94  1  0.57954520  0.14264521  0.85739886  1  0  -0.158347  0  3.62678  0  0  -0.202293  0  3.875899  0  0  -0.20416  0  3.889423  0  0  -0.171353  -0.200665  0  3.866394  0
C  C95  1  0.92045526  0.85735296  0.35739924  1  0  -0.158259  0  3.626622  0  0  -0.202302  0  3.875835  0  0  -0.204161  0  3.889358  0  0  -0.171357  -0.200673  0  3.866333  0
C  C96  1  0.25198850  0.41133905  0.79763616  1  0  -0.190951  0  3.691196  0  0  -0.291355  0  3.942048  0  0  -0.288331  0  3.953655  0  0  -0.159424  -0.293072  0  3.934062  0
C  C97  1  0.24801052  0.58866344  0.29763515  1  0  -0.19096  0  3.691175  0  0  -0.291382  0  3.942038  0  0  -0.28836  0  3.953647  0  0  -0.159433  -0.293101  0  3.934057  0
C  C98  1  0.74800544  0.91134091  0.70236578  1  0  -0.190925  0  3.69105  0  0  -0.291383  0  3.941928  0  0  -0.288358  0  3.953528  0  0  -0.15939  -0.293092  0  3.933928  0
C  C99  1  0.75199380  0.08865686  0.20236130  1  0  -0.190959  0  3.691117  0  0  -0.291365  0  3.941991  0  0  -0.288335  0  3.953573  0  0  -0.159413  -0.293079  0  3.934  0
Br  Br100  1  0.07683636  0.16928046  0.95019464  1  0  -0.398489  0  0.976115  0  0  -0.337372  0  1.259796  0  0  -0.354504  0  1.24207  0  0  -0.20739  -0.325792  0  1.271911  0
Br  Br101  1  0.42320212  0.83072877  0.45020492  1  0  -0.398479  0  0.976064  0  0  -0.337354  0  1.259709  0  0  -0.354473  0  1.241955  0  0  -0.207392  -0.325781  0  1.27183  0
Br  Br102  1  0.92316227  0.66927940  0.54980388  1  0  -0.398485  0  0.976156  0  0  -0.33734  0  1.2598  0  0  -0.354478  0  1.242078  0  0  -0.207379  -0.325767  0  1.271921  0
Br  Br103  1  0.57683050  0.33074681  0.04978974  1  0  -0.39839  0  0.976075  0  0  -0.337286  0  1.259769  0  0  -0.354427  0  1.242058  0  0  -0.207353  -0.325716  0  1.271884  0
Br  Br104  1  0.16029252  0.07132503  0.64777692  1  0  -0.446748  0  0.994604  0  0  -0.394061  0  1.295489  0  0  -0.411347  0  1.277464  0  0  -0.228255  -0.381967  0  1.307722  0
Br  Br105  1  0.33971857  0.92866889  0.14777663  1  0  -0.44674  0  0.994655  0  0  -0.394074  0  1.295564  0  0  -0.411356  0  1.277536  0  0  -0.228255  -0.381983  0  1.307795  0
Br  Br106  1  0.83970959  0.57132337  0.85222402  1  0  -0.446774  0  0.99462  0  0  -0.394099  0  1.295514  0  0  -0.411385  0  1.277495  0  0  -0.228276  -0.382008  0  1.307748  0
Br  Br107  1  0.66027891  0.42867665  0.35222537  1  0  -0.44674  0  0.994608  0  0  -0.394068  0  1.295507  0  0  -0.41135  0  1.277485  0  0  -0.228253  -0.381981  0  1.307739  0
N  N108  1  0.16848650  0.86452169  0.84368759  1  0  -0.295739  0  3.267182  0  0  -0.219864  0  3.532918  0  0  -0.239096  0  3.554332  0  0  -0.318516  -0.206849  0  3.517971  0
N  N109  1  0.33151724  0.13547948  0.34369037  1  0  -0.295655  0  3.267198  0  0  -0.219795  0  3.532977  0  0  -0.239026  0  3.554393  0  0  -0.318502  -0.206777  0  3.518018  0
N  N110  1  0.83149992  0.36452243  0.65630676  1  0  -0.295804  0  3.267406  0  0  -0.219908  0  3.533147  0  0  -0.239149  0  3.554575  0  0  -0.318516  -0.206881  0  3.518173  0
N  N111  1  0.66849592  0.63547846  0.15630781  1  0  -0.295828  0  3.267543  0  0  -0.21995  0  3.533281  0  0  -0.239189  0  3.554706  0  0  -0.3186  -0.206919  0  3.518295  0
N  N112  1  0.26027172  0.49317827  0.72264360  1  0  -0.177161  0  3.227651  0  0  -0.061386  0  3.448725  0  0  -0.083001  0  3.475433  0  0  -0.317504  -0.046549  0  3.429957  0
N  N113  1  0.23972740  0.50682400  0.22264425  1  0  -0.177247  0  3.227634  0  0  -0.061438  0  3.448756  0  0  -0.083052  0  3.475465  0  0  -0.317517  -0.046602  0  3.429988  0
N  N114  1  0.73972285  0.99318219  0.77735795  1  0  -0.177242  0  3.227621  0  0  -0.061401  0  3.448707  0  0  -0.083014  0  3.475423  0  0  -0.317484  -0.046565  0  3.429937  0
N  N115  1  0.76027630  0.00681761  0.27735519  1  0  -0.177146  0  3.227567  0  0  -0.061384  0  3.448698  0  0  -0.082996  0  3.475412  0  0  -0.317463  -0.046549  0  3.429932  0
