# generated using pymatgen
data_CuH15C18S(N3O2)2
_symmetry_space_group_name_H-M   'P 1'
_cell_length_a   9.37444531
_cell_length_b   10.32258349
_cell_length_c   10.96058657
_cell_angle_alpha   79.07172222
_cell_angle_beta   82.45563040
_cell_angle_gamma   71.43810556
_symmetry_Int_Tables_number   1
_chemical_formula_structural   CuH15C18S(N3O2)2
_chemical_formula_sum   'Cu2 H30 C36 S2 N12 O8'
_cell_volume   984.35963685
_cell_formula_units_Z   2
loop_
 _symmetry_equiv_pos_site_id
 _symmetry_equiv_pos_as_xyz
  1  'x, y, z'
loop_
 _atom_site_type_symbol
 _atom_site_label
 _atom_site_symmetry_multiplicity
 _atom_site_fract_x
 _atom_site_fract_y
 _atom_site_fract_z
 _atom_site_occupancy
 _atom_site_hle17_ddec_charge
 _atom_site_hle17_ddec_spin_density
 _atom_site_hle17_ddec_sum_bond_order
 _atom_site_hle17_magmom
 _atom_site_hse06_10hf_ddec_charge
 _atom_site_hse06_10hf_ddec_spin_density
 _atom_site_hse06_10hf_ddec_sum_bond_order
 _atom_site_hse06_10hf_magmom
 _atom_site_hse06_ddec_charge
 _atom_site_hse06_ddec_spin_density
 _atom_site_hse06_ddec_sum_bond_order
 _atom_site_hse06_magmom
 _atom_site_pbe_cm5_charge
 _atom_site_pbe_ddec_charge
 _atom_site_pbe_ddec_spin_density
 _atom_site_pbe_ddec_sum_bond_order
 _atom_site_pbe_magmom
Cu  Cu0  1  0.56960064  0.82723724  0.51296527  1  0.853215  0.689897  1.856156  0.517  0.834628  0.777945  2.23705  0.632  0.919189  0.839578  2.175824  0.713  0.775664  0.781884  0.734856  2.281042  0.578
Cu  Cu1  1  0.43039865  0.17275975  0.48703422  1  0.853326  0.689921  1.85616  0.517  0.834691  0.77793  2.237094  0.632  0.919202  0.839553  2.175856  0.713  0.775678  0.781958  0.734858  2.281086  0.578
H  H2  1  0.41198703  0.85959581  0.78022905  1  0.112746  2.6e-05  0.980082  0.001  0.117385  7.1e-05  1.051544  0.0  0.120879  3.4e-05  1.047027  0.0  0.135011  0.114428  9e-05  1.054976  0.0
H  H3  1  0.58801907  0.14041011  0.21976220  1  0.112842  2.4e-05  0.979894  0.001  0.117479  7.1e-05  1.051352  0.0  0.120979  3.3e-05  1.046826  0.0  0.134997  0.114498  9e-05  1.054816  0.0
H  H4  1  0.27808460  0.73305674  0.48019076  1  0.114392  9.4e-05  0.951776  0.0  0.122789  0.000247  1.012128  0.001  0.125184  0.000173  1.010879  0.0  0.121649  0.120741  0.000302  1.01349  0.001
H  H5  1  0.72191371  0.26694347  0.51981089  1  0.114394  9.1e-05  0.951783  0.0  0.122789  0.000248  1.01214  0.001  0.125177  0.000174  1.010899  0.0  0.121652  0.120746  0.000302  1.013499  0.001
H  H6  1  0.06213522  0.72822241  0.68087832  1  0.116956  0.00051  0.963537  0.001  0.12524  0.000462  1.026943  0.001  0.127851  0.000357  1.025907  0.0  0.122257  0.123427  0.000533  1.027569  0.001
H  H7  1  0.93787098  0.27177663  0.31912172  1  0.116985  0.000508  0.963586  0.001  0.125272  0.000462  1.026989  0.001  0.12788  0.000357  1.025955  0.0  0.12227  0.123458  0.000533  1.027611  0.001
H  H8  1  0.34966342  0.75945339  0.98198043  1  0.113868  2.6e-05  0.930457  0.0  0.128668  2.6e-05  0.981465  0.0  0.131473  2.1e-05  0.980139  0.0  0.113459  0.126726  1.4e-05  0.982164  0.0
H  H9  1  0.65034425  0.24055832  0.01802399  1  0.11392  2.7e-05  0.930395  0.0  0.128664  2.6e-05  0.981462  0.0  0.131467  2.1e-05  0.98014  0.0  0.113482  0.126734  1.4e-05  0.982158  0.0
H  H10  1  0.91916673  0.86191463  0.82516299  1  0.126812  -2.3e-05  0.997286  0.0  0.134056  1.2e-05  1.061014  0.0  0.138014  3e-06  1.058311  0.0  0.108064  0.130948  3.2e-05  1.063378  0.0
H  H11  1  0.08083427  0.13809066  0.17483633  1  0.126816  -2e-05  0.997322  0.0  0.134047  1.2e-05  1.061055  0.0  0.138018  3e-06  1.058344  0.0  0.108051  0.130936  3.2e-05  1.063425  0.0
H  H12  1  0.68580380  0.75479329  0.79595008  1  0.11423  -6.6e-05  0.979403  0.0  0.118038  6.2e-05  1.049846  0.0  0.121861  2.2e-05  1.044931  0.0  0.137083  0.11506  8.3e-05  1.053242  0.0
H  H13  1  0.31420004  0.24519961  0.20405157  1  0.114261  -7.1e-05  0.979442  0.0  0.118063  6.2e-05  1.049872  0.0  0.121886  2.2e-05  1.044959  0.0  0.137071  0.11508  8.3e-05  1.053277  0.0
H  H14  1  0.80581640  0.52726752  0.49554894  1  0.103102  9e-05  0.948215  0.0  0.112658  0.000228  1.007868  0.0  0.114584  0.000127  1.007299  0.0  0.119792  0.11151  0.000322  1.007861  0.001
H  H15  1  0.19418690  0.47273032  0.50444714  1  0.103086  9e-05  0.948407  0.0  0.112662  0.000227  1.008012  0.0  0.114589  0.000126  1.007443  0.0  0.119767  0.11151  0.000322  1.008006  0.001
H  H16  1  0.00039561  0.39131107  0.68020298  1  0.106983  0.000287  1.010914  0.0  0.111191  0.00033  1.082146  0.0  0.113526  0.000235  1.081855  0.0  0.11878  0.109337  0.000391  1.082713  0.001
H  H17  1  0.99960566  0.60868662  0.31979631  1  0.107021  0.000293  1.010905  0.0  0.111228  0.00033  1.082125  0.0  0.11357  0.000235  1.081824  0.0  0.118786  0.109369  0.00039  1.082701  0.001
H  H18  1  0.15919128  0.46098830  0.80234757  1  0.105242  -2.3e-05  0.941838  0.0  0.11768  3e-06  1.000351  0.0  0.120074  0.0  0.999469  0.0  0.111954  0.116399  1.3e-05  1.000169  0.0
H  H19  1  0.84081300  0.53899638  0.19765672  1  0.105274  -2e-05  0.941798  0.0  0.117792  3e-06  1.000232  0.0  0.120186  0.0  0.999352  0.0  0.111974  0.116509  1.3e-05  1.000055  0.0
H  H20  1  0.72044378  0.59151379  0.99920872  1  0.116472  2.8e-05  0.919584  0.0  0.133265  2.4e-05  0.965452  0.0  0.135852  1.6e-05  0.96465  0.0  0.120068  0.131336  3e-05  0.966178  0.0
H  H21  1  0.27955986  0.40847271  0.00078978  1  0.116455  3.5e-05  0.919518  0.0  0.133245  2.3e-05  0.965418  0.0  0.135832  1.6e-05  0.964615  0.0  0.120061  0.131317  3e-05  0.966145  0.0
H  H22  1  0.70852642  0.80629124  0.22704702  1  0.112864  -4.4e-05  0.949539  0.0  0.119645  4.3e-05  1.015666  0.0  0.122806  2e-05  1.011275  0.0  0.138571  0.116912  9.1e-05  1.019329  0.0
H  H23  1  0.29148262  0.19369516  0.77294993  1  0.112829  -4.7e-05  0.949683  0.0  0.119591  4.3e-05  1.015829  0.0  0.122771  2e-05  1.011411  0.0  0.138559  0.116859  9e-05  1.019489  0.0
H  H24  1  0.86358822  0.89689802  0.53578975  1  0.124194  0.000136  0.978882  0.0  0.129244  0.000256  1.042899  0.001  0.132487  0.000185  1.041181  0.0  0.118132  0.126548  0.000336  1.044663  0.001
H  H25  1  0.13639969  0.10311460  0.46420864  1  0.124219  0.000132  0.978894  0.0  0.129202  0.000257  1.042982  0.001  0.132448  0.000185  1.041269  0.0  0.118113  0.126504  0.000336  1.04475  0.001
H  H26  1  0.07738849  0.90768013  0.33363799  1  0.142252  0.000235  1.00533  0.001  0.148578  0.000218  1.066469  0.001  0.152478  0.000143  1.064072  0.0  0.124177  0.145008  0.000451  1.069509  0.001
H  H27  1  0.92260681  0.09231571  0.66635858  1  0.142195  0.000237  1.005482  0.001  0.148518  0.000218  1.066639  0.001  0.152412  0.000143  1.06425  0.0  0.124154  0.144957  0.000452  1.069677  0.001
H  H28  1  0.21960201  0.78657407  0.18843607  1  0.122409  -1.5e-05  0.956678  0.0  0.131543  7e-06  1.018352  0.0  0.134823  1.2e-05  1.016296  0.0  0.110375  0.129112  3.7e-05  1.019752  0.0
H  H29  1  0.78039405  0.21342296  0.81156381  1  0.122339  -1.7e-05  0.956631  0.0  0.131497  7e-06  1.018292  0.0  0.134775  1.2e-05  1.016239  0.0  0.110378  0.129069  3.7e-05  1.019692  0.0
H  H30  1  0.78881389  0.88795526  0.03062498  1  0.121989  6.9e-05  0.925345  0.0  0.135885  6.4e-05  0.977834  0.0  0.138662  4.4e-05  0.976788  0.0  0.116531  0.133623  6.4e-05  0.978801  0.0
H  H31  1  0.21119036  0.11203977  0.96937799  1  0.121971  6.5e-05  0.925399  0.0  0.135938  6.5e-05  0.977793  0.0  0.138714  4.4e-05  0.976749  0.0  0.116544  0.133661  6.4e-05  0.978782  0.0
C  C32  1  0.35035565  0.81843105  0.72716236  1  0.167207  -0.011061  3.589084  -0.006  0.109122  -0.004229  3.856694  -0.002  0.125118  -0.005537  3.868206  -0.003  0.141231  0.09848  -0.003267  3.849308  -0.001
C  C33  1  0.64965358  0.18157191  0.27283281  1  0.167058  -0.011036  3.589005  -0.006  0.109  -0.004232  3.856601  -0.002  0.124988  -0.005535  3.868119  -0.003  0.141336  0.09838  -0.003266  3.849229  -0.001
C  C34  1  0.27451599  0.75486181  0.57368672  1  0.005618  -0.00088  3.736572  0.0  -0.023162  0.000887  4.000835  0.002  -0.019783  -4e-05  4.021051  0.001  0.002188  -0.025284  0.001575  3.987295  0.002
C  C35  1  0.72548523  0.24513931  0.42631255  1  0.005607  -0.000869  3.736502  0.0  -0.023177  0.000884  4.000772  0.002  -0.019791  -4.3e-05  4.020983  0.001  0.002191  -0.025297  0.001574  3.987228  0.002
C  C36  1  0.16808817  0.75138807  0.67197176  1  -0.067892  0.004248  3.670249  0.004  -0.106083  0.002297  3.926356  0.003  -0.104742  0.002023  3.9451  0.002  -0.001434  -0.106264  0.002541  3.912605  0.003
C  C37  1  0.83191597  0.24861408  0.32802785  1  -0.067999  0.004253  3.670252  0.004  -0.106194  0.002296  3.926382  0.003  -0.104848  0.002022  3.945118  0.002  -0.001431  -0.106365  0.002541  3.912623  0.003
C  C38  1  0.14363560  0.80399965  0.89016229  1  0.167606  0.000975  3.784026  0.001  0.156725  0.000416  4.039035  0.001  0.161403  0.000286  4.061931  0.0  0.088601  0.153153  0.000557  4.024798  0.001
C  C39  1  0.85638033  0.19599909  0.10983298  1  0.16746  0.001003  3.783957  0.001  0.156717  0.000416  4.038796  0.001  0.161326  0.000287  4.061779  0.0  0.088585  0.153148  0.000557  4.024563  0.001
C  C40  1  0.22703441  0.78541161  0.99251802  1  -0.131823  -0.000104  3.730587  0.0  -0.153049  -2.9e-05  3.983132  0.0  -0.15617  -4.2e-05  4.003459  0.0  -0.08651  -0.150942  -4.3e-05  3.97022  0.0
C  C41  1  0.77297719  0.21458740  0.00748228  1  -0.131874  -0.000136  3.730706  0.0  -0.153113  -2.9e-05  3.983258  0.0  -0.156208  -4.3e-05  4.003598  0.0  -0.086496  -0.151013  -4.3e-05  3.970357  0.0
C  C42  1  0.98655346  0.83843782  0.90497657  1  -0.13373  0.000228  3.724344  0.0  -0.157828  8.2e-05  3.981754  0.0  -0.160827  1.5e-05  4.002024  0.0  -0.092761  -0.156236  0.000202  3.969608  0.0
C  C43  1  0.01345729  0.16155700  0.09502292  1  -0.133536  0.000181  3.724357  0.0  -0.157629  8.4e-05  3.981625  0.0  -0.160613  1.5e-05  4.001916  0.0  -0.092681  -0.156039  0.000201  3.969484  0.0
C  C44  1  0.74058994  0.67257147  0.74026329  1  0.17156  -0.008779  3.581425  -0.005  0.116812  -0.002377  3.84795  -0.001  0.133502  -0.003858  3.857633  -0.002  0.146201  0.105613  -0.001194  3.841773  0.0
C  C45  1  0.25941400  0.32742447  0.25973678  1  0.171481  -0.008691  3.581483  -0.005  0.116757  -0.002379  3.84795  -0.001  0.133444  -0.003854  3.857636  -0.002  0.146138  0.105556  -0.001193  3.841784  0.0
C  C46  1  0.80957512  0.55414185  0.58567844  1  0.004522  -0.0026  3.756134  -0.001  -0.023797  -0.000601  4.021271  0.0  -0.020898  -0.001564  4.041791  -0.001  -0.000603  -0.026062  0.000164  4.0081  0.001
C  C47  1  0.19042222  0.44585120  0.41432579  1  0.004408  -0.002525  3.75627  -0.001  -0.023945  -0.0006  4.021399  0.0  -0.021049  -0.001559  4.041916  -0.001  -0.000678  -0.026206  0.000164  4.00822  0.001
C  C48  1  0.90740449  0.48596972  0.67567966  1  -0.063901  0.003674  3.681694  0.004  -0.102582  0.001935  3.938457  0.002  -0.100689  0.001759  3.956931  0.002  -0.002432  -0.103433  0.002095  3.925747  0.002
C  C49  1  0.09259395  0.51402315  0.32432083  1  -0.063897  0.003605  3.68166  0.004  -0.102583  0.001935  3.93845  0.002  -0.100693  0.001757  3.95692  0.002  -0.00239  -0.103429  0.002094  3.925728  0.002
C  C50  1  0.93193384  0.52934753  0.88825703  1  0.17613  0.000695  3.772757  0.001  0.167299  0.000633  4.023791  0.001  0.171925  0.000479  4.047019  0.001  0.099398  0.163692  0.000738  4.009716  0.001
C  C51  1  0.06806437  0.47064955  0.11174439  1  0.176006  0.000776  3.772696  0.001  0.167148  0.000626  4.023834  0.001  0.171774  0.000485  4.047063  0.001  0.099339  0.163541  0.000738  4.009758  0.001
C  C52  1  0.08910382  0.47660091  0.88905493  1  -0.125736  9.9e-05  3.736982  0.0  -0.150305  7.8e-05  3.996615  0.0  -0.152789  3.4e-05  4.017173  0.0  -0.081808  -0.149285  0.000195  3.984189  0.0
C  C53  1  0.91091028  0.52338682  0.11094934  1  -0.125813  -8e-06  3.737021  0.0  -0.150473  8.3e-05  3.996677  0.0  -0.15296  2.5e-05  4.017236  0.0  -0.081848  -0.149453  0.000195  3.984253  0.0
C  C54  1  0.84293846  0.55230970  0.99938911  1  -0.112685  -7.5e-05  3.718255  0.0  -0.133208  -3.2e-05  3.968362  0.0  -0.135884  -6.3e-05  3.988816  0.0  -0.075824  -0.13164  -3.7e-05  3.956222  0.0
C  C55  1  0.15707069  0.44767971  0.00060535  1  -0.112624  -0.000222  3.718136  0.0  -0.133173  -2.3e-05  3.968275  0.0  -0.135848  -7.1e-05  3.988727  0.0  -0.075878  -0.131606  -3.7e-05  3.956135  0.0
C  C56  1  0.78201636  0.82771278  0.28415213  1  0.139203  -0.009216  3.632296  -0.005  0.083224  -0.001966  3.906416  0.0  0.098553  -0.003419  3.917564  -0.001  0.136682  0.072879  -0.000932  3.900414  0.001
C  C57  1  0.21798057  0.17227801  0.71584807  1  0.139166  -0.00916  3.632346  -0.005  0.083168  -0.001964  3.906472  0.0  0.098493  -0.003419  3.917592  -0.001  0.13665  0.072827  -0.000932  3.900464  0.001
C  C58  1  0.86843616  0.87314309  0.44252233  1  0.004936  -0.003447  3.693775  -0.002  -0.023169  -0.001074  3.959101  0.0  -0.020944  -0.002113  3.980302  -0.001  -0.004303  -0.024563  -0.000297  3.945894  0.0
C  C59  1  0.13155458  0.12686731  0.55747346  1  0.004998  -0.003365  3.694105  -0.002  -0.023073  -0.001073  3.95941  0.0  -0.020857  -0.002117  3.980618  -0.001  -0.004281  -0.024474  -0.000296  3.946212  0.0
C  C60  1  0.97395233  0.87847088  0.34404259  1  -0.066934  0.005593  3.621543  0.006  -0.105141  0.002567  3.875712  0.003  -0.104146  0.002163  3.893338  0.002  -0.001537  -0.106119  0.002536  3.865312  0.003
C  C61  1  0.02603888  0.12153098  0.65594860  1  -0.066888  0.005546  3.621456  0.006  -0.105107  0.002566  3.875634  0.003  -0.104104  0.002163  3.893258  0.002  -0.00154  -0.106088  0.002537  3.865231  0.003
C  C62  1  0.99502829  0.83575664  0.12420632  1  0.16204  0.000932  3.788731  0.001  0.151514  0.000441  4.041294  0.001  0.155734  0.000361  4.064854  0.001  0.090243  0.148555  0.000677  4.02633  0.001
C  C63  1  0.00497455  0.16423947  0.87579750  1  0.16202  0.000908  3.788711  0.001  0.151444  0.000446  4.041362  0.001  0.155676  0.000362  4.064913  0.001  0.090228  0.148489  0.000677  4.02639  0.001
C  C64  1  0.15283754  0.80082192  0.10990756  1  -0.121021  0.00032  3.712239  0.0  -0.142309  0.000155  3.966481  0.0  -0.144735  5.9e-05  3.986416  0.0  -0.085525  -0.140912  0.00021  3.954019  0.0
C  C65  1  0.84716519  0.19918128  0.89009199  1  -0.120897  0.000344  3.712225  0.0  -0.142192  0.000152  3.966476  0.0  -0.144621  5.9e-05  3.986407  0.0  -0.08551  -0.14079  0.00021  3.954012  0.0
C  C66  1  0.91199252  0.85533389  0.02180149  1  -0.127893  -0.000122  3.73608  0.0  -0.147075  -8.1e-05  3.987898  0.0  -0.15049  -0.000127  4.01004  0.0  -0.085223  -0.144786  6.9e-05  3.973937  0.0
C  C67  1  0.08801173  0.14466109  0.97820057  1  -0.127963  -6.6e-05  3.736196  0.0  -0.147169  -8.8e-05  3.988011  0.0  -0.150589  -0.000128  4.010152  0.0  -0.085224  -0.144863  6.9e-05  3.974053  0.0
S  S68  1  0.38652635  0.96230308  0.27813761  1  1.528314  -0.007273  5.855594  -0.005  1.430001  1.6e-05  6.40115  -0.001  1.489752  6.9e-05  6.367195  0.0  0.535219  1.387177  0.000176  6.422638  -0.001
S  S69  1  0.61345728  0.03772380  0.72187647  1  1.527709  -0.007288  5.853928  -0.005  1.429467  2.8e-05  6.399489  -0.001  1.489224  8.2e-05  6.365526  0.0  0.535018  1.386648  0.000177  6.420972  -0.001
N  N70  1  0.38648526  0.79675442  0.60974977  1  -0.335551  0.063224  3.344334  0.083  -0.292261  0.045892  3.657606  0.064  -0.321913  0.03787  3.676169  0.056  -0.373428  -0.274449  0.050083  3.64695  0.066
N  N71  1  0.61351770  0.20324458  0.39024884  1  -0.335475  0.063218  3.344203  0.083  -0.292197  0.045896  3.657491  0.064  -0.321832  0.037873  3.676035  0.056  -0.373411  -0.274386  0.050086  3.646829  0.066
N  N72  1  0.21784581  0.79087278  0.76915429  1  -0.08596  0.00109  3.5924  0.002  0.004153  0.000832  3.802479  0.002  -0.01024  0.000505  3.827154  0.001  -0.223614  0.01388  0.001128  3.785739  0.002
N  N73  1  0.78216482  0.20912912  0.23084094  1  -0.085946  0.001076  3.592278  0.002  0.004108  0.000833  3.802377  0.002  -0.010265  0.000504  3.82707  0.001  -0.223831  0.013831  0.001127  3.785635  0.002
N  N74  1  0.70755469  0.67012848  0.62654362  1  -0.34539  0.063424  3.313894  0.083  -0.304317  0.052192  3.623641  0.073  -0.33286  0.043127  3.641306  0.065  -0.360444  -0.286774  0.057109  3.613313  0.076
N  N75  1  0.29244990  0.32986535  0.37345592  1  -0.345356  0.063388  3.313871  0.083  -0.304229  0.052185  3.623549  0.073  -0.332761  0.043119  3.6412  0.065  -0.360337  -0.286691  0.0571  3.613224  0.076
N  N76  1  0.86251948  0.56125169  0.77391309  1  -0.095447  0.001683  3.58843  0.003  -0.005407  0.001723  3.798068  0.003  -0.020173  0.001244  3.822243  0.002  -0.224931  0.004753  0.002066  3.781511  0.003
N  N77  1  0.13748014  0.43874434  0.22608840  1  -0.095383  0.00168  3.588452  0.003  -0.005342  0.001724  3.798097  0.003  -0.020107  0.001242  3.822272  0.002  -0.224941  0.004819  0.002066  3.781536  0.003
N  N78  1  0.75117422  0.84065527  0.40382872  1  -0.337796  0.06909  3.3735  0.09  -0.29566  0.049082  3.687436  0.068  -0.32552  0.040302  3.708242  0.06  -0.377511  -0.278629  0.052401  3.676809  0.069
N  N79  1  0.24881946  0.15934570  0.59616602  1  -0.337954  0.069069  3.373741  0.09  -0.295744  0.049086  3.687592  0.068  -0.325592  0.040307  3.70838  0.06  -0.37753  -0.278709  0.052409  3.676959  0.069
N  N80  1  0.91838927  0.84982785  0.24402766  1  -0.095871  0.001567  3.612587  0.003  -0.006773  0.001364  3.823779  0.002  -0.020996  0.000823  3.848841  0.002  -0.23058  0.003014  0.001646  3.807039  0.002
N  N81  1  0.08161090  0.15016290  0.75597217  1  -0.095707  0.001557  3.612133  0.003  -0.006617  0.001363  3.823377  0.002  -0.020853  0.000823  3.848443  0.002  -0.230505  0.00317  0.001645  3.806639  0.002
O  O82  1  0.44140519  0.04853742  0.16981627  1  -0.707262  0.014753  1.853862  0.02  -0.671837  0.006879  2.089311  0.01  -0.695211  0.00379  2.072696  0.006  -0.379531  -0.652377  0.011442  2.099021  0.015
O  O83  1  0.55854732  0.95148583  0.83020419  1  -0.707135  0.014734  1.853225  0.02  -0.671707  0.006867  2.088634  0.01  -0.695078  0.003785  2.072034  0.006  -0.379527  -0.652258  0.011429  2.098346  0.015
O  O84  1  0.21964480  0.01367678  0.29827959  1  -0.721312  0.012468  1.982835  0.017  -0.673819  0.00585  2.229988  0.009  -0.698344  0.003162  2.215384  0.005  -0.362738  -0.656003  0.0072  2.240534  0.01
O  O85  1  0.78035862  0.98632852  0.70174317  1  -0.720986  0.01246  1.982079  0.017  -0.673519  0.005851  2.229219  0.009  -0.698023  0.00316  2.214604  0.005  -0.362607  -0.655735  0.007198  2.23979  0.01
O  O86  1  0.44813978  0.98386656  0.39507462  1  -0.733334  0.101097  2.102262  0.143  -0.723583  0.057156  2.438107  0.087  -0.768771  0.039502  2.4254  0.066  -0.389998  -0.690713  0.070621  2.446868  0.102
O  O87  1  0.55185372  0.01613783  0.60490387  1  -0.733454  0.101131  2.101723  0.143  -0.723706  0.057188  2.43748  0.087  -0.768964  0.039522  2.424915  0.066  -0.390059  -0.690836  0.070644  2.44624  0.102
O  O88  1  0.44168088  0.81333517  0.27023037  1  -0.725313  0.007185  1.825029  0.011  -0.697972  -8.5e-05  2.060482  0.001  -0.719578  -0.001771  2.041495  -0.001  -0.39059  -0.679708  0.002695  2.071316  0.005
O  O89  1  0.55828539  0.18670837  0.72975846  1  -0.724969  0.007171  1.825119  0.011  -0.697607  -0.000104  2.060525  0.001  -0.719204  -0.001775  2.041534  -0.001  -0.390318  -0.679353  0.002681  2.071372  0.005
