# generated using pymatgen
data_SrH12C14(BrO3)2
_symmetry_space_group_name_H-M   'P 1'
_cell_length_a   8.01113648
_cell_length_b   11.52639732
_cell_length_c   18.74000000
_cell_angle_alpha   90.00000000
_cell_angle_beta   90.00000000
_cell_angle_gamma   90.00000000
_symmetry_Int_Tables_number   1
_chemical_formula_structural   SrH12C14(BrO3)2
_chemical_formula_sum   'Sr4 H48 C56 Br8 O24'
_cell_volume   1730.44301765
_cell_formula_units_Z   4
loop_
 _symmetry_equiv_pos_site_id
 _symmetry_equiv_pos_as_xyz
  1  'x, y, z'
loop_
 _atom_site_type_symbol
 _atom_site_label
 _atom_site_symmetry_multiplicity
 _atom_site_fract_x
 _atom_site_fract_y
 _atom_site_fract_z
 _atom_site_occupancy
 _atom_site_hle17_bader_spin_density
 _atom_site_hle17_ddec_charge
 _atom_site_hle17_ddec_spin_density
 _atom_site_hle17_ddec_sum_bond_order
 _atom_site_hle17_magmom
 _atom_site_hse06_10hf_bader_spin_density
 _atom_site_hse06_10hf_ddec_charge
 _atom_site_hse06_10hf_ddec_spin_density
 _atom_site_hse06_10hf_ddec_sum_bond_order
 _atom_site_hse06_10hf_magmom
 _atom_site_hse06_bader_spin_density
 _atom_site_hse06_ddec_charge
 _atom_site_hse06_ddec_spin_density
 _atom_site_hse06_ddec_sum_bond_order
 _atom_site_hse06_magmom
 _atom_site_pbe_bader_charge
 _atom_site_pbe_bader_spin_density
 _atom_site_pbe_cm5_charge
 _atom_site_pbe_ddec_charge
 _atom_site_pbe_ddec_spin_density
 _atom_site_pbe_ddec_sum_bond_order
 _atom_site_pbe_magmom
Sr  Sr0  1  0.74999846  0.05297405  0.50000107  1  0  1.6258  0  1.108766  0  0  1.483986  0  1.479795  0  0  1.522749  0  1.433548  0  1.681697  0  0.966075  1.455533  0  1.512528  0
Sr  Sr1  1  0.24999574  0.44702519  0.99999680  1  0  1.625806  0  1.108843  0  0  1.484026  0  1.479835  0  0  1.522787  0  1.433588  0  1.681688  0  0.966097  1.455572  0  1.512569  0
Sr  Sr2  1  0.25000198  0.94702444  0.50000053  1  0  1.625808  0  1.108795  0  0  1.483956  0  1.479896  0  0  1.522723  0  1.433644  0  1.681674  0  0.966065  1.455502  0  1.51263  0
Sr  Sr3  1  0.75000470  0.55297417  0.00000213  1  0  1.625777  0  1.108908  0  0  1.483982  0  1.479927  0  0  1.522745  0  1.433679  0  1.681664  0  0.966094  1.455529  0  1.512662  0
H  H4  1  0.01542228  0.17258125  0.59685486  1  0  0.437132  0  0.863089  0  0  0.402627  0  0.9327  0  0  0.414469  0  0.915312  0  0.675636  0  0.293326  0.394247  0  0.944981  0
H  H5  1  0.51542125  0.32742147  0.90314514  1  0  0.437125  0  0.863106  0  0  0.402583  0  0.932745  0  0  0.414426  0  0.915358  0  0.675501  0  0.293319  0.394206  0  0.945023  0
H  H6  1  0.48457794  0.17258298  0.40314514  1  0  0.437138  0  0.863076  0  0  0.402633  0  0.932686  0  0  0.414475  0  0.9153  0  0.675608  0  0.293338  0.394253  0  0.94497  0
H  H7  1  0.98457566  0.32741540  0.09685326  1  0  0.437139  0  0.863084  0  0  0.402608  0  0.932733  0  0  0.414451  0  0.915346  0  0.675594  0  0.293324  0.394228  0  0.945016  0
H  H8  1  0.98457816  0.82741899  0.40314408  1  0  0.43715  0  0.86306  0  0  0.402643  0  0.932674  0  0  0.414486  0  0.915287  0  0.675607  0  0.293334  0.394264  0  0.944956  0
H  H9  1  0.48457794  0.67257789  0.09685379  1  0  0.437128  0  0.863101  0  0  0.402589  0  0.932735  0  0  0.414433  0  0.915348  0  0.675499  0  0.293316  0.394212  0  0.945013  0
H  H10  1  0.51542250  0.82741725  0.59685432  1  0  0.43714  0  0.863076  0  0  0.402631  0  0.932693  0  0  0.414474  0  0.915306  0  0.675609  0  0.293331  0.394251  0  0.944977  0
H  H11  1  0.01542353  0.67258483  0.90314621  1  0  0.437132  0  0.863089  0  0  0.402617  0  0.932713  0  0  0.41446  0  0.915326  0  0.675604  0  0.293323  0.394237  0  0.944996  0
H  H12  1  0.85119259  0.21272041  0.63724013  1  0  0.388873  0  0.914346  0  0  0.356572  0  0.98288  0  0  0.366073  0  0.968869  0  0.596383  0  0.281355  0.349793  0  0.992875  0
H  H13  1  0.35119237  0.28728317  0.86275934  1  0  0.388835  0  0.914393  0  0  0.356527  0  0.982944  0  0  0.366029  0  0.968932  0  0.596421  0  0.281335  0.349751  0  0.992935  0
H  H14  1  0.64880557  0.21271955  0.36275987  1  0  0.388843  0  0.914383  0  0  0.356532  0  0.982934  0  0  0.366034  0  0.968923  0  0.596376  0  0.281339  0.349755  0  0.992926  0
H  H15  1  0.14880535  0.28728317  0.13723959  1  0  0.388848  0  0.914347  0  0  0.356527  0  0.982925  0  0  0.366029  0  0.968913  0  0.596411  0  0.281306  0.34975  0  0.992916  0
H  H16  1  0.14880660  0.78727808  0.36276041  1  0  0.388834  0  0.914386  0  0  0.356525  0  0.98294  0  0  0.366027  0  0.96893  0  0.596372  0  0.28134  0.349746  0  0.992936  0
H  H17  1  0.64880557  0.71271619  0.13724013  1  0  0.388863  0  0.914374  0  0  0.356554  0  0.982907  0  0  0.366056  0  0.968895  0  0.596382  0  0.281355  0.349779  0  0.992897  0
H  H18  1  0.35119487  0.78728242  0.63723959  1  0  0.388886  0  0.914348  0  0  0.356583  0  0.982868  0  0  0.366085  0  0.968856  0  0.596386  0  0.281358  0.349805  0  0.992861  0
H  H19  1  0.85119259  0.71271966  0.86276094  1  0  0.388872  0  0.914291  0  0  0.356555  0  0.98288  0  0  0.366057  0  0.968869  0  0.596415  0  0.281318  0.349777  0  0.992874  0
H  H20  1  0.84704461  0.53245692  0.75265208  1  0  0.10947  0  0.944535  0  0  0.117783  0  1.006879  0  0  0.122055  0  1.003728  0  0.095669  0  0.102832  0.114689  0  1.009288  0
H  H21  1  0.34704564  0.96754603  0.74735272  1  0  0.109419  0  0.944572  0  0  0.117753  0  1.006899  0  0  0.122009  0  1.003764  0  0.095721  0  0.102826  0.114658  0  1.009307  0
H  H22  1  0.65295230  0.53245605  0.24734472  1  0  0.109474  0  0.944595  0  0  0.117853  0  1.006878  0  0  0.122073  0  1.003781  0  0.095594  0  0.102846  0.114757  0  1.009278  0
H  H23  1  0.15297081  0.96753649  0.25265368  1  0  0.109469  0  0.944529  0  0  0.117804  0  1.006854  0  0  0.122051  0  1.003727  0  0.095647  0  0.102797  0.114706  0  1.009261  0
H  H24  1  0.15295083  0.46754331  0.24735005  1  0  0.109413  0  0.944609  0  0  0.117788  0  1.006903  0  0  0.122014  0  1.003801  0  0.095686  0  0.102827  0.11469  0  1.009309  0
H  H25  1  0.65296104  0.03245507  0.25265261  1  0  0.109449  0  0.944623  0  0  0.117779  0  1.006947  0  0  0.122037  0  1.003808  0  0.095597  0  0.102817  0.114684  0  1.009355  0
H  H26  1  0.34704689  0.46754505  0.75265315  1  0  0.109468  0  0.944568  0  0  0.117841  0  1.006851  0  0  0.122068  0  1.003746  0  0.095638  0  0.102837  0.114745  0  1.009258  0
H  H27  1  0.84702839  0.03246201  0.74734098  1  0  0.109389  0  0.944525  0  0  0.117713  0  1.006867  0  0  0.121972  0  1.003729  0  0.095547  0  0.102787  0.114616  0  1.009272  0
H  H28  1  0.01747442  0.40681922  0.67392423  1  0  0.077931  0  0.993449  0  0  0.081316  0  1.068868  0  0  0.084553  0  1.066644  0  0.096762  0  0.087672  0.079006  0  1.070454  0
H  H29  1  0.51747464  0.09319044  0.82607844  1  0  0.07798  0  0.993346  0  0  0.081362  0  1.068761  0  0  0.084599  0  1.066539  0  0.096808  0  0.08774  0.079055  0  1.070339  0
H  H30  1  0.48251955  0.40682183  0.32607471  1  0  0.077993  0  0.993385  0  0  0.081377  0  1.068798  0  0  0.08461  0  1.066575  0  0.096727  0  0.087715  0.079061  0  1.070405  0
H  H31  1  0.98254099  0.09317829  0.17392796  1  0  0.077988  0  0.993423  0  0  0.081378  0  1.068804  0  0  0.084609  0  1.066574  0  0.096752  0  0.087725  0.079065  0  1.070403  0
H  H32  1  0.98251478  0.59318014  0.32607684  1  0  0.077941  0  0.99337  0  0  0.081311  0  1.068816  0  0  0.084548  0  1.066593  0  0.096737  0  0.0877  0.079001  0  1.070399  0
H  H33  1  0.48253079  0.90681153  0.17392529  1  0  0.078033  0  0.993344  0  0  0.08141  0  1.068767  0  0  0.084647  0  1.066542  0  0.09661  0  0.087751  0.079106  0  1.070336  0
H  H34  1  0.51747215  0.59318274  0.67392369  1  0  0.077975  0  0.993401  0  0  0.081344  0  1.068813  0  0  0.084579  0  1.066587  0  0.096688  0  0.087692  0.079024  0  1.070427  0
H  H35  1  0.01745570  0.90682021  0.82606884  1  0  0.078009  0  0.99342  0  0  0.081404  0  1.068801  0  0  0.084634  0  1.066569  0  0.096688  0  0.087701  0.079094  0  1.070388  0
H  H36  1  0.12247700  0.48286293  0.55743063  1  0  0.092894  0  0.947515  0  0  0.105707  0  1.004025  0  0  0.107766  0  1.004578  0  0.070456  0  0.102149  0.104222  0  1.003765  0
H  H37  1  0.62249096  0.01713371  0.94257311  1  0  0.092862  0  0.947482  0  0  0.105692  0  1.003981  0  0  0.107748  0  1.004533  0  0.070225  0  0.102134  0.104195  0  1.003735  0
H  H38  1  0.37751198  0.48287247  0.44256777  1  0  0.092883  0  0.947477  0  0  0.105708  0  1.00397  0  0  0.107762  0  1.004515  0  0.070421  0  0.102134  0.104201  0  1.003735  0
H  H39  1  0.87752718  0.01713718  0.05743383  1  0  0.09287  0  0.947399  0  0  0.105678  0  1.003942  0  0  0.107731  0  1.004487  0  0.070553  0  0.102141  0.104154  0  1.003723  0
H  H40  1  0.87751595  0.51712863  0.44257257  1  0  0.092945  0  0.947433  0  0  0.105758  0  1.003921  0  0  0.107819  0  1.004474  0  0.070381  0  0.102164  0.10427  0  1.003665  0
H  H41  1  0.37751947  0.98286305  0.05743116  1  0  0.092929  0  0.947408  0  0  0.105739  0  1.003918  0  0  0.107797  0  1.004465  0  0.070314  0  0.102151  0.104221  0  1.003694  0
H  H42  1  0.62247598  0.51713730  0.55742903  1  0  0.092895  0  0.94748  0  0  0.105703  0  1.003991  0  0  0.107767  0  1.004544  0  0.070492  0  0.102146  0.104219  0  1.003731  0
H  H43  1  0.12246452  0.98286131  0.94256457  1  0  0.092835  0  0.947351  0  0  0.105647  0  1.003893  0  0  0.107698  0  1.00444  0  0.070591  0  0.102097  0.104138  0  1.003662  0
H  H44  1  0.04911787  0.68392142  0.51970384  1  0  0.10442  0  0.957169  0  0  0.11498  0  1.017883  0  0  0.118417  0  1.015669  0  0.103383  0  0.113311  0.112512  0  1.019518  0
H  H45  1  0.54913058  0.81607025  0.98029776  1  0  0.104416  0  0.95701  0  0  0.114912  0  1.017835  0  0  0.118347  0  1.01562  0  0.103332  0  0.113271  0.112443  0  1.019472  0
H  H46  1  0.45088234  0.68393183  0.48029509  1  0  0.104515  0  0.956921  0  0  0.115059  0  1.017641  0  0  0.118501  0  1.015425  0  0.103361  0  0.113362  0.112588  0  1.01928  0
H  H47  1  0.95087508  0.81607633  0.01970438  1  0  0.104559  0  0.956911  0  0  0.115074  0  1.017677  0  0  0.118513  0  1.01546  0  0.10349  0  0.113371  0.112604  0  1.019315  0
H  H48  1  0.95088756  0.31607187  0.48030096  1  0  0.104413  0  0.957051  0  0  0.114935  0  1.01783  0  0  0.118379  0  1.015593  0  0.103778  0  0.113299  0.112463  0  1.019475  0
H  H49  1  0.45087236  0.18392564  0.01970544  1  0  0.104569  0  0.956914  0  0  0.115089  0  1.017689  0  0  0.118528  0  1.015471  0  0.103472  0  0.113353  0.112619  0  1.019327  0
H  H50  1  0.54911560  0.31607621  0.51970171  1  0  0.104454  0  0.95704  0  0  0.115015  0  1.017744  0  0  0.118455  0  1.015533  0  0.103309  0  0.113339  0.112546  0  1.019381  0
H  H51  1  0.04912287  0.18392217  0.98029296  1  0  0.104604  0  0.956861  0  0  0.11515  0  1.017608  0  0  0.118592  0  1.015397  0  0.103534  0  0.113396  0.112677  0  1.019251  0
C  C52  1  0.86157064  0.84033803  0.58613874  1  0  0.686249  0  3.917158  0  0  0.634435  0  4.212928  0  0  0.66897  0  4.203431  0  1.599738  0  0.215821  0.611006  0  4.21861  0
C  C53  1  0.36158415  0.65965711  0.91386126  1  0  0.686139  0  3.917191  0  0  0.634294  0  4.213059  0  0  0.668824  0  4.203569  0  1.599965  0  0.21579  0.610863  0  4.218743  0
C  C54  1  0.63843876  0.84034237  0.41385752  1  0  0.686239  0  3.917142  0  0  0.634455  0  4.212907  0  0  0.668989  0  4.203411  0  1.599765  0  0.21586  0.611023  0  4.218592  0
C  C55  1  0.13843729  0.65965972  0.08614248  1  0  0.686088  0  3.917195  0  0  0.634361  0  4.212837  0  0  0.668898  0  4.203342  0  1.599536  0  0.215825  0.61093  0  4.218522  0
C  C56  1  0.13843729  0.15965787  0.41386126  1  0  0.686263  0  3.91723  0  0  0.634506  0  4.212906  0  0  0.669042  0  4.203411  0  1.59974  0  0.21594  0.611076  0  4.21859  0
C  C57  1  0.63842003  0.34034225  0.08613874  1  0  0.686214  0  3.916983  0  0  0.634438  0  4.212755  0  0  0.668968  0  4.203263  0  1.599787  0  0.215826  0.611008  0  4.218439  0
C  C58  1  0.36157167  0.15966220  0.58613874  1  0  0.686125  0  3.917051  0  0  0.634324  0  4.212849  0  0  0.668856  0  4.203355  0  1.59973  0  0.215783  0.610893  0  4.218531  0
C  C59  1  0.86155317  0.34034052  0.91385592  1  0  0.68622  0  3.917245  0  0  0.634446  0  4.212941  0  0  0.668981  0  4.203445  0  1.599886  0  0.215849  0.611015  0  4.218625  0
C  C60  1  0.90365331  0.72115595  0.61341569  1  0  -0.108303  0  3.743938  0  0  -0.094755  0  3.983559  0  0  -0.100845  0  4.0039  0  0.075394  0  -0.021217  -0.090892  0  3.970011  0
C  C61  1  0.40366308  0.77884180  0.88658538  1  0  -0.108238  0  3.743678  0  0  -0.094756  0  3.983372  0  0  -0.100844  0  4.003711  0  0.075409  0  -0.021217  -0.09089  0  3.969828  0
C  C62  1  0.59635109  0.72115855  0.38658378  1  0  -0.108563  0  3.744125  0  0  -0.095099  0  3.983785  0  0  -0.10119  0  4.004127  0  0.075367  0  -0.021282  -0.091231  0  3.970239  0
C  C63  1  0.09634588  0.77883919  0.11341515  1  0  -0.108383  0  3.74415  0  0  -0.094901  0  3.983763  0  0  -0.100993  0  4.004104  0  0.075344  0  -0.021258  -0.091036  0  3.970219  0
C  C64  1  0.09634963  0.27884168  0.38658751  1  0  -0.108411  0  3.744047  0  0  -0.094877  0  3.983627  0  0  -0.100963  0  4.003956  0  0.075379  0  -0.021207  -0.09101  0  3.970081  0
C  C65  1  0.59634485  0.22115583  0.11341622  1  0  -0.108209  0  3.743812  0  0  -0.094818  0  3.983578  0  0  -0.100904  0  4.003917  0  0.075344  0  -0.021188  -0.090954  0  3.970032  0
C  C66  1  0.40364560  0.27884602  0.61341355  1  0  -0.108247  0  3.743787  0  0  -0.094814  0  3.983498  0  0  -0.100897  0  4.003823  0  0.074826  0  -0.021146  -0.090949  0  3.969951  0
C  C67  1  0.90364832  0.22115410  0.88658378  1  0  -0.108516  0  3.744328  0  0  -0.094959  0  3.98392  0  0  -0.101048  0  4.004259  0  0.075281  0  -0.021253  -0.091093  0  3.970373  0
C  C68  1  0.84914045  0.67652101  0.67895091  1  0  0.066145  0  3.707628  0  0  0.074336  0  3.972907  0  0  0.078245  0  3.9946  0  -0.185859  0  -0.018829  0.07161  0  3.958378  0
C  C69  1  0.34914896  0.82348541  0.82105123  1  0  0.065917  0  3.707899  0  0  0.074165  0  3.973144  0  0  0.078073  0  3.994836  0  -0.185809  0  -0.018869  0.071435  0  3.958621  0
C  C70  1  0.65086646  0.67651928  0.32104963  1  0  0.066133  0  3.707885  0  0  0.074384  0  3.97311  0  0  0.078297  0  3.994789  0  -0.186375  0  -0.018877  0.071654  0  3.958583  0
C  C71  1  0.15087872  0.82347933  0.17894717  1  0  0.066061  0  3.707953  0  0  0.074294  0  3.973191  0  0  0.078201  0  3.994889  0  -0.186189  0  -0.01881  0.071566  0  3.958664  0
C  C72  1  0.15085500  0.32347922  0.32105176  1  0  0.066079  0  3.707867  0  0  0.074277  0  3.973148  0  0  0.078188  0  3.994836  0  -0.185829  0  -0.018872  0.071547  0  3.958618  0
C  C73  1  0.65086521  0.17651396  0.17894877  1  0  0.06601  0  3.708013  0  0  0.074295  0  3.973248  0  0  0.078204  0  3.994939  0  -0.186296  0  -0.018895  0.071567  0  3.958721  0
C  C74  1  0.34913274  0.32348529  0.67894877  1  0  0.066034  0  3.707993  0  0  0.074329  0  3.973189  0  0  0.078244  0  3.994867  0  -0.186343  0  -0.018881  0.0716  0  3.958662  0
C  C75  1  0.84912422  0.17651743  0.82104909  1  0  0.066011  0  3.708165  0  0  0.074206  0  3.97343  0  0  0.078114  0  3.995126  0  -0.186426  0  -0.018889  0.071477  0  3.958904  0
C  C76  1  0.89051535  0.56461961  0.70122199  1  0  -0.133052  0  3.790353  0  0  -0.154773  0  4.04552  0  0  -0.158029  0  4.065683  0  0.007068  0  -0.104032  -0.152505  0  4.03186  0
C  C77  1  0.39051138  0.93538160  0.79877801  1  0  -0.132703  0  3.790042  0  0  -0.154444  0  4.045163  0  0  -0.157685  0  4.065331  0  0.006588  0  -0.103853  -0.152175  0  4.031504  0
C  C78  1  0.60949405  0.56462222  0.29877428  1  0  -0.133119  0  3.79031  0  0  -0.154908  0  4.045458  0  0  -0.158119  0  4.065636  0  0.007472  0  -0.10403  -0.152631  0  4.031787  0
C  C79  1  0.10950257  0.93537640  0.20122252  1  0  -0.133024  0  3.790429  0  0  -0.154786  0  4.045545  0  0  -0.158023  0  4.065718  0  0.007264  0  -0.104001  -0.15251  0  4.031881  0
C  C80  1  0.10949133  0.43537541  0.29877641  1  0  -0.132993  0  3.790136  0  0  -0.154777  0  4.045296  0  0  -0.157989  0  4.065471  0  0.006558  0  -0.104018  -0.152498  0  4.031628  0
C  C81  1  0.60949779  0.06461950  0.20122572  1  0  -0.132891  0  3.79028  0  0  -0.15463  0  4.045375  0  0  -0.157875  0  4.065549  0  0.007412  0  -0.103957  -0.152362  0  4.031719  0
C  C82  1  0.39050514  0.43537802  0.70122412  1  0  -0.133011  0  3.79038  0  0  -0.154828  0  4.045516  0  0  -0.158041  0  4.065686  0  0.007472  0  -0.103993  -0.152555  0  4.031851  0
C  C83  1  0.89049413  0.06462731  0.79877428  1  0  -0.132737  0  3.790131  0  0  -0.154461  0  4.045252  0  0  -0.157705  0  4.065419  0  0.007373  0  -0.10389  -0.152186  0  4.031587  0
C  C84  1  0.98717829  0.49457171  0.65682497  1  0  -0.043983  0  3.761881  0  0  -0.05799  0  4.01414  0  0  -0.058649  0  4.035169  0  -0.012002  0  -0.090604  -0.057396  0  3.999821  0
C  C85  1  0.48718556  0.00543708  0.84318143  1  0  -0.044068  0  3.761525  0  0  -0.058058  0  4.013805  0  0  -0.058716  0  4.034827  0  -0.011528  0  -0.090675  -0.057464  0  3.999489  0
C  C86  1  0.51282612  0.49456650  0.34317289  1  0  -0.043886  0  3.761419  0  0  -0.057891  0  4.01371  0  0  -0.058541  0  4.034716  0  -0.011834  0  -0.090573  -0.057303  0  3.999384  0
C  C87  1  0.01283963  0.00543535  0.15682818  1  0  -0.044061  0  3.761671  0  0  -0.05803  0  4.013931  0  0  -0.058671  0  4.034937  0  -0.011882  0  -0.090671  -0.057438  0  3.999601  0
C  C88  1  0.01281716  0.50542853  0.34317983  1  0  -0.043806  0  3.761425  0  0  -0.057802  0  4.013671  0  0  -0.058456  0  4.034686  0  -0.011252  0  -0.090554  -0.05721  0  3.999356  0
C  C89  1  0.51282612  0.99456054  0.15682444  1  0  -0.044108  0  3.761629  0  0  -0.058102  0  4.013896  0  0  -0.058762  0  4.03492  0  -0.011811  0  -0.090667  -0.057506  0  3.999576  0
C  C90  1  0.48717432  0.50543547  0.65682444  1  0  -0.043931  0  3.761445  0  0  -0.057889  0  4.01368  0  0  -0.058539  0  4.034688  0  -0.011863  0  -0.090563  -0.057301  0  3.999359  0
C  C91  1  0.98716705  0.99456488  0.84316862  1  0  -0.04427  0  3.7615  0  0  -0.05827  0  4.013796  0  0  -0.058912  0  4.034802  0  -0.01183  0  -0.090712  -0.057676  0  3.999476  0
C  C92  1  0.04482136  0.53712013  0.59156830  1  0  -0.066976  0  3.757362  0  0  -0.081719  0  4.006513  0  0  -0.084016  0  4.028239  0  -0.131576  0  -0.091344  -0.080183  0  3.991724  0
C  C93  1  0.54482532  0.96288282  0.90843436  1  0  -0.066993  0  3.757775  0  0  -0.081781  0  4.00695  0  0  -0.084066  0  4.028658  0  -0.131504  0  -0.091356  -0.080232  0  3.992162  0
C  C94  1  0.45518136  0.53712880  0.40843116  1  0  -0.067112  0  3.757641  0  0  -0.081908  0  4.006832  0  0  -0.084184  0  4.028528  0  -0.131653  0  -0.091426  -0.080354  0  3.992056  0
C  C95  1  0.95518657  0.96287241  0.09156990  1  0  -0.066973  0  3.757508  0  0  -0.081776  0  4.006661  0  0  -0.084051  0  4.028351  0  -0.131581  0  -0.091372  -0.080206  0  3.991888  0
C  C96  1  0.95518033  0.46287837  0.40843490  1  0  -0.067223  0  3.757641  0  0  -0.081962  0  4.006789  0  0  -0.084258  0  4.028504  0  -0.131772  0  -0.091446  -0.080422  0  3.992004  0
C  C97  1  0.45517886  0.03711741  0.09156884  1  0  -0.06698  0  3.757584  0  0  -0.081719  0  4.006694  0  0  -0.084013  0  4.028421  0  -0.1317  0  -0.091323  -0.080155  0  3.991913  0
C  C98  1  0.54481533  0.46287663  0.59156564  1  0  -0.067023  0  3.758013  0  0  -0.08178  0  4.007121  0  0  -0.084082  0  4.028851  0  -0.131747  0  -0.09135  -0.080242  0  3.992327  0
C  C99  1  0.04480763  0.03712348  0.90842689  1  0  -0.0668  0  3.757164  0  0  -0.081548  0  4.006307  0  0  -0.083823  0  4.028003  0  -0.131522  0  -0.091227  -0.079991  0  3.991525  0
C  C100  1  0.00425283  0.64946746  0.57044717  1  0  -0.070827  0  3.724037  0  0  -0.089917  0  3.968519  0  0  -0.09048  0  3.988082  0  -0.024671  0  -0.07759  -0.089376  0  3.955288  0
C  C101  1  0.50426179  0.85054156  0.92955229  1  0  -0.070801  0  3.72404  0  0  -0.089814  0  3.968572  0  0  -0.090373  0  3.988135  0  -0.024841  0  -0.07761  -0.089275  0  3.955336  0
C  C102  1  0.49574864  0.64946226  0.42954696  1  0  -0.070668  0  3.724134  0  0  -0.089679  0  3.968574  0  0  -0.090247  0  3.988148  0  -0.024492  0  -0.077554  -0.089139  0  3.955334  0
C  C103  1  0.99574886  0.85053896  0.07045304  1  0  -0.070754  0  3.724225  0  0  -0.089764  0  3.968657  0  0  -0.090327  0  3.988226  0  -0.02466  0  -0.077565  -0.089223  0  3.955411  0
C  C104  1  0.99575385  0.35053884  0.42955283  1  0  -0.070638  0  3.724165  0  0  -0.089707  0  3.968666  0  0  -0.090261  0  3.988237  0  -0.025083  0  -0.077556  -0.089173  0  3.955434  0
C  C105  1  0.49574739  0.14946040  0.07045251  1  0  -0.070994  0  3.724143  0  0  -0.090013  0  3.968669  0  0  -0.090576  0  3.988234  0  -0.024483  0  -0.077675  -0.08947  0  3.955425  0
C  C106  1  0.50424806  0.35054492  0.57044931  1  0  -0.070856  0  3.724523  0  0  -0.08991  0  3.969015  0  0  -0.090477  0  3.988591  0  -0.023909  0  -0.077696  -0.089368  0  3.955778  0
C  C107  1  0.00423910  0.14946301  0.92954429  1  0  -0.070878  0  3.724257  0  0  -0.089995  0  3.968765  0  0  -0.090566  0  3.98834  0  -0.024569  0  -0.077691  -0.089452  0  3.955523  0
Br  Br108  1  0.72031478  0.76907465  0.74337353  1  0  -0.050658  0  1.41486  0  0  -0.031737  0  1.685411  0  0  -0.038013  0  1.678458  0  -0.069823  0  0.086663  -0.027289  0  1.69044  0
Br  Br109  1  0.22032455  0.73092570  0.75662967  1  0  -0.050701  0  1.414851  0  0  -0.0318  0  1.685407  0  0  -0.038076  0  1.67845  0  -0.069709  0  0.086596  -0.027354  0  1.690438  0
Br  Br110  1  0.77967964  0.76908159  0.25662914  1  0  -0.050671  0  1.414897  0  0  -0.031761  0  1.685445  0  0  -0.038036  0  1.678488  0  -0.069837  0  0.086625  -0.027319  0  1.690475  0
Br  Br111  1  0.27968566  0.73092223  0.24337247  1  0  -0.050619  0  1.41498  0  0  -0.031718  0  1.685569  0  0  -0.037998  0  1.678615  0  -0.069859  0  0.08666  -0.027277  0  1.690599  0
Br  Br112  1  0.27967567  0.23091777  0.25663020  1  0  -0.050691  0  1.414877  0  0  -0.031773  0  1.685433  0  0  -0.03805  0  1.678474  0  -0.069785  0  0.086624  -0.027329  0  1.690465  0
Br  Br113  1  0.77967589  0.26908148  0.24337033  1  0  -0.05068  0  1.414964  0  0  -0.031785  0  1.685511  0  0  -0.03806  0  1.678552  0  -0.069794  0  0.086634  -0.027339  0  1.690542  0
Br  Br114  1  0.22031830  0.23092124  0.74337140  1  0  -0.050655  0  1.414899  0  0  -0.031771  0  1.685446  0  0  -0.038047  0  1.678491  0  -0.069793  0  0.086625  -0.027328  0  1.690481  0
Br  Br115  1  0.72030854  0.26908061  0.75662860  1  0  -0.05064  0  1.414962  0  0  -0.031723  0  1.68553  0  0  -0.038  0  1.678576  0  -0.069899  0  0.086652  -0.02728  0  1.690562  0
O  O116  1  0.89387942  0.18935665  0.59060192  1  0  -0.877796  0  1.803175  0  0  -0.823143  0  1.973152  0  0  -0.841901  0  1.940956  0  -1.303348  0  -0.625593  -0.809777  0  1.995788  0
O  O117  1  0.39387420  0.31063999  0.90939755  1  0  -0.877768  0  1.803221  0  0  -0.823068  0  1.973306  0  0  -0.841824  0  1.941107  0  -1.303281  0  -0.625565  -0.809705  0  1.995934  0
O  O118  1  0.60612124  0.18936012  0.40939861  1  0  -0.877781  0  1.803185  0  0  -0.823123  0  1.973181  0  0  -0.841881  0  1.940987  0  -1.303348  0  -0.625589  -0.809757  0  1.995813  0
O  O119  1  0.10611728  0.31064086  0.09059925  1  0  -0.877797  0  1.803149  0  0  -0.823098  0  1.973239  0  0  -0.841855  0  1.941047  0  -1.30338  0  -0.625543  -0.809734  0  1.995871  0
O  O120  1  0.10612227  0.81063838  0.40939915  1  0  -0.877786  0  1.803151  0  0  -0.823117  0  1.973143  0  0  -0.841874  0  1.940948  0  -1.303348  0  -0.625586  -0.809752  0  1.995777  0
O  O121  1  0.60612624  0.68935764  0.09060245  1  0  -0.877797  0  1.803241  0  0  -0.823095  0  1.973313  0  0  -0.84185  0  1.941113  0  -1.30323  0  -0.625572  -0.809733  0  1.99594  0
O  O122  1  0.39387795  0.81064185  0.59060139  1  0  -0.877828  0  1.803166  0  0  -0.823172  0  1.97315  0  0  -0.841927  0  1.940953  0  -1.303355  0  -0.625608  -0.809804  0  1.995785  0
O  O123  1  0.89388316  0.68935937  0.90940128  1  0  -0.877811  0  1.80313  0  0  -0.823121  0  1.973212  0  0  -0.841879  0  1.941018  0  -1.303384  0  -0.625543  -0.809758  0  1.995845  0
O  O124  1  0.71257430  0.87778945  0.59033618  1  0  -0.687906  0  2.006829  0  0  -0.625029  0  2.233918  0  0  -0.651602  0  2.223447  0  -1.202366  0  -0.340277  -0.60633  0  2.240522  0
O  O125  1  0.21257908  0.62220656  0.90966382  1  0  -0.687843  0  2.006681  0  0  -0.624939  0  2.233761  0  0  -0.651518  0  2.223307  0  -1.202434  0  -0.340269  -0.606234  0  2.240354  0
O  O126  1  0.78743260  0.87779379  0.40966222  1  0  -0.687775  0  2.006935  0  0  -0.624891  0  2.233981  0  0  -0.651475  0  2.223538  0  -1.202542  0  -0.340232  -0.606191  0  2.240579  0
O  O127  1  0.28742614  0.62220743  0.09033565  1  0  -0.687719  0  2.007067  0  0  -0.62487  0  2.234109  0  0  -0.651435  0  2.223629  0  -1.202523  0  -0.340221  -0.606171  0  2.240704  0
O  O128  1  0.28742863  0.12220557  0.40966489  1  0  -0.687841  0  2.007019  0  0  -0.624988  0  2.23409  0  0  -0.65156  0  2.223616  0  -1.202518  0  -0.340287  -0.606282  0  2.240679  0
O  O129  1  0.78742760  0.37779628  0.09033618  1  0  -0.687898  0  2.006534  0  0  -0.624996  0  2.23357  0  0  -0.65158  0  2.223127  0  -1.202329  0  -0.340294  -0.606295  0  2.240177  0
O  O130  1  0.21256285  0.12220644  0.59033618  1  0  -0.687903  0  2.006485  0  0  -0.624994  0  2.233513  0  0  -0.651587  0  2.223085  0  -1.202479  0  -0.34027  -0.6063  0  2.240132  0
O  O131  1  0.71257430  0.37779281  0.90966382  1  0  -0.687645  0  2.007333  0  0  -0.624777  0  2.23439  0  0  -0.651346  0  2.223922  0  -1.202647  0  -0.340152  -0.606079  0  2.240987  0
O  O132  1  0.97799857  0.89886976  0.55725293  1  0  -0.736509  0  1.990015  0  0  -0.670683  0  2.234607  0  0  -0.698395  0  2.224115  0  -1.231552  0  -0.396673  -0.651091  0  2.241204  0
O  O133  1  0.47799710  0.60112799  0.94274867  1  0  -0.736474  0  1.990231  0  0  -0.670639  0  2.234844  0  0  -0.698349  0  2.224354  0  -1.231811  0  -0.396661  -0.651049  0  2.24144  0
O  O134  1  0.52200958  0.89887063  0.44274813  1  0  -0.736558  0  1.989886  0  0  -0.67073  0  2.234452  0  0  -0.698444  0  2.223958  0  -1.231531  0  -0.39669  -0.651138  0  2.241049  0
O  O135  1  0.02199688  0.60112365  0.05724973  1  0  -0.736573  0  1.989627  0  0  -0.670793  0  2.234212  0  0  -0.698512  0  2.223721  0  -1.231326  0  -0.396751  -0.651199  0  2.240809  0
O  O136  1  0.02200562  0.10112787  0.44274813  1  0  -0.736564  0  1.989921  0  0  -0.67076  0  2.234479  0  0  -0.698475  0  2.223987  0  -1.231556  0  -0.396745  -0.651169  0  2.241076  0
O  O137  1  0.52200833  0.39886791  0.05725080  1  0  -0.73652  0  1.990288  0  0  -0.670695  0  2.234848  0  0  -0.698404  0  2.224356  0  -1.231645  0  -0.396663  -0.651107  0  2.241447  0
O  O138  1  0.47799086  0.10113568  0.55725560  1  0  -0.736425  0  1.990281  0  0  -0.670589  0  2.234852  0  0  -0.698297  0  2.22436  0  -1.231463  0  -0.396638  -0.650999  0  2.24145  0
O  O139  1  0.97799857  0.39887138  0.94274813  1  0  -0.736678  0  1.98961  0  0  -0.670878  0  2.234172  0  0  -0.698595  0  2.223681  0  -1.231411  0  -0.396816  -0.651283  0  2.240769  0
