# generated using pymatgen
data_LiH18C10SNO3
_symmetry_space_group_name_H-M   'P 1'
_cell_length_a   6.31210741
_cell_length_b   10.14623276
_cell_length_c   19.46680020
_cell_angle_alpha   94.12849342
_cell_angle_beta   89.99970054
_cell_angle_gamma   89.99893712
_symmetry_Int_Tables_number   1
_chemical_formula_structural   LiH18C10SNO3
_chemical_formula_sum   'Li4 H72 C40 S4 N4 O12'
_cell_volume   1243.49876810
_cell_formula_units_Z   4
loop_
 _symmetry_equiv_pos_site_id
 _symmetry_equiv_pos_as_xyz
  1  'x, y, z'
loop_
 _atom_site_type_symbol
 _atom_site_label
 _atom_site_symmetry_multiplicity
 _atom_site_fract_x
 _atom_site_fract_y
 _atom_site_fract_z
 _atom_site_occupancy
 _atom_site_hle17_bader_spin_density
 _atom_site_hle17_ddec_charge
 _atom_site_hle17_ddec_spin_density
 _atom_site_hle17_ddec_sum_bond_order
 _atom_site_hle17_magmom
 _atom_site_hse06_10hf_bader_spin_density
 _atom_site_hse06_10hf_ddec_charge
 _atom_site_hse06_10hf_ddec_spin_density
 _atom_site_hse06_10hf_ddec_sum_bond_order
 _atom_site_hse06_10hf_magmom
 _atom_site_hse06_bader_spin_density
 _atom_site_hse06_ddec_charge
 _atom_site_hse06_ddec_spin_density
 _atom_site_hse06_ddec_sum_bond_order
 _atom_site_hse06_magmom
 _atom_site_pbe_bader_spin_density
 _atom_site_pbe_cm5_charge
 _atom_site_pbe_ddec_charge
 _atom_site_pbe_ddec_spin_density
 _atom_site_pbe_ddec_sum_bond_order
 _atom_site_pbe_magmom
Li  Li0  1  0.30620436  0.47563128  0.77469994  1  0  0.844743  0  0.428161  0  0  0.799517  0  0.543981  0  0  0.809114  0  0.527221  0  0  0.544468  0.792403  0  0.556232  0
Li  Li1  1  0.19376864  0.97563454  0.77469918  1  0  0.844819  0  0.428003  0  0  0.799566  0  0.543848  0  0  0.809169  0  0.527084  0  0  0.544411  0.792445  0  0.5561  0
Li  Li2  1  0.69378405  0.52436318  0.22529971  1  0  0.844746  0  0.428122  0  0  0.799537  0  0.543915  0  0  0.809134  0  0.527157  0  0  0.544447  0.79242  0  0.556165  0
Li  Li3  1  0.80623561  0.02435202  0.22530017  1  0  0.844803  0  0.428032  0  0  0.799539  0  0.543901  0  0  0.809146  0  0.527133  0  0  0.544427  0.792417  0  0.556151  0
H  H4  1  0.76304115  0.52875672  0.62783241  1  0  0.109029  0  0.958046  0  0  0.130593  0  1.01843  0  0  0.131511  0  1.019651  0  0  0.092284  0.129894  0  1.017646  0
H  H5  1  0.73697162  0.02877406  0.62784073  1  0  0.109027  0  0.958023  0  0  0.130588  0  1.018398  0  0  0.131503  0  1.019624  0  0  0.092283  0.129886  0  1.017615  0
H  H6  1  0.23697737  0.47123478  0.37216455  1  0  0.108996  0  0.95809  0  0  0.130603  0  1.018399  0  0  0.131522  0  1.019618  0  0  0.092282  0.129903  0  1.017617  0
H  H7  1  0.26304531  0.97122436  0.37216985  1  0  0.10907  0  0.958151  0  0  0.130605  0  1.018536  0  0  0.131521  0  1.019757  0  0  0.092284  0.129903  0  1.017755  0
H  H8  1  0.00152333  0.43841682  0.64023186  1  0  0.122596  0  0.959693  0  0  0.140309  0  1.024211  0  0  0.142713  0  1.023199  0  0  0.097978  0.138491  0  1.02525  0
H  H9  1  0.49848788  0.93843223  0.64023517  1  0  0.122398  0  0.959861  0  0  0.14009  0  1.024414  0  0  0.142496  0  1.023398  0  0  0.097854  0.138268  0  1.025451  0
H  H10  1  0.99848093  0.56157270  0.35976658  1  0  0.122469  0  0.959798  0  0  0.140111  0  1.024387  0  0  0.142515  0  1.023373  0  0  0.09787  0.138298  0  1.025413  0
H  H11  1  0.50150370  0.06156619  0.35977387  1  0  0.122288  0  0.959984  0  0  0.140025  0  1.024493  0  0  0.14243  0  1.023476  0  0  0.097825  0.138209  0  1.025522  0
H  H12  1  0.91863246  0.47229827  0.55580350  1  0  0.095923  0  0.970847  0  0  0.119568  0  1.032248  0  0  0.120557  0  1.032715  0  0  0.08641  0.118796  0  1.031982  0
H  H13  1  0.58139226  0.97230683  0.55580774  1  0  0.095977  0  0.970772  0  0  0.119594  0  1.032218  0  0  0.120583  0  1.032686  0  0  0.086459  0.118819  0  1.031951  0
H  H14  1  0.08137655  0.52768828  0.44419380  1  0  0.095957  0  0.970829  0  0  0.119558  0  1.032284  0  0  0.120546  0  1.032752  0  0  0.086427  0.118785  0  1.032018  0
H  H15  1  0.41861358  0.02769159  0.44419668  1  0  0.095854  0  0.97085  0  0  0.11949  0  1.032297  0  0  0.120479  0  1.03276  0  0  0.086396  0.118715  0  1.032033  0
H  H16  1  0.29839134  0.57240958  0.54251621  1  0  0.102695  0  0.949457  0  0  0.128952  0  1.004155  0  0  0.129986  0  1.004631  0  0  0.089163  0.128137  0  1.003952  0
H  H17  1  0.20162909  0.07242635  0.54251018  1  0  0.102697  0  0.949532  0  0  0.128945  0  1.004226  0  0  0.129978  0  1.0047  0  0  0.089159  0.128129  0  1.004024  0
H  H18  1  0.70163351  0.42758290  0.45748080  1  0  0.102694  0  0.949453  0  0  0.128917  0  1.004187  0  0  0.129953  0  1.00466  0  0  0.089146  0.128101  0  1.003984  0
H  H19  1  0.79837833  0.92757700  0.45749391  1  0  0.102583  0  0.949581  0  0  0.128834  0  1.004292  0  0  0.129866  0  1.004767  0  0  0.089097  0.128018  0  1.004094  0
H  H20  1  0.35683422  0.54622870  0.63003617  1  0  0.115926  0  0.962455  0  0  0.132361  0  1.030125  0  0  0.134652  0  1.029244  0  0  0.099264  0.130551  0  1.031133  0
H  H21  1  0.14317283  0.04624913  0.63002729  1  0  0.115905  0  0.962577  0  0  0.13243  0  1.030118  0  0  0.13471  0  1.029246  0  0  0.099289  0.130633  0  1.03111  0
H  H22  1  0.64318271  0.45376280  0.36996080  1  0  0.115771  0  0.962533  0  0  0.132233  0  1.030193  0  0  0.134538  0  1.029297  0  0  0.099218  0.130424  0  1.031198  0
H  H23  1  0.85682509  0.95375423  0.36998040  1  0  0.115809  0  0.962691  0  0  0.132293  0  1.030297  0  0  0.134574  0  1.029422  0  0  0.099236  0.130512  0  1.031277  0
H  H24  1  0.37784094  0.70770106  0.60012284  1  0  0.110276  0  0.958558  0  0  0.129882  0  1.022345  0  0  0.131527  0  1.022178  0  0  0.090727  0.128359  0  1.023057  0
H  H25  1  0.12216346  0.20771582  0.60011379  1  0  0.110343  0  0.958592  0  0  0.129878  0  1.022473  0  0  0.131519  0  1.022311  0  0  0.090728  0.128353  0  1.023192  0
H  H26  1  0.62216649  0.29228945  0.39987409  1  0  0.110212  0  0.958531  0  0  0.12978  0  1.022373  0  0  0.131423  0  1.022211  0  0  0.090695  0.128255  0  1.023086  0
H  H27  1  0.87783287  0.79229050  0.39988887  1  0  0.110355  0  0.958614  0  0  0.129881  0  1.022509  0  0  0.131521  0  1.022347  0  0  0.090757  0.128356  0  1.023231  0
H  H28  1  0.95314725  0.70017522  0.51435676  1  0  0.103381  0  0.959269  0  0  0.126067  0  1.019653  0  0  0.127093  0  1.020417  0  0  0.08892  0.125277  0  1.019125  0
H  H29  1  0.54687507  0.20019286  0.51435410  1  0  0.103433  0  0.959115  0  0  0.126135  0  1.019485  0  0  0.12716  0  1.020252  0  0  0.088913  0.125347  0  1.018953  0
H  H30  1  0.04686968  0.29980639  0.48563573  1  0  0.103478  0  0.959147  0  0  0.126132  0  1.019572  0  0  0.127161  0  1.020336  0  0  0.088928  0.12535  0  1.019037  0
H  H31  1  0.45314503  0.79981148  0.48565156  1  0  0.103457  0  0.958969  0  0  0.126153  0  1.019352  0  0  0.12718  0  1.020117  0  0  0.088944  0.125349  0  1.018835  0
H  H32  1  0.04082826  0.83435746  0.57105360  1  0  0.110293  0  0.954181  0  0  0.131486  0  1.014359  0  0  0.132945  0  1.014614  0  0  0.091389  0.130227  0  1.014517  0
H  H33  1  0.45916340  0.33438103  0.57105768  1  0  0.110296  0  0.954097  0  0  0.131581  0  1.014153  0  0  0.13304  0  1.01441  0  0  0.091474  0.130321  0  1.014316  0
H  H34  1  0.95917441  0.16563008  0.42893860  1  0  0.110264  0  0.954254  0  0  0.131496  0  1.014371  0  0  0.132953  0  1.014621  0  0  0.091413  0.130238  0  1.014529  0
H  H35  1  0.54086145  0.66562134  0.42894431  1  0  0.110281  0  0.953883  0  0  0.131568  0  1.013971  0  0  0.133028  0  1.014227  0  0  0.091442  0.130306  0  1.014135  0
H  H36  1  0.78800917  0.76094006  0.58343354  1  0  0.103751  0  0.968589  0  0  0.123336  0  1.034327  0  0  0.124365  0  1.035557  0  0  0.087738  0.122524  0  1.033571  0
H  H37  1  0.71200703  0.26095672  0.58344393  1  0  0.103874  0  0.968284  0  0  0.12336  0  1.034154  0  0  0.124392  0  1.035379  0  0  0.087728  0.122548  0  1.033399  0
H  H38  1  0.21200776  0.23903858  0.41655833  1  0  0.1038  0  0.96834  0  0  0.123296  0  1.034193  0  0  0.124327  0  1.035417  0  0  0.087717  0.122484  0  1.033437  0
H  H39  1  0.28800198  0.73903972  0.41656350  1  0  0.103886  0  0.968187  0  0  0.123373  0  1.034074  0  0  0.124405  0  1.0353  0  0  0.087722  0.122561  0  1.033315  0
H  H40  1  0.35065017  0.31651498  0.92575501  1  0  0.03444  0  0.942596  0  0  0.048311  0  1.009314  0  0  0.048839  0  1.008608  0  0  0.093236  0.047795  0  1.00995  0
H  H41  1  0.14934873  0.81651976  0.92575232  1  0  0.034412  0  0.942713  0  0  0.048289  0  1.009405  0  0  0.048817  0  1.008699  0  0  0.09324  0.047774  0  1.01005  0
H  H42  1  0.64934616  0.68349431  0.07425033  1  0  0.034387  0  0.942546  0  0  0.048263  0  1.00925  0  0  0.048797  0  1.00854  0  0  0.09321  0.047744  0  1.009893  0
H  H43  1  0.85064602  0.18347668  0.07424226  1  0  0.034415  0  0.94261  0  0  0.048269  0  1.009345  0  0  0.048803  0  1.008631  0  0  0.093252  0.047756  0  1.009989  0
H  H44  1  0.24684371  0.22461037  0.85122912  1  0  0.064009  0  0.960228  0  0  0.070915  0  1.033911  0  0  0.072061  0  1.033052  0  0  0.112832  0.06999  0  1.03463  0
H  H45  1  0.25314805  0.72461291  0.85122824  1  0  0.064051  0  0.960183  0  0  0.070945  0  1.033877  0  0  0.072092  0  1.033015  0  0  0.112821  0.070022  0  1.034597  0
H  H46  1  0.75315896  0.77538805  0.14877684  1  0  0.064015  0  0.960136  0  0  0.070853  0  1.033892  0  0  0.071999  0  1.033035  0  0  0.112799  0.069931  0  1.034608  0
H  H47  1  0.74685937  0.27539143  0.14876664  1  0  0.063973  0  0.960155  0  0  0.070873  0  1.033858  0  0  0.07202  0  1.032998  0  0  0.112806  0.06995  0  1.034573  0
H  H48  1  0.04377327  0.28020684  0.98844564  1  0  0.055443  0  0.967634  0  0  0.07107  0  1.035815  0  0  0.071913  0  1.036056  0  0  0.083861  0.070357  0  1.035812  0
H  H49  1  0.45621455  0.78020003  0.98844613  1  0  0.055415  0  0.967653  0  0  0.071035  0  1.035854  0  0  0.071876  0  1.036096  0  0  0.08383  0.070322  0  1.035849  0
H  H50  1  0.95621514  0.71979651  0.01155640  1  0  0.055471  0  0.967677  0  0  0.071086  0  1.035876  0  0  0.07193  0  1.036112  0  0  0.08385  0.070369  0  1.035875  0
H  H51  1  0.54377069  0.21980036  0.01155271  1  0  0.055416  0  0.967769  0  0  0.071056  0  1.035956  0  0  0.07189  0  1.036205  0  0  0.083827  0.070337  0  1.035959  0
H  H52  1  0.94873943  0.17364217  0.91842305  1  0  0.083156  0  0.943231  0  0  0.101174  0  1.001441  0  0  0.10222  0  1.001874  0  0  0.096426  0.100455  0  1.001075  0
H  H53  1  0.55124994  0.67363231  0.91842409  1  0  0.083129  0  0.94348  0  0  0.101171  0  1.001641  0  0  0.102214  0  1.002079  0  0  0.096445  0.100454  0  1.001278  0
H  H54  1  0.05124898  0.82637107  0.08157575  1  0  0.083198  0  0.943381  0  0  0.10127  0  1.0015  0  0  0.102301  0  1.00195  0  0  0.096497  0.10055  0  1.001133  0
H  H55  1  0.44874798  0.32637697  0.08157611  1  0  0.083252  0  0.943258  0  0  0.101336  0  1.001393  0  0  0.10237  0  1.001839  0  0  0.096539  0.100618  0  1.001029  0
H  H56  1  0.75369623  0.34807435  0.87038072  1  0  0.083044  0  0.947537  0  0  0.098615  0  1.010644  0  0  0.099341  0  1.011703  0  0  0.097661  0.09796  0  1.010111  0
H  H57  1  0.74631101  0.84805523  0.87038007  1  0  0.082921  0  0.94757  0  0  0.098545  0  1.010636  0  0  0.09927  0  1.011698  0  0  0.097608  0.09789  0  1.010104  0
H  H58  1  0.24631595  0.65193889  0.12962117  1  0  0.082949  0  0.947511  0  0  0.098497  0  1.010672  0  0  0.099218  0  1.011731  0  0  0.097611  0.097845  0  1.01014  0
H  H59  1  0.25368216  0.15195504  0.12962017  1  0  0.082882  0  0.947669  0  0  0.098539  0  1.010696  0  0  0.099267  0  1.011753  0  0  0.09759  0.097885  0  1.010162  0
H  H60  1  0.74904948  0.41432906  0.95760527  1  0  0.06728  0  0.946413  0  0  0.086052  0  1.007613  0  0  0.086956  0  1.007474  0  0  0.090914  0.085309  0  1.007848  0
H  H61  1  0.75094325  0.91430890  0.95760611  1  0  0.06727  0  0.946372  0  0  0.086003  0  1.00765  0  0  0.086908  0  1.007511  0  0  0.090913  0.085261  0  1.007883  0
H  H62  1  0.25095319  0.58569011  0.04239376  1  0  0.067297  0  0.946313  0  0  0.086051  0  1.007548  0  0  0.086954  0  1.007409  0  0  0.090953  0.08531  0  1.007782  0
H  H63  1  0.24904675  0.08569445  0.04239490  1  0  0.06723  0  0.94632  0  0  0.085961  0  1.007614  0  0  0.086865  0  1.007476  0  0  0.090913  0.085218  0  1.007849  0
H  H64  1  0.92940953  0.55755173  0.85849559  1  0  0.073299  0  0.945315  0  0  0.085465  0  1.011073  0  0  0.085615  0  1.011568  0  0  0.112317  0.085273  0  1.01081  0
H  H65  1  0.57059376  0.05753945  0.85849742  1  0  0.073305  0  0.945332  0  0  0.085494  0  1.011091  0  0  0.085644  0  1.011585  0  0  0.112303  0.085301  0  1.010826  0
H  H66  1  0.07060265  0.44245558  0.14150094  1  0  0.073341  0  0.94532  0  0  0.085518  0  1.011113  0  0  0.085668  0  1.011612  0  0  0.112297  0.085327  0  1.010848  0
H  H67  1  0.42939148  0.94246885  0.14150685  1  0  0.073367  0  0.945315  0  0  0.085591  0  1.011061  0  0  0.085746  0  1.011547  0  0  0.112324  0.0854  0  1.010796  0
H  H68  1  0.06264615  0.54921599  0.93975871  1  0  0.030217  0  0.949068  0  0  0.048849  0  1.011731  0  0  0.048574  0  1.012248  0  0  0.091876  0.048908  0  1.011496  0
H  H69  1  0.43735402  0.04920622  0.93975645  1  0  0.03025  0  0.948968  0  0  0.048844  0  1.011706  0  0  0.04857  0  1.012221  0  0  0.091856  0.048898  0  1.011479  0
H  H70  1  0.93737078  0.45079725  0.06023958  1  0  0.030249  0  0.948954  0  0  0.048903  0  1.011649  0  0  0.04863  0  1.012166  0  0  0.091879  0.048957  0  1.011426  0
H  H71  1  0.56262330  0.95079813  0.06024665  1  0  0.030343  0  0.949014  0  0  0.048983  0  1.011701  0  0  0.048711  0  1.012213  0  0  0.091912  0.049035  0  1.011479  0
H  H72  1  0.74410212  0.85518266  0.72127658  1  0  0.185803  0  0.970805  0  0  0.192047  0  1.029225  0  0  0.195657  0  1.029053  0  0  0.120814  0.189199  0  1.02997  0
H  H73  1  0.75580127  0.35522053  0.72128563  1  0  0.1857  0  0.970943  0  0  0.191965  0  1.02936  0  0  0.195575  0  1.029194  0  0  0.120773  0.189116  0  1.030121  0
H  H74  1  0.25587996  0.14480587  0.27871360  1  0  0.185732  0  0.970794  0  0  0.191998  0  1.029193  0  0  0.195609  0  1.02902  0  0  0.120819  0.189149  0  1.029946  0
H  H75  1  0.24418239  0.64478778  0.27872429  1  0  0.185742  0  0.97119  0  0  0.192035  0  1.029518  0  0  0.195641  0  1.029357  0  0  0.12078  0.189182  0  1.030285  0
C  C76  1  0.79536851  0.75469193  0.72775192  1  0  -0.619671  0  3.795431  0  0  -0.621764  0  4.070975  0  0  -0.639235  0  4.080797  0  0  -0.179405  -0.609456  0  4.064603  0
C  C77  1  0.70455673  0.25472250  0.72774794  1  0  -0.619683  0  3.795257  0  0  -0.621819  0  4.070754  0  0  -0.639299  0  4.08058  0  0  -0.179406  -0.609509  0  4.064386  0
C  C78  1  0.20462466  0.24529857  0.27223988  1  0  -0.619504  0  3.795797  0  0  -0.621676  0  4.071414  0  0  -0.639146  0  4.08123  0  0  -0.179497  -0.609372  0  4.065041  0
C  C79  1  0.29542217  0.74526702  0.27225306  1  0  -0.619402  0  3.795651  0  0  -0.621569  0  4.071148  0  0  -0.639042  0  4.080978  0  0  -0.179334  -0.609259  0  4.06478  0
C  C80  1  0.67084543  0.66262985  0.75705798  1  0  0.424205  0  3.972598  0  0  0.412049  0  4.238405  0  0  0.429666  0  4.254386  0  0  0.17697  0.399916  0  4.227537  0
C  C81  1  0.82911846  0.16265596  0.75705159  1  0  0.424466  0  3.972416  0  0  0.412356  0  4.238216  0  0  0.429981  0  4.254194  0  0  0.177232  0.400218  0  4.227341  0
C  C82  1  0.32913348  0.33735374  0.24294177  1  0  0.424231  0  3.9724  0  0  0.412092  0  4.238195  0  0  0.429716  0  4.25417  0  0  0.17711  0.399957  0  4.227324  0
C  C83  1  0.17089689  0.83733949  0.24295118  1  0  0.424242  0  3.972249  0  0  0.412125  0  4.238049  0  0  0.429754  0  4.254037  0  0  0.177146  0.399985  0  4.227167  0
C  C84  1  0.05274119  0.64086868  0.61344463  1  0  0.114115  0  3.583395  0  0  0.147362  0  3.828939  0  0  0.145835  0  3.84865  0  0  -0.010383  0.148434  0  3.815127  0
C  C85  1  0.44723326  0.14087658  0.61344763  1  0  0.114052  0  3.583456  0  0  0.147242  0  3.829042  0  0  0.145707  0  3.848764  0  0  -0.010441  0.148315  0  3.815238  0
C  C86  1  0.94726782  0.35912677  0.38655403  1  0  0.114201  0  3.583373  0  0  0.147393  0  3.828863  0  0  0.145857  0  3.848613  0  0  -0.010371  0.148458  0  3.81506  0
C  C87  1  0.55276307  0.85914358  0.38655452  1  0  0.113954  0  3.583425  0  0  0.147221  0  3.828884  0  0  0.145684  0  3.848636  0  0  -0.01038  0.14829  0  3.815076  0
C  C88  1  0.92631348  0.51221175  0.60974613  1  0  -0.34932  0  3.679954  0  0  -0.431568  0  3.917835  0  0  -0.434504  0  3.928283  0  0  -0.24463  -0.429101  0  3.91062  0
C  C89  1  0.57369374  0.01222512  0.60975097  1  0  -0.349144  0  3.679795  0  0  -0.431432  0  3.917834  0  0  -0.434358  0  3.928262  0  0  -0.244571  -0.428967  0  3.910622  0
C  C90  1  0.07369711  0.48777876  0.39025081  1  0  -0.349222  0  3.680116  0  0  -0.431447  0  3.918132  0  0  -0.43438  0  3.928577  0  0  -0.244581  -0.428983  0  3.910919  0
C  C91  1  0.42629626  0.98778417  0.39025591  1  0  -0.348853  0  3.680164  0  0  -0.431125  0  3.918046  0  0  -0.434054  0  3.928487  0  0  -0.244439  -0.428664  0  3.910835  0
C  C92  1  0.28621682  0.61561029  0.59584910  1  0  -0.34102  0  3.664709  0  0  -0.421795  0  3.900355  0  0  -0.424308  0  3.909678  0  0  -0.240972  -0.419552  0  3.894216  0
C  C93  1  0.21378085  0.11562197  0.59584183  1  0  -0.341067  0  3.664999  0  0  -0.421845  0  3.900721  0  0  -0.424341  0  3.910049  0  0  -0.240983  -0.419602  0  3.894544  0
C  C94  1  0.71380011  0.38438121  0.40414787  1  0  -0.340798  0  3.664813  0  0  -0.421489  0  3.900408  0  0  -0.424011  0  3.909719  0  0  -0.240863  -0.419245  0  3.894271  0
C  C95  1  0.78622499  0.88438237  0.40416229  1  0  -0.340798  0  3.665049  0  0  -0.421566  0  3.900742  0  0  -0.424066  0  3.910085  0  0  -0.240911  -0.419334  0  3.89454  0
C  C96  1  0.95297985  0.74082188  0.56820863  1  0  -0.342407  0  3.686667  0  0  -0.422569  0  3.921369  0  0  -0.425691  0  3.932939  0  0  -0.246016  -0.419821  0  3.913095  0
C  C97  1  0.54702452  0.24083755  0.56821206  1  0  -0.342589  0  3.685857  0  0  -0.422711  0  3.92054  0  0  -0.425841  0  3.932121  0  0  -0.246029  -0.419958  0  3.912266  0
C  C98  1  0.04703391  0.25916467  0.43178302  1  0  -0.342551  0  3.686429  0  0  -0.422627  0  3.921155  0  0  -0.425749  0  3.93273  0  0  -0.246027  -0.41988  0  3.912874  0
C  C99  1  0.45299241  0.75917075  0.43179016  1  0  -0.342713  0  3.68552  0  0  -0.42284  0  3.920149  0  0  -0.42597  0  3.931727  0  0  -0.246099  -0.420072  0  3.911884  0
C  C100  1  0.21138974  0.30161585  0.89193791  1  0  0.096941  0  3.573263  0  0  0.04623  0  3.839321  0  0  0.052691  0  3.845259  0  0  -0.062522  0.041996  0  3.83513  0
C  C101  1  0.28860383  0.80161599  0.89193894  1  0  0.096874  0  3.573295  0  0  0.04616  0  3.839362  0  0  0.052624  0  3.845288  0  0  -0.062552  0.041913  0  3.835187  0
C  C102  1  0.78860818  0.69838949  0.10806574  1  0  0.09706  0  3.572982  0  0  0.046362  0  3.839041  0  0  0.052814  0  3.844979  0  0  -0.062476  0.042125  0  3.834851  0
C  C103  1  0.71139409  0.19838638  0.10805947  1  0  0.097016  0  3.573185  0  0  0.046337  0  3.839274  0  0  0.0528  0  3.845195  0  0  -0.062551  0.042093  0  3.835093  0
C  C104  1  0.00977411  0.27296892  0.93293872  1  0  -0.148335  0  3.654095  0  0  -0.18931  0  3.913485  0  0  -0.191782  0  3.927401  0  0  -0.167271  -0.187438  0  3.903762  0
C  C105  1  0.49021645  0.77295972  0.93293599  1  0  -0.148357  0  3.654106  0  0  -0.189342  0  3.913536  0  0  -0.191806  0  3.927445  0  0  -0.167255  -0.187468  0  3.903822  0
C  C106  1  0.99022064  0.72704037  0.06706456  1  0  -0.148576  0  3.654138  0  0  -0.189553  0  3.913516  0  0  -0.192012  0  3.927436  0  0  -0.167304  -0.187675  0  3.903795  0
C  C107  1  0.50979098  0.22704561  0.06706201  1  0  -0.148612  0  3.654106  0  0  -0.18966  0  3.91358  0  0  -0.192115  0  3.927494  0  0  -0.167315  -0.187786  0  3.903867  0
C  C108  1  0.85321205  0.38160062  0.91448992  1  0  -0.149326  0  3.681327  0  0  -0.190755  0  3.943393  0  0  -0.192557  0  3.956347  0  0  -0.166497  -0.189381  0  3.934492  0
C  C109  1  0.64678395  0.88159752  0.91448745  1  0  -0.149125  0  3.68101  0  0  -0.190563  0  3.943147  0  0  -0.192365  0  3.956104  0  0  -0.16644  -0.189191  0  3.934245  0
C  C110  1  0.14679379  0.61840867  0.08551337  1  0  -0.149095  0  3.680786  0  0  -0.190498  0  3.942984  0  0  -0.192287  0  3.955921  0  0  -0.166537  -0.189129  0  3.934085  0
C  C111  1  0.35320763  0.11841177  0.08551532  1  0  -0.148997  0  3.680863  0  0  -0.190431  0  3.943011  0  0  -0.192229  0  3.955958  0  0  -0.1665  -0.18906  0  3.934109  0
C  C112  1  0.99984152  0.49106721  0.89404376  1  0  0.098481  0  3.61322  0  0  0.044688  0  3.880448  0  0  0.05138  0  3.886848  0  0  -0.066572  0.040226  0  3.875975  0
C  C113  1  0.50015479  0.99105995  0.89404138  1  0  0.098529  0  3.613155  0  0  0.044673  0  3.88049  0  0  0.051364  0  3.886889  0  0  -0.066543  0.04021  0  3.876014  0
C  C114  1  0.00016591  0.50894207  0.10595746  1  0  0.098438  0  3.6127  0  0  0.04448  0  3.880112  0  0  0.05117  0  3.886506  0  0  -0.066545  0.040016  0  3.875637  0
C  C115  1  0.49982888  0.00894637  0.10595871  1  0  0.098333  0  3.613186  0  0  0.044406  0  3.880541  0  0  0.051096  0  3.886945  0  0  -0.066563  0.039941  0  3.876065  0
S  S116  1  0.04218826  0.71046923  0.70376279  1  0  1.135276  0  5.249478  0  0  1.07759  0  5.719123  0  0  1.112939  0  5.712028  0  0  0.462536  1.052595  0  5.724225  0
S  S117  1  0.45773827  0.21048095  0.70375461  1  0  1.135245  0  5.249437  0  0  1.077535  0  5.719117  0  0  1.112887  0  5.71201  0  0  0.462366  1.05254  0  5.724224  0
S  S118  1  0.95781283  0.28952325  0.29622754  1  0  1.135253  0  5.248641  0  0  1.077627  0  5.718255  0  0  1.112979  0  5.711147  0  0  0.462634  1.052639  0  5.723351  0
S  S119  1  0.54225014  0.78951845  0.29624419  1  0  1.135167  0  5.249375  0  0  1.077455  0  5.719045  0  0  1.112808  0  5.711939  0  0  0.462402  1.05246  0  5.724151  0
N  N120  1  0.56921790  0.58209984  0.78293382  1  0  -0.629399  0  2.671371  0  0  -0.601813  0  2.91867  0  0  -0.614765  0  2.923949  0  0  -0.454719  -0.593166  0  2.915752  0
N  N121  1  0.93075109  0.08211979  0.78291932  1  0  -0.629693  0  2.671314  0  0  -0.602172  0  2.918695  0  0  -0.615101  0  2.923927  0  0  -0.454961  -0.593522  0  2.915773  0
N  N122  1  0.43076735  0.41789857  0.21706649  1  0  -0.629512  0  2.670633  0  0  -0.601954  0  2.917964  0  0  -0.614908  0  2.923238  0  0  -0.454827  -0.593304  0  2.915044  0
N  N123  1  0.06924208  0.91788554  0.21707508  1  0  -0.629724  0  2.670674  0  0  -0.602185  0  2.918076  0  0  -0.615125  0  2.923319  0  0  -0.45501  -0.593531  0  2.915149  0
O  O124  1  0.10998463  0.60149147  0.74421952  1  0  -0.698888  0  2.027981  0  0  -0.646645  0  2.287053  0  0  -0.666115  0  2.276262  0  0  -0.388322  -0.632495  0  2.293843  0
O  O125  1  0.38998087  0.10150104  0.74421292  1  0  -0.699024  0  2.028048  0  0  -0.646639  0  2.286982  0  0  -0.666143  0  2.276247  0  0  -0.388321  -0.632488  0  2.293772  0
O  O126  1  0.89001805  0.39850892  0.25577624  1  0  -0.698916  0  2.027876  0  0  -0.646658  0  2.286875  0  0  -0.666146  0  2.276118  0  0  -0.388322  -0.632509  0  2.293666  0
O  O127  1  0.61000913  0.89849639  0.25578684  1  0  -0.698939  0  2.028109  0  0  -0.646603  0  2.287107  0  0  -0.666105  0  2.276368  0  0  -0.388321  -0.632455  0  2.293906  0
O  O128  1  0.17721431  0.82909693  0.70498897  1  0  -0.692035  0  1.961359  0  0  -0.642404  0  2.214676  0  0  -0.661101  0  2.202855  0  0  -0.385024  -0.629009  0  2.222778  0
O  O129  1  0.32272298  0.32910533  0.70498655  1  0  -0.691709  0  1.961344  0  0  -0.642136  0  2.214758  0  0  -0.660799  0  2.202875  0  0  -0.384818  -0.628745  0  2.222863  0
O  O130  1  0.82274875  0.17090346  0.29500370  1  0  -0.691998  0  1.960892  0  0  -0.642369  0  2.214196  0  0  -0.661069  0  2.202377  0  0  -0.38502  -0.628978  0  2.222301  0
O  O131  1  0.67727653  0.67090001  0.29501762  1  0  -0.691726  0  1.961439  0  0  -0.642179  0  2.214898  0  0  -0.660835  0  2.203002  0  0  -0.384826  -0.628788  0  2.223002  0
O  O132  1  0.17184203  0.42222615  0.85835479  1  0  -0.393941  0  2.215735  0  0  -0.323821  0  2.46601  0  0  -0.338067  0  2.463094  0  0  -0.295425  -0.313594  0  2.467556  0
O  O133  1  0.32815649  0.92222383  0.85835207  1  0  -0.393975  0  2.215724  0  0  -0.323794  0  2.465994  0  0  -0.33804  0  2.463075  0  0  -0.295382  -0.313567  0  2.467539  0
O  O134  1  0.82815114  0.57777425  0.14165124  1  0  -0.394047  0  2.215429  0  0  -0.323777  0  2.465648  0  0  -0.338023  0  2.462735  0  0  -0.29542  -0.313549  0  2.46719  0
O  O135  1  0.67183351  0.07777754  0.14164630  1  0  -0.393944  0  2.215596  0  0  -0.323811  0  2.465907  0  0  -0.338062  0  2.462992  0  0  -0.295393  -0.313584  0  2.46745  0
