# generated using pymatgen
data_PuH4(C4O3)2
_symmetry_space_group_name_H-M   'P 1'
_cell_length_a   8.84895035
_cell_length_b   10.41970110
_cell_length_c   10.85788097
_cell_angle_alpha   117.86548320
_cell_angle_beta   90.00238282
_cell_angle_gamma   90.00092626
_symmetry_Int_Tables_number   1
_chemical_formula_structural   PuH4(C4O3)2
_chemical_formula_sum   'Pu4 H16 C32 O24'
_cell_volume   885.04963986
_cell_formula_units_Z   4
loop_
 _symmetry_equiv_pos_site_id
 _symmetry_equiv_pos_as_xyz
  1  'x, y, z'
loop_
 _atom_site_type_symbol
 _atom_site_label
 _atom_site_symmetry_multiplicity
 _atom_site_fract_x
 _atom_site_fract_y
 _atom_site_fract_z
 _atom_site_occupancy
 _atom_site_hle17_ddec_charge
 _atom_site_hle17_ddec_spin_density
 _atom_site_hle17_ddec_sum_bond_order
 _atom_site_hle17_magmom
 _atom_site_hse06_10hf_ddec_charge
 _atom_site_hse06_10hf_ddec_spin_density
 _atom_site_hse06_10hf_ddec_sum_bond_order
 _atom_site_hse06_10hf_magmom
 _atom_site_hse06_ddec_charge
 _atom_site_hse06_ddec_spin_density
 _atom_site_hse06_ddec_sum_bond_order
 _atom_site_hse06_magmom
 _atom_site_pbe_cm5_charge
 _atom_site_pbe_ddec_charge
 _atom_site_pbe_ddec_spin_density
 _atom_site_pbe_ddec_sum_bond_order
 _atom_site_pbe_magmom
Pu  Pu0  1  0.40362451  0.75414926  0.30550007  1  2.250053  -3.201235  3.85632  -3.077  2.397553  -2.345128  4.4913  -2.297  2.525601  -2.371283  4.42804  -2.312  2.088369  2.306339  -2.340899  4.536729  -2.299
Pu  Pu1  1  0.90362324  0.74582834  0.19447659  1  2.248647  -3.202349  3.856972  -3.078  2.397561  -2.345117  4.49158  -2.297  2.525599  -2.371242  4.428319  -2.312  2.088359  2.306346  -2.340902  4.536995  -2.299
Pu  Pu2  1  0.59637126  0.24585230  0.69451407  1  2.249053  -3.202195  3.856498  -3.078  2.397608  -2.345172  4.491198  -2.297  2.525654  -2.371312  4.427935  -2.312  2.088201  2.306368  -2.340897  4.536634  -2.299
Pu  Pu3  1  0.09637593  0.25417207  0.80551494  1  2.248848  -3.201965  3.856898  -3.078  2.397402  -2.345089  4.491637  -2.297  2.525443  -2.371191  4.428376  -2.312  2.088372  2.306191  -2.340912  4.537058  -2.299
H  H4  1  0.69287023  0.50407567  0.53265431  1  0.126029  6.6e-05  0.930191  0.0  0.134232  0.000192  0.989966  0.0  0.138534  0.000126  0.986469  0.0  0.120346  0.131165  0.000287  0.992412  0.0
H  H5  1  0.19289577  0.99594254  0.96736001  1  0.126074  6.5e-05  0.930275  0.0  0.134239  0.000192  0.990073  0.0  0.138544  0.000126  0.986579  0.0  0.120309  0.131165  0.000286  0.992526  0.0
H  H6  1  0.30711989  0.49593891  0.46736195  1  0.126046  6.5e-05  0.930178  0.0  0.134216  0.000192  0.989986  0.0  0.138523  0.000126  0.986482  0.0  0.120312  0.131142  0.000287  0.99244  0.0
H  H7  1  0.80710678  0.00405138  0.03263691  1  0.126035  6.6e-05  0.930317  0.0  0.134214  0.000192  0.990109  0.0  0.138508  0.000127  0.986634  0.0  0.120284  0.131141  0.000286  0.992563  0.0
H  H8  1  0.10664549  0.66916792  0.76194323  1  0.100037  -0.000111  0.962686  -0.001  0.107627  8.3e-05  1.027315  0.0  0.110166  5.6e-05  1.026335  0.0  0.106897  0.105811  0.000111  1.027987  0.0
H  H9  1  0.60661418  0.83083276  0.73802999  1  0.099998  -0.000111  0.962754  -0.001  0.107604  8.3e-05  1.02738  0.0  0.110142  5.6e-05  1.0264  0.0  0.10691  0.105785  0.000111  1.028063  0.0
H  H10  1  0.89336723  0.33083138  0.23804135  1  0.100052  -0.000112  0.96269  -0.001  0.107657  8.3e-05  1.027309  0.0  0.110195  5.6e-05  1.026331  0.0  0.106939  0.105841  0.000111  1.027983  0.0
H  H11  1  0.39339063  0.16915575  0.26197004  1  0.100042  -0.000111  0.962665  -0.001  0.107624  8.3e-05  1.027321  0.0  0.110165  5.6e-05  1.026335  0.0  0.106912  0.105809  0.000111  1.027991  0.0
H  H12  1  0.10717122  0.87077749  0.69741399  1  0.105092  0.000136  0.958136  0.0  0.10857  0.000251  1.026177  0.0  0.111114  0.000218  1.026278  0.0  0.1128  0.106791  0.000272  1.026274  0.0
H  H13  1  0.60711795  0.62921774  0.80254207  1  0.105232  0.000134  0.958243  0.0  0.108545  0.00025  1.026483  0.0  0.111086  0.000218  1.026588  0.0  0.112832  0.106777  0.000271  1.026547  0.0
H  H14  1  0.89284376  0.12921310  0.30255749  1  0.105221  0.000137  0.958042  0.0  0.1086  0.000251  1.026197  0.0  0.111145  0.000219  1.026297  0.0  0.112846  0.106826  0.000272  1.02628  0.0
H  H15  1  0.39288686  0.37078165  0.19747110  1  0.105245  0.000133  0.958214  0.0  0.108637  0.000251  1.02637  0.0  0.111177  0.000218  1.026478  0.0  0.112843  0.106865  0.000272  1.026446  0.0
H  H16  1  0.90570279  0.88272816  0.54546465  1  0.12832  0.001233  0.963932  0.0  0.133022  0.001048  1.027106  0.0  0.135145  0.00103  1.024938  0.0  0.123673  0.132057  0.001048  1.028037  0.0
H  H17  1  0.40568545  0.61726226  0.95449743  1  0.128444  0.001234  0.96387  0.0  0.133101  0.001048  1.027042  0.0  0.135229  0.00103  1.02487  0.0  0.123661  0.132136  0.001048  1.027972  0.0
H  H18  1  0.09430315  0.11725595  0.45451315  1  0.128423  0.001232  0.963806  0.0  0.133046  0.001048  1.027057  0.0  0.135167  0.00103  1.024899  0.0  0.123696  0.132081  0.001048  1.027989  0.0
H  H19  1  0.59432163  0.38274473  0.04551729  1  0.128329  0.001236  0.964011  0.0  0.132991  0.001048  1.027166  0.0  0.135113  0.00103  1.025007  0.0  0.123683  0.132025  0.001048  1.028094  0.0
C  C20  1  0.66850629  0.70223228  0.43658339  1  0.66073  -0.004312  3.848017  -0.013  0.636049  -0.000682  4.141248  -0.003  0.677127  -0.000589  4.13161  -0.002  0.233991  0.607218  -0.000885  4.147059  -0.003
C  C21  1  0.16849473  0.79774932  0.06339086  1  0.660551  -0.00431  3.847623  -0.013  0.636014  -0.000681  4.14091  -0.003  0.677088  -0.000591  4.131282  -0.002  0.234054  0.607178  -0.000886  4.146721  -0.003
C  C22  1  0.33149853  0.29775510  0.56340509  1  0.660618  -0.00432  3.847791  -0.013  0.636107  -0.000682  4.140952  -0.003  0.67718  -0.000593  4.131322  -0.002  0.234123  0.607271  -0.000886  4.146767  -0.003
C  C23  1  0.83149426  0.20224242  0.93660324  1  0.660332  -0.004317  3.847888  -0.013  0.635833  -0.000682  4.141178  -0.003  0.676908  -0.000591  4.131544  -0.002  0.233982  0.606991  -0.000885  4.146993  -0.003
C  C24  1  0.78919966  0.69188700  0.52621883  1  -0.069971  0.022797  3.756378  0.014  -0.052569  0.001555  3.997918  0.001  -0.063227  0.000993  4.019444  0.001  -0.009527  -0.045996  0.0022  3.983945  0.001
C  C25  1  0.28919372  0.80811638  0.97376908  1  -0.069276  0.022783  3.755655  0.014  -0.052454  0.001554  3.997851  0.001  -0.063106  0.000982  4.019376  0.001  -0.009481  -0.045863  0.002198  3.983847  0.001
C  C26  1  0.21080855  0.30811558  0.47377459  1  -0.069633  0.022788  3.755985  0.014  -0.052646  0.001555  3.997979  0.001  -0.0633  0.000988  4.019506  0.001  -0.009523  -0.046061  0.002199  3.983986  0.001
C  C27  1  0.71080319  0.19188082  0.02623574  1  -0.06917  0.022868  3.755594  0.014  -0.052428  0.001555  3.997927  0.001  -0.06308  0.000994  4.019445  0.001  -0.009419  -0.045833  0.0022  3.983914  0.001
C  C28  1  0.78446015  0.58319577  0.56735151  1  -0.053922  0.007831  3.655865  0.004  -0.085488  0.000384  3.902135  0.0  -0.080796  6.9e-05  3.919026  0.0  -0.060458  -0.088299  0.000537  3.890796  0.0
C  C29  1  0.28446770  0.91682483  0.93265313  1  -0.054216  0.007843  3.655897  0.004  -0.085512  0.000384  3.902326  0.0  -0.080831  7.1e-05  3.919223  0.0  -0.060537  -0.088314  0.000539  3.890964  0.0
C  C30  1  0.21553337  0.41681986  0.43265510  1  -0.054037  0.007862  3.655746  0.004  -0.085405  0.000382  3.902071  0.0  -0.080719  7.7e-05  3.918969  0.0  -0.0605  -0.088215  0.000537  3.890729  0.0
C  C31  1  0.71553938  0.08316693  0.06734466  1  -0.054096  0.007764  3.655838  0.004  -0.085345  0.000385  3.902328  0.0  -0.080655  6.8e-05  3.919213  0.0  -0.060457  -0.088156  0.000538  3.890979  0.0
C  C32  1  0.90007032  0.57554327  0.65191928  1  -0.081376  0.030306  3.749275  0.02  -0.067916  0.002447  3.98435  0.002  -0.080446  0.001551  4.00762  0.001  -0.012295  -0.059702  0.003693  3.968996  0.003
C  C33  1  0.40006912  0.92448284  0.84808525  1  -0.081416  0.030289  3.74937  0.02  -0.068077  0.002449  3.984624  0.002  -0.080594  0.001546  4.007904  0.001  -0.012114  -0.059863  0.003691  3.969267  0.003
C  C34  1  0.09992093  0.42447997  0.34809441  1  -0.081478  0.030265  3.749145  0.02  -0.068008  0.002449  3.984322  0.002  -0.080536  0.001539  4.007583  0.001  -0.012208  -0.059799  0.003692  3.968971  0.003
C  C35  1  0.59994134  0.07551109  0.15191536  1  -0.081418  0.030354  3.749174  0.02  -0.068215  0.002447  3.984572  0.002  -0.080744  0.001549  4.007851  0.001  -0.012149  -0.060002  0.003692  3.969218  0.003
C  C36  1  0.01766949  0.67757498  0.69695033  1  -0.019652  0.023945  3.669339  0.014  -0.050855  0.000608  3.924195  0.0  -0.046512  0.0001  3.942549  0.0  -0.064129  -0.05358  0.000874  3.911727  0.0
C  C37  1  0.51763800  0.82243641  0.80303021  1  -0.019434  0.023892  3.669794  0.014  -0.050616  0.000609  3.924656  0.0  -0.046273  0.000103  3.943005  0.0  -0.06413  -0.053348  0.000875  3.912193  0.0
C  C38  1  0.98233984  0.32242868  0.30304357  1  -0.019573  0.024008  3.669316  0.014  -0.050802  0.000607  3.924186  0.0  -0.046462  0.000102  3.94254  0.0  -0.064123  -0.05353  0.000874  3.911719  0.0
C  C39  1  0.48237247  0.17755970  0.19697505  1  -0.019486  0.023841  3.669465  0.014  -0.050587  0.000608  3.92431  0.0  -0.046243  9.8e-05  3.942664  0.0  -0.064122  -0.053315  0.000876  3.911846  0.0
C  C40  1  0.01843353  0.78893891  0.66008083  1  -0.056517  0.003469  3.6958  0.001  -0.070407  0.000553  3.962853  0.0  -0.076394  0.000547  3.985285  0.0  -0.074098  -0.066505  0.000722  3.947539  0.0
C  C41  1  0.51839844  0.71106163  0.83988661  1  -0.056704  0.003522  3.696279  0.001  -0.070482  0.000554  3.963284  0.0  -0.076459  0.000541  3.985698  0.0  -0.07423  -0.066578  0.000721  3.947971  0.0
C  C42  1  0.98158484  0.21105279  0.33990037  1  -0.056684  0.003426  3.695918  0.001  -0.070475  0.000555  3.962952  0.0  -0.076459  0.000532  3.985381  0.0  -0.074209  -0.066575  0.000721  3.947636  0.0
C  C43  1  0.48160412  0.28893666  0.16012239  1  -0.05672  0.003585  3.696133  0.001  -0.070554  0.000554  3.96313  0.0  -0.076535  0.000552  3.985547  0.0  -0.074234  -0.066656  0.000721  3.947824  0.0
C  C44  1  0.90512976  0.79589784  0.57432514  1  -0.028685  0.020536  3.640614  0.012  -0.072425  0.001189  3.910374  0.001  -0.070103  0.000945  3.930595  0.001  -0.056786  -0.073236  0.001152  3.895878  0.001
C  C45  1  0.40510693  0.70410344  0.92565005  1  -0.029163  0.020472  3.640778  0.012  -0.072595  0.001187  3.910528  0.001  -0.070269  0.000951  3.930733  0.001  -0.056733  -0.073413  0.001154  3.896032  0.001
C  C46  1  0.09488296  0.20409823  0.42566444  1  -0.028887  0.020551  3.640637  0.012  -0.072437  0.001186  3.910465  0.001  -0.070117  0.000956  3.930687  0.001  -0.056787  -0.073251  0.001153  3.895967  0.001
C  C47  1  0.59489789  0.29590029  0.07436322  1  -0.029071  0.020386  3.640697  0.012  -0.072518  0.00119  3.910579  0.001  -0.07019  0.000946  3.930785  0.001  -0.05679  -0.073333  0.001155  3.896076  0.001
C  C48  1  0.89723607  0.45900585  0.69411058  1  0.699213  -0.005067  3.833778  -0.018  0.685064  -0.000147  4.111899  -0.003  0.728954  -0.000155  4.098936  -0.002  0.25953  0.653745  -0.000312  4.119834  -0.004
C  C49  1  0.39724689  0.04103980  0.80592051  1  0.699382  -0.005075  3.833121  -0.018  0.685183  -0.000148  4.11141  -0.003  0.729034  -0.000158  4.098497  -0.002  0.259485  0.653878  -0.000312  4.119335  -0.004
C  C50  1  0.10274388  0.54102500  0.30590835  1  0.699486  -0.00508  3.833335  -0.018  0.685124  -0.000147  4.111789  -0.003  0.729027  -0.000157  4.098801  -0.002  0.259554  0.653812  -0.000312  4.119721  -0.004
C  C51  1  0.60275906  0.95895849  0.19408665  1  0.699439  -0.005072  3.833182  -0.018  0.685295  -0.000148  4.111417  -0.003  0.72916  -0.000157  4.098478  -0.002  0.259464  0.653981  -0.000312  4.119361  -0.004
O  O52  1  0.33830017  0.90243164  0.46144642  1  -0.592735  0.359602  1.490924  0.311  -0.592782  0.135894  1.760977  0.119  -0.608014  0.163484  1.740692  0.144  -0.684182  -0.586025  0.11897  1.777225  0.104
O  O53  1  0.83830835  0.59753258  0.03851839  1  -0.59261  0.359757  1.491185  0.312  -0.592768  0.135909  1.761178  0.119  -0.607991  0.163497  1.740885  0.144  -0.684141  -0.586006  0.118985  1.777415  0.104
O  O54  1  0.66171820  0.09759048  0.53855571  1  -0.592761  0.359758  1.49089  0.312  -0.59288  0.135919  1.760839  0.119  -0.608116  0.163513  1.740566  0.144  -0.684199  -0.586115  0.118985  1.777084  0.104
O  O55  1  0.16168855  0.40246348  0.96147120  1  -0.592578  0.359623  1.491162  0.311  -0.592652  0.135896  1.761185  0.119  -0.607887  0.163481  1.740912  0.144  -0.684161  -0.585906  0.118977  1.777431  0.104
O  O56  1  0.47064741  0.60451086  0.15196213  1  -0.597753  0.351461  1.590318  0.306  -0.59495  0.137145  1.882373  0.122  -0.613122  0.164696  1.862877  0.147  -0.686525  -0.58588  0.119954  1.897524  0.106
O  O57  1  0.97064901  0.89546605  0.34801463  1  -0.597713  0.351452  1.590454  0.306  -0.595012  0.137116  1.882546  0.122  -0.613156  0.164651  1.862991  0.147  -0.686596  -0.585938  0.119929  1.897684  0.106
O  O58  1  0.52931446  0.39546363  0.84806296  1  -0.597699  0.35158  1.590124  0.306  -0.594948  0.137165  1.882103  0.122  -0.61313  0.16471  1.862635  0.147  -0.686388  -0.585873  0.119965  1.897256  0.106
O  O59  1  0.02935468  0.10452680  0.65198918  1  -0.597718  0.351324  1.590533  0.306  -0.594965  0.137099  1.882661  0.122  -0.613091  0.164637  1.863072  0.147  -0.686639  -0.585907  0.119917  1.897817  0.106
O  O60  1  0.69563545  0.75334128  0.35088094  1  -0.699535  0.083735  2.078176  0.081  -0.720149  0.01457  2.377236  0.017  -0.766444  0.009105  2.375762  0.012  -0.352079  -0.68552  0.01964  2.375705  0.021
O  O61  1  0.19562397  0.74664137  0.14909376  1  -0.699471  0.083736  2.078314  0.081  -0.720097  0.014566  2.377378  0.017  -0.766388  0.009104  2.375906  0.012  -0.352085  -0.685466  0.019637  2.375838  0.021
O  O62  1  0.30437162  0.24664719  0.64910618  1  -0.699475  0.083736  2.078318  0.081  -0.720137  0.014573  2.377334  0.017  -0.766426  0.009115  2.37585  0.012  -0.352099  -0.685502  0.019643  2.375793  0.021
O  O63  1  0.80435372  0.25334603  0.85089748  1  -0.699497  0.083753  2.078422  0.081  -0.720098  0.014571  2.377395  0.017  -0.766395  0.009109  2.375926  0.012  -0.3521  -0.685468  0.01964  2.375868  0.021
O  O64  1  0.53343934  0.66610500  0.44683338  1  -0.588048  0.104808  1.936644  0.095  -0.585988  0.01978  2.186376  0.019  -0.623481  0.012858  2.182095  0.013  -0.328084  -0.558374  0.026183  2.187803  0.024
O  O65  1  0.03342681  0.83387468  0.05313918  1  -0.58811  0.104815  1.936497  0.095  -0.586057  0.019782  2.186148  0.019  -0.623559  0.012871  2.181892  0.013  -0.328135  -0.558446  0.026185  2.187576  0.024
O  O66  1  0.46656999  0.33389108  0.55316082  1  -0.588069  0.104881  1.93648  0.095  -0.586045  0.019787  2.186136  0.019  -0.623545  0.012863  2.181872  0.013  -0.328167  -0.558428  0.026193  2.187567  0.024
O  O67  1  0.96656218  0.16612138  0.94685041  1  -0.587971  0.104816  1.936711  0.095  -0.585898  0.01978  2.186353  0.019  -0.623401  0.012859  2.182098  0.013  -0.328097  -0.55829  0.026183  2.187788  0.024
O  O68  1  0.01329630  0.43543567  0.74982219  1  -0.633546  0.098623  2.033738  0.091  -0.646023  0.017474  2.309686  0.018  -0.690052  0.010034  2.306159  0.011  -0.342509  -0.612356  0.025706  2.309835  0.025
O  O69  1  0.51330237  0.06456805  0.75016812  1  -0.633651  0.098709  2.033718  0.091  -0.646109  0.017488  2.309682  0.018  -0.690129  0.010041  2.306183  0.011  -0.342563  -0.612441  0.025721  2.309827  0.025
O  O70  1  0.98668592  0.56455930  0.25016415  1  -0.63365  0.09865  2.033759  0.091  -0.646076  0.017476  2.30985  0.018  -0.690103  0.010035  2.306308  0.011  -0.342592  -0.61241  0.025711  2.309993  0.025
O  O71  1  0.48670244  0.93542154  0.24982963  1  -0.633589  0.098692  2.033708  0.091  -0.646042  0.017481  2.309681  0.018  -0.690061  0.010035  2.306162  0.011  -0.342441  -0.612373  0.025716  2.309834  0.025
O  O72  1  0.77539326  0.38640709  0.67275964  1  -0.646894  0.10279  2.12062  0.095  -0.662471  0.012769  2.416034  0.013  -0.707961  0.00619  2.410257  0.007  -0.374904  -0.627573  0.020738  2.417789  0.021
O  O73  1  0.27544837  0.11368822  0.82731072  1  -0.647046  0.102738  2.120358  0.095  -0.662523  0.012781  2.415768  0.013  -0.708007  0.006203  2.410009  0.007  -0.374843  -0.627615  0.020742  2.417478  0.021
O  O74  1  0.22456296  0.61365634  0.32727935  1  -0.647087  0.102816  2.12056  0.095  -0.662561  0.01278  2.416081  0.013  -0.708066  0.006202  2.410303  0.007  -0.374906  -0.627639  0.020747  2.417779  0.021
O  O75  1  0.72455757  0.88630681  0.17269407  1  -0.647176  0.102767  2.120493  0.095  -0.662669  0.012781  2.415839  0.013  -0.708155  0.006204  2.410066  0.007  -0.374955  -0.627761  0.020745  2.417571  0.021
