# generated using pymatgen
data_UH14C22(N2O3)2
_symmetry_space_group_name_H-M   'P 1'
_cell_length_a   6.11435241
_cell_length_b   9.04914414
_cell_length_c   9.30050626
_cell_angle_alpha   84.54395916
_cell_angle_beta   81.12821853
_cell_angle_gamma   75.67409006
_symmetry_Int_Tables_number   1
_chemical_formula_structural   UH14C22(N2O3)2
_chemical_formula_sum   'U1 H14 C22 N4 O6'
_cell_volume   491.75519211
_cell_formula_units_Z   1
loop_
 _symmetry_equiv_pos_site_id
 _symmetry_equiv_pos_as_xyz
  1  'x, y, z'
loop_
 _atom_site_type_symbol
 _atom_site_label
 _atom_site_symmetry_multiplicity
 _atom_site_fract_x
 _atom_site_fract_y
 _atom_site_fract_z
 _atom_site_occupancy
 _atom_site_hle17_bader_spin_density
 _atom_site_hle17_ddec_charge
 _atom_site_hle17_ddec_spin_density
 _atom_site_hle17_ddec_sum_bond_order
 _atom_site_hle17_magmom
 _atom_site_hse06_10hf_bader_spin_density
 _atom_site_hse06_10hf_ddec_charge
 _atom_site_hse06_10hf_ddec_spin_density
 _atom_site_hse06_10hf_ddec_sum_bond_order
 _atom_site_hse06_10hf_magmom
 _atom_site_hse06_bader_spin_density
 _atom_site_hse06_ddec_charge
 _atom_site_hse06_ddec_spin_density
 _atom_site_hse06_ddec_sum_bond_order
 _atom_site_hse06_magmom
 _atom_site_pbe_bader_spin_density
 _atom_site_pbe_cm5_charge
 _atom_site_pbe_ddec_charge
 _atom_site_pbe_ddec_spin_density
 _atom_site_pbe_ddec_sum_bond_order
 _atom_site_pbe_magmom
U  U0  1  0.99999723  0.49999796  0.99999905  1  0  2.293605  0  4.184965  0  0  2.328917  0  4.84864  0  0  2.437024  0  4.820313  0  0  2.152499  2.253918  0  4.868354  0
H  H1  1  0.66055071  0.37136067  0.60125614  1  0  0.106615  0  0.940046  0  0  0.116712  0  1.002841  0  0  0.119993  0  1.001051  0  0  0.107921  0.114318  0  1.003873  0
H  H2  1  0.33946396  0.62863705  0.39874786  1  0  0.106688  0  0.939948  0  0  0.116754  0  1.00278  0  0  0.120035  0  1.00099  0  0  0.107933  0.114356  0  1.003817  0
H  H3  1  0.21740583  0.97516495  0.65043755  1  0  0.085565  0  0.995513  0  0  0.089915  0  1.070619  0  0  0.09309  0  1.069  0  0  0.096887  0.08749  0  1.071774  0
H  H4  1  0.78258999  0.02482655  0.34957264  1  0  0.085483  0  0.995607  0  0  0.089831  0  1.070704  0  0  0.093004  0  1.069088  0  0  0.096891  0.087407  0  1.071861  0
H  H5  1  0.00408041  0.89291436  0.87800662  1  0  0.10524  0  0.94753  0  0  0.113684  0  1.009118  0  0  0.116547  0  1.008148  0  0  0.112403  0.111771  0  1.009395  0
H  H6  1  0.99588907  0.10708353  0.12199551  1  0  0.105169  0  0.947614  0  0  0.11365  0  1.009162  0  0  0.116502  0  1.008219  0  0  0.112396  0.111736  0  1.009439  0
H  H7  1  0.62068507  0.04912758  0.96838874  1  0  0.10208  0  0.967222  0  0  0.112682  0  1.027815  0  0  0.116095  0  1.025441  0  0  0.107978  0.110101  0  1.029744  0
H  H8  1  0.37928888  0.95087506  0.03160807  1  0  0.10201  0  0.967282  0  0  0.112633  0  1.027854  0  0  0.116045  0  1.025487  0  0  0.107982  0.110062  0  1.029764  0
H  H9  1  0.82549996  0.34748825  0.35560548  1  0  0.097144  0  0.959093  0  0  0.097878  0  1.035577  0  0  0.102106  0  1.029632  0  0  0.125634  0.094441  0  1.040334  0
H  H10  1  0.17450618  0.65250015  0.64438865  1  0  0.097122  0  0.95907  0  0  0.097859  0  1.035571  0  0  0.102087  0  1.029625  0  0  0.125611  0.094428  0  1.040306  0
H  H11  1  0.47673373  0.36597472  0.15659340  1  0  0.081424  0  0.944812  0  0  0.087311  0  1.010877  0  0  0.090031  0  1.006425  0  0  0.140292  0.085099  0  1.014558  0
H  H12  1  0.52327170  0.63402970  0.84341220  1  0  0.081424  0  0.944888  0  0  0.087324  0  1.010923  0  0  0.090041  0  1.006477  0  0  0.140309  0.085111  0  1.01461  0
H  H13  1  0.42092498  0.14099273  0.56401556  1  0  0.070652  0  0.956276  0  0  0.07843  0  1.024017  0  0  0.08028  0  1.022798  0  0  0.113788  0.077021  0  1.025045  0
H  H14  1  0.57908497  0.85900835  0.43598763  1  0  0.070644  0  0.956265  0  0  0.078411  0  1.024021  0  0  0.080263  0  1.022801  0  0  0.113725  0.077  0  1.025052  0
C  C15  1  0.61485115  0.21470318  0.78624193  1  0  -0.063188  0  3.77259  0  0  -0.032943  0  3.995191  0  0  -0.041317  0  4.016917  0  0  -0.013701  -0.027728  0  3.981029  0
C  C16  1  0.38514897  0.78530116  0.21375789  1  0  -0.063236  0  3.772707  0  0  -0.03297  0  3.99528  0  0  -0.041335  0  4.017004  0  0  -0.01366  -0.027761  0  3.981135  0
C  C17  1  0.73703339  0.26505253  0.65897656  1  0  -0.095312  0  3.668408  0  0  -0.130478  0  3.919804  0  0  -0.130718  0  3.939497  0  0  -0.070309  -0.129779  0  3.905251  0
C  C18  1  0.26297479  0.73494394  0.34102192  1  0  -0.095434  0  3.668518  0  0  -0.130571  0  3.919899  0  0  -0.130811  0  3.939589  0  0  -0.070348  -0.129867  0  3.905339  0
C  C19  1  0.95802476  0.18193715  0.61051619  1  0  0.050879  0  3.792261  0  0  0.064732  0  4.029447  0  0  0.06362  0  4.056187  0  0  -0.006609  0.064887  0  4.011108  0
C  C20  1  0.04197877  0.81806267  0.38948255  1  0  0.051023  0  3.792403  0  0  0.064884  0  4.02952  0  0  0.063774  0  4.056257  0  0  -0.006536  0.065039  0  4.011174  0
C  C21  1  0.05060946  0.04600836  0.68937141  1  0  -0.093605  0  3.708166  0  0  -0.116887  0  3.958586  0  0  -0.118811  0  3.98021  0  0  -0.080221  -0.114891  0  3.943748  0
C  C22  1  0.94939026  0.95399362  0.31063406  1  0  -0.093551  0  3.708243  0  0  -0.116832  0  3.958671  0  0  -0.118751  0  3.980292  0  0  -0.080272  -0.11484  0  3.943841  0
C  C23  1  0.92980490  0.99720914  0.81680962  1  0  -0.057079  0  3.741768  0  0  -0.067947  0  3.994898  0  0  -0.071372  0  4.017125  0  0  -0.080933  -0.066489  0  3.979493  0
C  C24  1  0.07017548  0.00279475  0.18319165  1  0  -0.057047  0  3.741836  0  0  -0.06793  0  3.994966  0  0  -0.071358  0  4.017196  0  0  -0.080935  -0.066469  0  3.979563  0
C  C25  1  0.71358166  0.08250831  0.86631744  1  0  -0.035429  0  3.679747  0  0  -0.063625  0  3.923848  0  0  -0.062024  0  3.941812  0  0  -0.069442  -0.064545  0  3.911939  0
C  C26  1  0.28640160  0.91749680  0.13368443  1  0  -0.035341  0  3.679782  0  0  -0.063559  0  3.92388  0  0  -0.061966  0  3.941853  0  0  -0.069468  -0.064486  0  3.911964  0
C  C27  1  0.38579479  0.30414986  0.84494856  1  0  0.631593  0  3.878947  0  0  0.593161  0  4.175616  0  0  0.63007  0  4.168658  0  0  0.204856  0.567896  0  4.179833  0
C  C28  1  0.61421255  0.69585697  0.15504904  1  0  0.63161  0  3.878848  0  0  0.59315  0  4.175556  0  0  0.630058  0  4.168602  0  0  0.204809  0.567861  0  4.179803  0
C  C29  1  0.09813334  0.23538008  0.48236592  1  0  -0.035771  0  3.759314  0  0  -0.013822  0  3.984564  0  0  -0.021838  0  4.009522  0  0  0.004346  -0.008515  0  3.967216  0
C  C30  1  0.90187523  0.76461984  0.51763433  1  0  -0.035924  0  3.759454  0  0  -0.013918  0  3.984622  0  0  -0.021938  0  4.009586  0  0  0.004334  -0.008614  0  3.96727  0
C  C31  1  0.00787725  0.31949500  0.36159753  1  0  0.14363  0  3.624266  0  0  0.109192  0  3.88192  0  0  0.120619  0  3.895465  0  0  0.078334  0.10211  0  3.870552  0
C  C32  1  0.99212699  0.68049906  0.63840274  1  0  0.143716  0  3.62416  0  0  0.109251  0  3.881801  0  0  0.120678  0  3.895348  0  0  0.078314  0.102174  0  3.87044  0
C  C33  1  0.36831269  0.32897589  0.25029864  1  0  0.301333  0  3.680128  0  0  0.256507  0  3.958742  0  0  0.273248  0  3.968242  0  0  0.189772  0.246032  0  3.950852  0
C  C34  1  0.63169103  0.67102391  0.74970331  1  0  0.301351  0  3.680157  0  0  0.256537  0  3.958742  0  0  0.273279  0  3.968244  0  0  0.189778  0.246064  0  3.950863  0
C  C35  1  0.33568418  0.20396139  0.47414173  1  0  0.128093  0  3.674559  0  0  0.093393  0  3.926987  0  0  0.103053  0  3.941812  0  0  0.066036  0.087261  0  3.917186  0
C  C36  1  0.66432853  0.79604091  0.52585993  1  0  0.128127  0  3.674738  0  0  0.093402  0  3.92716  0  0  0.103061  0  3.941988  0  0  0.066087  0.087276  0  3.917352  0
N  N37  1  0.14175521  0.36559299  0.24637680  1  0  -0.391385  0  3.210125  0  0  -0.354754  0  3.501572  0  0  -0.379261  0  3.523641  0  0  -0.348294  -0.337515  0  3.483065  0
N  N38  1  0.85825276  0.63440001  0.75362311  1  0  -0.39148  0  3.210182  0  0  -0.354857  0  3.501634  0  0  -0.379368  0  3.523706  0  0  -0.348338  -0.337625  0  3.483144  0
N  N39  1  0.47039882  0.25010021  0.36015477  1  0  -0.335772  0  3.053692  0  0  -0.289965  0  3.321234  0  0  -0.305644  0  3.333339  0  0  -0.307773  -0.279543  0  3.312892  0
N  N40  1  0.52961389  0.74990209  0.63984689  1  0  -0.335724  0  3.053735  0  0  -0.289911  0  3.321272  0  0  -0.305592  0  3.33338  0  0  -0.307729  -0.27949  0  3.312925  0
O  O41  1  0.19967318  0.61403598  0.01417313  1  0  -0.688301  0  1.61537  0  0  -0.690332  0  1.916007  0  0  -0.711875  0  1.906362  0  0  -0.758276  -0.67692  0  1.922937  0
O  O42  1  0.80034549  0.38596414  0.98583013  1  0  -0.688225  0  1.615834  0  0  -0.690205  0  1.916455  0  0  -0.711751  0  1.906837  0  0  -0.758375  -0.6768  0  1.923405  0
O  O43  1  0.29468541  0.26532846  0.97241392  1  0  -0.628606  0  2.025772  0  0  -0.609265  0  2.28791  0  0  -0.644008  0  2.287823  0  0  -0.350806  -0.584251  0  2.28665  0
O  O44  1  0.70531177  0.73467817  0.02757959  1  0  -0.62859  0  2.025748  0  0  -0.609254  0  2.287913  0  0  -0.643997  0  2.287825  0  0  -0.350787  -0.584235  0  2.286664  0
O  O45  1  0.27863464  0.42133179  0.77495129  1  0  -0.62663  0  1.979195  0  0  -0.608115  0  2.23776  0  0  -0.64046  0  2.23548  0  0  -0.338072  -0.585282  0  2.238625  0
O  O46  1  0.72136864  0.57867264  0.22504597  1  0  -0.626589  0  1.979057  0  0  -0.608062  0  2.237625  0  0  -0.640409  0  2.23535  0  0  -0.338033  -0.585214  0  2.238489  0
