# generated using pymatgen
data_CdH12(C9N7)2
_symmetry_space_group_name_H-M   'P 1'
_cell_length_a   6.92723212
_cell_length_b   6.92724854
_cell_length_c   11.09623813
_cell_angle_alpha   96.70526934
_cell_angle_beta   96.70617333
_cell_angle_gamma   109.23216016
_symmetry_Int_Tables_number   1
_chemical_formula_structural   CdH12(C9N7)2
_chemical_formula_sum   'Cd1 H12 C18 N14'
_cell_volume   492.42654242
_cell_formula_units_Z   1
loop_
 _symmetry_equiv_pos_site_id
 _symmetry_equiv_pos_as_xyz
  1  'x, y, z'
loop_
 _atom_site_type_symbol
 _atom_site_label
 _atom_site_symmetry_multiplicity
 _atom_site_fract_x
 _atom_site_fract_y
 _atom_site_fract_z
 _atom_site_occupancy
 _atom_site_hle17_bader_spin_density
 _atom_site_hle17_ddec_charge
 _atom_site_hle17_ddec_spin_density
 _atom_site_hle17_ddec_sum_bond_order
 _atom_site_hle17_magmom
 _atom_site_hse06_10hf_bader_spin_density
 _atom_site_hse06_10hf_ddec_charge
 _atom_site_hse06_10hf_ddec_spin_density
 _atom_site_hse06_10hf_ddec_sum_bond_order
 _atom_site_hse06_10hf_magmom
 _atom_site_hse06_bader_spin_density
 _atom_site_hse06_ddec_charge
 _atom_site_hse06_ddec_spin_density
 _atom_site_hse06_ddec_sum_bond_order
 _atom_site_hse06_magmom
 _atom_site_pbe_bader_spin_density
 _atom_site_pbe_cm5_charge
 _atom_site_pbe_ddec_charge
 _atom_site_pbe_ddec_spin_density
 _atom_site_pbe_ddec_sum_bond_order
 _atom_site_pbe_magmom
Cd  Cd0  1  0.28588337  0.71412185  0.99999760  1  0  1.001258  0  1.82539  0  0  0.776464  0  2.289651  0  0  0.829493  0  2.248745  0  0  0.79391  0.739636  0  2.317034  0
H  H1  1  0.58498134  0.94185659  0.32572614  1  0  0.101284  0  0.940309  0  0  0.10697  0  1.009293  0  0  0.110012  0  1.005415  0  0  0.139979  0.104732  0  1.012015  0
H  H2  1  0.05815271  0.41503952  0.67427500  1  0  0.101166  0  0.94046  0  0  0.10691  0  1.009387  0  0  0.109951  0  1.00551  0  0  0.139897  0.104672  0  1.012113  0
H  H3  1  0.40148638  0.10366466  0.48476997  1  0  0.261153  0  0.984948  0  0  0.226802  0  1.064378  0  0  0.237099  0  1.057331  0  0  0.298117  0.21977  0  1.068915  0
H  H4  1  0.89633051  0.59852701  0.51522711  1  0  0.261125  0  0.984983  0  0  0.226741  0  1.064417  0  0  0.237037  0  1.057364  0  0  0.298105  0.219673  0  1.069033  0
H  H5  1  0.80263314  0.29358195  0.89773657  1  0  0.119755  0  0.951519  0  0  0.126046  0  1.016719  0  0  0.130042  0  1.014288  0  0  0.110965  0.123143  0  1.018774  0
H  H6  1  0.70639883  0.19737000  0.10227031  1  0  0.119644  0  0.951698  0  0  0.126007  0  1.016798  0  0  0.130002  0  1.014366  0  0  0.110982  0.123095  0  1.018866  0
H  H7  1  0.50287454  0.70120446  0.76305199  1  0  0.104949  0  0.965356  0  0  0.113841  0  1.02868  0  0  0.116982  0  1.027642  0  0  0.106607  0.111593  0  1.029555  0
H  H8  1  0.29877423  0.49712456  0.23694923  1  0  0.105157  0  0.965316  0  0  0.11404  0  1.028626  0  0  0.117183  0  1.027585  0  0  0.106704  0.111789  0  1.029508  0
H  H9  1  0.66064769  0.05928080  0.69682671  1  0  0.076503  0  0.929218  0  0  0.08547  0  0.992358  0  0  0.08855  0  0.989454  0  0  0.113001  0.083151  0  0.994608  0
H  H10  1  0.94070452  0.33936638  0.30317737  1  0  0.076527  0  0.929288  0  0  0.085501  0  0.992431  0  0  0.088581  0  0.989526  0  0  0.113022  0.083167  0  0.994696  0
H  H11  1  0.36403178  0.44396794  0.56870270  1  0  0.063272  0  0.940188  0  0  0.074409  0  1.001318  0  0  0.076798  0  0.999237  0  0  0.111185  0.072483  0  1.003222  0
H  H12  1  0.55601485  0.63597573  0.43129830  1  0  0.063342  0  0.940015  0  0  0.074461  0  1.001194  0  0  0.076852  0  0.999113  0  0  0.111193  0.072531  0  1.003099  0
C  C13  1  0.42588899  0.93771649  0.31132990  1  0  0.213211  0  3.696063  0  0  0.148682  0  3.968185  0  0  0.163066  0  3.981267  0  0  0.155171  0.139437  0  3.959037  0
C  C14  1  0.06229051  0.57413167  0.68866670  1  0  0.213241  0  3.696377  0  0  0.148646  0  3.968441  0  0  0.163028  0  3.981524  0  0  0.155203  0.139397  0  3.959286  0
C  C15  1  0.11579750  0.89163502  0.23069435  1  0  0.24508  0  3.806321  0  0  0.225008  0  4.07834  0  0  0.235966  0  4.092886  0  0  0.210779  0.217751  0  4.068321  0
C  C16  1  0.10836558  0.88421942  0.76930196  1  0  0.244892  0  3.806721  0  0  0.224942  0  4.078684  0  0  0.235901  0  4.093232  0  0  0.210793  0.217677  0  4.068672  0
C  C17  1  0.93391293  0.81841725  0.13538177  1  0  0.238586  0  3.834897  0  0  0.220861  0  4.103057  0  0  0.22897  0  4.120615  0  0  0.199828  0.215418  0  4.090979  0
C  C18  1  0.18157816  0.06609763  0.86461513  1  0  0.238686  0  3.834846  0  0  0.220759  0  4.103209  0  0  0.228866  0  4.120769  0  0  0.199797  0.215317  0  4.09113  0
C  C19  1  0.74473573  0.65781738  0.96532510  1  0  0.293709  0  3.797108  0  0  0.264398  0  4.063256  0  0  0.276347  0  4.080132  0  0  0.201177  0.256571  0  4.051422  0
C  C20  1  0.34216466  0.25526449  0.03467693  1  0  0.293658  0  3.797088  0  0  0.264341  0  4.063244  0  0  0.276289  0  4.080125  0  0  0.201209  0.256517  0  4.051406  0
C  C21  1  0.70457595  0.33239171  0.82782036  1  0  -0.123941  0  3.676331  0  0  -0.148138  0  3.9329  0  0  -0.153023  0  3.950957  0  0  -0.075099  -0.145299  0  3.921203  0
C  C22  1  0.66758824  0.29542761  0.17218494  1  0  -0.123666  0  3.676322  0  0  -0.147767  0  3.932675  0  0  -0.152651  0  3.950738  0  0  -0.075066  -0.14492  0  3.920981  0
C  C23  1  0.66223190  0.51707595  0.84806319  1  0  0.06352  0  3.754777  0  0  0.079529  0  3.986451  0  0  0.082615  0  4.005978  0  0  0.015867  0.077551  0  3.973196  0
C  C24  1  0.48290269  0.33776936  0.15194164  1  0  0.063547  0  3.754675  0  0  0.079481  0  3.986429  0  0  0.082565  0  4.005959  0  0  0.015865  0.077504  0  3.973172  0
C  C25  1  0.53880727  0.55934647  0.75266894  1  0  -0.143168  0  3.713213  0  0  -0.167474  0  3.96874  0  0  -0.173269  0  3.98896  0  0  -0.084887  -0.163535  0  3.955075  0
C  C26  1  0.44062800  0.46119188  0.24733188  1  0  -0.143348  0  3.713089  0  0  -0.167643  0  3.968646  0  0  -0.173436  0  3.988862  0  0  -0.084976  -0.163709  0  3.95499  0
C  C27  1  0.62444546  0.20084036  0.71546604  1  0  0.121643  0  3.715325  0  0  0.091207  0  3.97704  0  0  0.096952  0  3.992897  0  0  0.044147  0.087681  0  3.966067  0
C  C28  1  0.79914519  0.37556379  0.28453772  1  0  0.121341  0  3.715234  0  0  0.09077  0  3.977032  0  0  0.096513  0  3.992889  0  0  0.043943  0.087257  0  3.966058  0
C  C29  1  0.46271793  0.41699904  0.64430301  1  0  0.114853  0  3.745855  0  0  0.082193  0  4.012398  0  0  0.087491  0  4.030365  0  0  0.038157  0.078795  0  4.0001  0
C  C30  1  0.58298097  0.53728734  0.35569727  1  0  0.114673  0  3.745665  0  0  0.081958  0  4.012211  0  0  0.087253  0  4.030182  0  0  0.038083  0.07857  0  3.999904  0
N  N31  1  0.29013362  0.85028984  0.20783159  1  0  -0.443201  0  3.166521  0  0  -0.371031  0  3.44014  0  0  -0.392505  0  3.453616  0  0  -0.347951  -0.356506  0  3.430586  0
N  N32  1  0.14971610  0.70988780  0.79216475  1  0  -0.443022  0  3.166512  0  0  -0.370896  0  3.440156  0  0  -0.392367  0  3.453628  0  0  -0.347905  -0.356365  0  3.430596  0
N  N33  1  0.13798853  0.99786347  0.34298504  1  0  -0.256686  0  2.800607  0  0  -0.260457  0  3.072006  0  0  -0.265637  0  3.083121  0  0  -0.234569  -0.256893  0  3.064409  0
N  N34  1  0.00213324  0.86202516  0.65701029  1  0  -0.256596  0  2.800633  0  0  -0.260411  0  3.071978  0  0  -0.265596  0  3.08309  0  0  -0.234545  -0.256842  0  3.064375  0
N  N35  1  0.33625959  0.02421399  0.39230358  1  0  -0.169266  0  3.462105  0  0  -0.099909  0  3.714603  0  0  -0.114807  0  3.731407  0  0  -0.260348  -0.090085  0  3.702997  0
N  N36  1  0.97578674  0.66375518  0.60769234  1  0  -0.169315  0  3.462272  0  0  -0.099897  0  3.714724  0  0  -0.114782  0  3.731512  0  0  -0.260393  -0.090063  0  3.703142  0
N  N37  1  0.76136361  0.86660123  0.13390932  1  0  -0.261138  0  2.919358  0  0  -0.245717  0  3.19425  0  0  -0.253822  0  3.211709  0  0  -0.227909  -0.240019  0  3.182286  0
N  N38  1  0.13339713  0.23864732  0.86608500  1  0  -0.261158  0  2.918944  0  0  -0.245666  0  3.193884  0  0  -0.253772  0  3.211342  0  0  -0.227887  -0.239968  0  3.18192  0
N  N39  1  0.93079932  0.68841986  0.03264406  1  0  -0.485129  0  3.09735  0  0  -0.426732  0  3.36731  0  0  -0.447449  0  3.382902  0  0  -0.348352  -0.412479  0  3.356317  0
N  N40  1  0.31156368  0.06920450  0.96735823  1  0  -0.485046  0  3.097432  0  0  -0.426548  0  3.367395  0  0  -0.447262  0  3.382988  0  0  -0.348261  -0.412297  0  3.356396  0
N  N41  1  0.64058159  0.76446980  0.02390263  1  0  -0.330793  0  3.139227  0  0  -0.263135  0  3.427626  0  0  -0.281388  0  3.445127  0  0  -0.248911  -0.250889  0  3.415432  0
N  N42  1  0.23552046  0.35942524  0.97609511  1  0  -0.330903  0  3.138978  0  0  -0.263243  0  3.427365  0  0  -0.281491  0  3.444854  0  0  -0.249054  -0.250996  0  3.415169  0
N  N43  1  0.50446424  0.24093992  0.62451496  1  0  -0.304828  0  3.183401  0  0  -0.251102  0  3.438748  0  0  -0.263787  0  3.455696  0  0  -0.313897  -0.242232  0  3.42617  0
N  N44  1  0.75904803  0.49554617  0.37548743  1  0  -0.304573  0  3.183372  0  0  -0.250672  0  3.438579  0  0  -0.26336  0  3.455538  0  0  -0.313674  -0.241779  0  3.426  0
