# generated using pymatgen
data_MnH8C13NO5
_symmetry_space_group_name_H-M   'P 1'
_cell_length_a   12.51623137
_cell_length_b   12.51722160
_cell_length_c   13.32182568
_cell_angle_alpha   64.27502673
_cell_angle_beta   64.27013903
_cell_angle_gamma   90.10720667
_symmetry_Int_Tables_number   1
_chemical_formula_structural   MnH8C13NO5
_chemical_formula_sum   'Mn4 H32 C52 N4 O20'
_cell_volume   1646.59951087
_cell_formula_units_Z   4
loop_
 _symmetry_equiv_pos_site_id
 _symmetry_equiv_pos_as_xyz
  1  'x, y, z'
loop_
 _atom_site_type_symbol
 _atom_site_label
 _atom_site_symmetry_multiplicity
 _atom_site_fract_x
 _atom_site_fract_y
 _atom_site_fract_z
 _atom_site_occupancy
 _atom_site_pbe_bader_charge
 _atom_site_pbe_bader_spin_density
 _atom_site_pbe_cm5_charge
 _atom_site_pbe_ddec_charge
 _atom_site_pbe_ddec_spin_density
 _atom_site_pbe_ddec_sum_bond_order
 _atom_site_pbe_magmom
Mn  Mn0  1  0.00001330  0.50000055  0.99999827  1  1.599403  4.389012  0.63262  1.085297  4.538648  2.378127  4.337
Mn  Mn1  1  0.49999120  0.99998793  0.49999849  1  1.599402  4.388701  0.632654  1.085467  4.538311  2.378227  4.337
Mn  Mn2  1  0.30553688  0.69447763  0.75000261  1  1.619825  4.304793  0.65583  1.093087  4.467724  2.55184  4.27
Mn  Mn3  1  0.69446030  0.30552260  0.24999320  1  1.619777  4.304809  0.655862  1.093061  4.467711  2.551825  4.27
H  H4  1  0.14630672  0.25469870  0.23719534  1  0.040164  0.000643  0.095258  0.095979  0.000195  1.030672  0.0
H  H5  1  0.74532476  0.85371113  0.26274510  1  0.040854  0.000643  0.095207  0.095925  0.000195  1.030762  0.0
H  H6  1  0.85369855  0.74530171  0.76280305  1  0.040063  0.000643  0.095272  0.095982  0.000195  1.030683  0.0
H  H7  1  0.25468131  0.14628479  0.73725856  1  0.040692  0.000643  0.095204  0.095918  0.000196  1.030812  0.0
H  H8  1  0.26529175  0.13536910  0.33937567  1  0.067598  0.000765  0.0895  0.083943  0.000393  1.08423  0.0
H  H9  1  0.86462418  0.73469369  0.16058624  1  0.066901  0.000765  0.089423  0.083721  0.000392  1.084246  0.0
H  H10  1  0.73471397  0.86462946  0.66062104  1  0.067686  0.000765  0.089464  0.083938  0.000393  1.084109  0.0
H  H11  1  0.13538479  0.26529949  0.83941435  1  0.066898  0.000765  0.089408  0.083873  0.000392  1.084462  0.0
H  H12  1  0.59918970  0.34946298  0.99439886  1  0.062732  0.000344  0.103737  0.105221  -0.000136  1.002514  0.0
H  H13  1  0.65046189  0.40088700  0.50560566  1  0.063883  0.000344  0.103708  0.10527  -0.000136  1.002502  0.0
H  H14  1  0.40081369  0.65053289  0.00560444  1  0.062855  0.000344  0.103722  0.105216  -0.000136  1.00241  0.0
H  H15  1  0.34954535  0.59910249  0.49439493  1  0.063903  0.000344  0.103705  0.105291  -0.000136  1.002653  0.0
H  H16  1  0.48033372  0.46293174  0.88870336  1  0.143665  0.00029  0.10952  0.117084  -0.000145  0.99629  0.0
H  H17  1  0.53703265  0.51978368  0.61127449  1  0.14333  0.00029  0.109454  0.117147  -0.000146  0.996316  0.0
H  H18  1  0.51967648  0.53707062  0.11129816  1  0.143681  0.00029  0.109524  0.117142  -0.000145  0.996285  0.0
H  H19  1  0.46296900  0.48020850  0.38872882  1  0.14281  0.00029  0.109446  0.117137  -0.000146  0.996359  0.0
H  H20  1  0.20796670  0.75271859  0.99254132  1  0.194662  0.000601  0.145195  0.143754  -0.000353  0.977124  0.0
H  H21  1  0.24726128  0.79201962  0.50747794  1  0.194702  0.000602  0.145291  0.143883  -0.000352  0.977076  0.0
H  H22  1  0.79203839  0.24728907  0.00745188  1  0.194518  0.000602  0.145248  0.143747  -0.000353  0.977283  0.0
H  H23  1  0.75271658  0.20798134  0.49252785  1  0.194221  0.000604  0.145308  0.143784  -0.000352  0.977249  0.0
H  H24  1  0.15260231  0.91599888  0.05107630  1  0.080526  0.000763  0.116396  0.122482  7.5e-05  0.991131  0.0
H  H25  1  0.08398714  0.84740940  0.44892393  1  0.080193  0.000765  0.116376  0.122483  7.6e-05  0.991071  0.0
H  H26  1  0.84739166  0.08400236  0.94893019  1  0.080302  0.000763  0.116407  0.122569  7.5e-05  0.99115  0.0
H  H27  1  0.91600862  0.15261628  0.55106040  1  0.080547  0.000763  0.116383  0.122532  7.6e-05  0.991182  0.0
H  H28  1  0.89596147  0.95060470  0.90585114  1  0.082694  0.000751  0.114867  0.121621  0.000112  0.994376  0.0
H  H29  1  0.04941179  0.10402564  0.59414929  1  0.082726  0.000752  0.114874  0.121538  0.000113  0.99454  0.0
H  H30  1  0.10402024  0.04938918  0.09416724  1  0.082808  0.000751  0.114891  0.12153  0.000113  0.994468  0.0
H  H31  1  0.95059447  0.89599928  0.40583399  1  0.082929  0.000751  0.114903  0.121626  0.000113  0.99456  0.0
H  H32  1  0.96263981  0.78376512  0.85660512  1  0.167699  0.000645  0.136431  0.127877  -0.000202  1.01369  0.0
H  H33  1  0.21624644  0.03731919  0.64341212  1  0.167724  0.000647  0.136434  0.127948  -0.000202  1.01374  0.0
H  H34  1  0.03734695  0.21623154  0.14341001  1  0.167386  0.000646  0.136398  0.12785  -0.000202  1.013785  0.0
H  H35  1  0.78374793  0.96268830  0.35658184  1  0.167692  0.000647  0.136474  0.128064  -0.000202  1.013612  0.0
C  C36  1  0.23822564  0.44091243  0.99419613  1  1.593381  0.01886  0.22593  0.591548  0.018522  4.176344  0.017
C  C37  1  0.55911848  0.76183339  0.50579076  1  1.594044  0.018883  0.226176  0.591944  0.018548  4.176061  0.017
C  C38  1  0.76177396  0.55908617  0.00581135  1  1.593041  0.018864  0.225945  0.591498  0.018523  4.176604  0.017
C  C39  1  0.44087910  0.23815681  0.49420680  1  1.593631  0.018884  0.226153  0.592061  0.018547  4.176144  0.017
C  C40  1  0.30653003  0.36469200  0.05593449  1  -0.008122  0.008373  -0.018638  -0.036347  0.006229  3.971228  0.005
C  C41  1  0.63529847  0.69352996  0.44402597  1  -0.00824  0.008363  -0.018859  -0.036485  0.00622  3.971422  0.005
C  C42  1  0.69347903  0.63530941  0.94406491  1  -0.007989  0.008372  -0.018581  -0.036209  0.006229  3.971208  0.005
C  C43  1  0.36470490  0.30646218  0.55597213  1  -0.008743  0.008361  -0.018894  -0.036638  0.006219  3.97189  0.005
C  C44  1  0.24534106  0.27198404  0.18324850  1  -0.029188  0.002449  -0.095971  -0.110404  0.001842  3.997926  0.001
C  C45  1  0.72801207  0.75469916  0.31670297  1  -0.031084  0.002458  -0.095892  -0.110412  0.001849  3.997733  0.001
C  C46  1  0.75466624  0.72801735  0.81675239  1  -0.029236  0.00245  -0.096053  -0.110562  0.001843  3.998165  0.001
C  C47  1  0.27199454  0.24529200  0.68328668  1  -0.032055  0.002458  -0.095674  -0.11007  0.001847  3.997777  0.001
C  C48  1  0.31108760  0.20632187  0.24043481  1  0.033331  0.005536  -0.094506  -0.100655  0.004234  3.994435  0.003
C  C49  1  0.79365086  0.68893073  0.25953373  1  0.033871  0.005533  -0.094314  -0.10017  0.004233  3.994508  0.003
C  C50  1  0.68891933  0.79367402  0.75956552  1  0.033342  0.005535  -0.094431  -0.100594  0.004234  3.994384  0.003
C  C51  1  0.20635725  0.31105433  0.74047660  1  0.034983  0.005533  -0.094457  -0.100753  0.004233  3.994619  0.003
C  C52  1  0.43887613  0.23398914  0.17293019  1  -0.100024  0.004677  -0.015425  -0.029719  0.002888  3.959536  0.002
C  C53  1  0.76596616  0.56115858  0.32704063  1  -0.100334  0.004679  -0.015522  -0.030124  0.002894  3.960528  0.002
C  C54  1  0.56112869  0.76600940  0.82706615  1  -0.09979  0.004677  -0.015409  -0.029515  0.002888  3.959534  0.002
C  C55  1  0.23404207  0.43883545  0.67295542  1  -0.100351  0.004679  -0.015487  -0.029949  0.002893  3.960621  0.002
C  C56  1  0.49981714  0.32611470  0.04549043  1  0.009432  0.005576  -0.082868  -0.091782  0.004146  3.979902  0.003
C  C57  1  0.67384252  0.50024902  0.45448214  1  0.009807  0.00558  -0.082751  -0.091771  0.004149  3.980152  0.003
C  C58  1  0.50019302  0.67388763  0.95450813  1  0.009489  0.005575  -0.082798  -0.091841  0.004145  3.979852  0.003
C  C59  1  0.32615828  0.49974690  0.54552822  1  0.010683  0.005579  -0.082742  -0.091904  0.004149  3.980346  0.003
C  C60  1  0.43421885  0.38981420  0.98704771  1  -0.123733  0.002478  -0.082191  -0.092511  0.001779  3.972912  0.001
C  C61  1  0.61015503  0.56586221  0.51291719  1  -0.122181  0.002483  -0.081989  -0.09247  0.001783  3.972844  0.001
C  C62  1  0.56578709  0.61018901  0.01295373  1  -0.1241  0.00248  -0.082181  -0.092556  0.00178  3.972876  0.001
C  C63  1  0.38985120  0.43413086  0.48707859  1  -0.122075  0.002485  -0.082007  -0.09231  0.001785  3.972732  0.001
C  C64  1  0.50888058  0.17223812  0.23992893  1  1.584004  0.030935  0.22378  0.600619  0.030356  4.161438  0.026
C  C65  1  0.82770361  0.49114192  0.26005612  1  1.582927  0.030948  0.224152  0.601432  0.030356  4.161063  0.026
C  C66  1  0.49112546  0.82775776  0.76007177  1  1.584386  0.030922  0.223797  0.600712  0.030345  4.161464  0.026
C  C67  1  0.17230857  0.50885396  0.73993676  1  1.583432  0.030945  0.224195  0.601428  0.030357  4.161007  0.026
C  C68  1  0.13970497  0.80087660  0.97772952  1  0.369181  0.037636  0.056199  -0.00741  0.028584  3.840333  0.019
C  C69  1  0.19911652  0.86027831  0.52228545  1  0.369445  0.037641  0.056242  -0.007257  0.028588  3.840011  0.019
C  C70  1  0.86028291  0.19912914  0.02227838  1  0.369741  0.037623  0.056153  -0.007283  0.028572  3.840015  0.019
C  C71  1  0.80086700  0.13973630  0.47770781  1  0.369158  0.037617  0.056078  -0.007263  0.028569  3.840059  0.019
C  C72  1  0.10727332  0.89238422  0.00741094  1  -0.009316  0.019615  -0.075456  -0.153065  0.016005  3.969178  0.008
C  C73  1  0.10760650  0.89273001  0.49258747  1  -0.009386  0.019609  -0.075439  -0.153166  0.016  3.968862  0.008
C  C74  1  0.89271952  0.10761607  0.99259415  1  -0.009352  0.019619  -0.075431  -0.153235  0.016011  3.968875  0.008
C  C75  1  0.89238777  0.10729293  0.50739937  1  -0.009609  0.019625  -0.075428  -0.153229  0.016013  3.968875  0.008
C  C76  1  0.01843513  0.95238444  0.98331115  1  0.011074  0.069794  -0.002552  0.070166  0.054709  4.004366  0.04
C  C77  1  0.04761940  0.98157121  0.51668294  1  0.007741  0.069851  -0.002579  0.070087  0.054712  4.004608  0.04
C  C78  1  0.98155258  0.04760857  0.01670360  1  0.042691  0.06941  -0.002516  0.070145  0.054681  4.004311  0.04
C  C79  1  0.95238049  0.01844908  0.48330342  1  0.045799  0.069373  -0.002602  0.070144  0.054692  4.004595  0.04
C  C80  1  0.96653719  0.91218739  0.92643117  1  0.037209  0.01649  -0.078905  -0.160111  0.013556  3.986778  0.007
C  C81  1  0.08781220  0.03345647  0.57357000  1  0.037755  0.016518  -0.07887  -0.159735  0.013576  3.986173  0.007
C  C82  1  0.03345168  0.08780291  0.07358423  1  0.037633  0.016515  -0.078854  -0.159731  0.013572  3.986219  0.007
C  C83  1  0.91219217  0.96656390  0.42641671  1  0.038215  0.016524  -0.078832  -0.159663  0.013579  3.985962  0.007
C  C84  1  0.00152696  0.82119090  0.89659622  1  0.340008  0.037333  0.046434  -0.03218  0.02852  3.880913  0.019
C  C85  1  0.17882237  0.99844508  0.60341505  1  0.339372  0.037357  0.0464  -0.032588  0.028529  3.881104  0.019
C  C86  1  0.99845820  0.17881034  0.10342068  1  0.339569  0.037332  0.046396  -0.032441  0.028511  3.880896  0.019
C  C87  1  0.82116840  0.00156603  0.39658116  1  0.339308  0.037341  0.046248  -0.032953  0.02853  3.881012  0.019
N  N88  1  0.08806120  0.76722421  0.92129037  1  -0.665226  0.061464  -0.110248  0.325652  0.046567  3.86643  0.052
N  N89  1  0.23276895  0.91192378  0.57871745  1  -0.665424  0.061483  -0.110368  0.325505  0.046583  3.867046  0.052
N  N90  1  0.91193500  0.23277522  0.07871443  1  -0.665278  0.061453  -0.110291  0.325681  0.046558  3.866503  0.052
N  N91  1  0.76721892  0.08808637  0.42127885  1  -0.664699  0.061472  -0.110205  0.325629  0.046573  3.867037  0.052
O  O92  1  0.30059440  0.52106173  0.87792638  1  -1.205801  0.068649  -0.304146  -0.555642  0.050439  2.363713  0.036
O  O93  1  0.47901606  0.69949432  0.62207708  1  -1.206337  0.068627  -0.304293  -0.555813  0.050427  2.363882  0.036
O  O94  1  0.69939776  0.47893947  0.12207937  1  -1.205818  0.06864  -0.304208  -0.555657  0.050433  2.363741  0.036
O  O95  1  0.52097505  0.30049487  0.37792133  1  -1.206472  0.06863  -0.304279  -0.555744  0.050426  2.363873  0.036
O  O96  1  0.12282390  0.42044987  0.06245477  1  -1.205844  0.059179  -0.310273  -0.568984  0.041865  2.317442  0.027
O  O97  1  0.57958543  0.87723328  0.43753856  1  -1.206049  0.059173  -0.310268  -0.569083  0.041844  2.317369  0.027
O  O98  1  0.87718027  0.57952964  0.93755575  1  -1.20563  0.059179  -0.310269  -0.568975  0.04186  2.317427  0.027
O  O99  1  0.42042368  0.12275703  0.56245267  1  -1.205642  0.059156  -0.310271  -0.569215  0.041847  2.317479  0.027
O  O100  1  0.62350556  0.22052944  0.18264702  1  -1.201333  0.059103  -0.324265  -0.600761  0.040906  2.371647  0.022
O  O101  1  0.77940261  0.37652903  0.31735678  1  -1.201458  0.059111  -0.324535  -0.601334  0.040908  2.371401  0.022
O  O102  1  0.37649863  0.77946635  0.81734997  1  -1.20128  0.059107  -0.324368  -0.600979  0.040908  2.371602  0.022
O  O103  1  0.22060327  0.62347040  0.68263649  1  -1.201405  0.05912  -0.324578  -0.601338  0.04091  2.371322  0.022
O  O104  1  0.45180194  0.07947106  0.34949514  1  -1.19771  0.072851  -0.304969  -0.561917  0.053438  2.307259  0.04
O  O105  1  0.92048348  0.54820037  0.15047728  1  -1.197424  0.072824  -0.305069  -0.561949  0.053404  2.30695  0.04
O  O106  1  0.54820055  0.92052108  0.65050408  1  -1.198274  0.072829  -0.304989  -0.561993  0.053428  2.30715  0.04
O  O107  1  0.07953441  0.45180477  0.84951690  1  -1.197647  0.07281  -0.305083  -0.561961  0.053404  2.307126  0.04
O  O108  1  0.12134241  0.67963124  0.89078038  1  -0.696388  0.067547  -0.207115  -0.4937  0.052379  2.270069  0.013
O  O109  1  0.32038087  0.87863153  0.60921512  1  -0.696249  0.067539  -0.207118  -0.493647  0.052393  2.269935  0.013
O  O110  1  0.87865746  0.32037275  0.10921950  1  -0.696438  0.067547  -0.207148  -0.493802  0.05239  2.269991  0.013
O  O111  1  0.67960611  0.12136676  0.39078499  1  -0.696401  0.06754  -0.207209  -0.493683  0.052389  2.269993  0.013
