# generated using pymatgen
data_CoP2H12C13O7
_symmetry_space_group_name_H-M   'P 1'
_cell_length_a   5.89275095
_cell_length_b   7.67337562
_cell_length_c   14.69555579
_cell_angle_alpha   89.99877078
_cell_angle_beta   90.00993592
_cell_angle_gamma   89.99365201
_symmetry_Int_Tables_number   1
_chemical_formula_structural   CoP2H12C13O7
_chemical_formula_sum   'Co2 P4 H24 C26 O14'
_cell_volume   664.49321571
_cell_formula_units_Z   2
loop_
 _symmetry_equiv_pos_site_id
 _symmetry_equiv_pos_as_xyz
  1  'x, y, z'
loop_
 _atom_site_type_symbol
 _atom_site_label
 _atom_site_symmetry_multiplicity
 _atom_site_fract_x
 _atom_site_fract_y
 _atom_site_fract_z
 _atom_site_occupancy
 _atom_site_hle17_ddec_charge
 _atom_site_hle17_ddec_spin_density
 _atom_site_hle17_ddec_sum_bond_order
 _atom_site_hle17_magmom
 _atom_site_hse06_10hf_ddec_charge
 _atom_site_hse06_10hf_ddec_spin_density
 _atom_site_hse06_10hf_ddec_sum_bond_order
 _atom_site_hse06_10hf_magmom
 _atom_site_hse06_ddec_charge
 _atom_site_hse06_ddec_spin_density
 _atom_site_hse06_ddec_sum_bond_order
 _atom_site_hse06_magmom
 _atom_site_pbe_cm5_charge
 _atom_site_pbe_ddec_charge
 _atom_site_pbe_ddec_spin_density
 _atom_site_pbe_ddec_sum_bond_order
 _atom_site_pbe_magmom
Co  Co0  1  0.02385564  0.41618005  0.99999393  1  1.246764  2.838684  1.718954  2.632  1.22541  2.853123  2.099195  2.697  1.295378  2.887733  2.030596  2.759  0.667859  1.165724  2.817749  2.151641  2.635
Co  Co1  1  0.97615201  0.91616990  0.00000579  1  1.246831  2.838544  1.718642  2.632  1.225481  2.853109  2.098919  2.697  1.295476  2.887728  2.030305  2.759  0.667878  1.165763  2.817706  2.151374  2.635
P  P2  1  0.69673771  0.64754335  0.85589802  1  1.509492  0.003169  4.72738  0.005  1.355552  0.005997  5.22138  0.007  1.409295  0.004259  5.181193  0.006  0.388473  1.316621  0.007869  5.24891  0.008
P  P3  1  0.30320680  0.14756456  0.14410527  1  1.509303  0.003175  4.727991  0.005  1.355378  0.006002  5.222024  0.007  1.409063  0.004259  5.181838  0.006  0.388297  1.316443  0.007874  5.249572  0.008
P  P4  1  0.30295707  0.14760612  0.85591299  1  1.508694  0.003178  4.727828  0.005  1.354639  0.006005  5.222094  0.007  1.408445  0.004265  5.181869  0.006  0.387988  1.315693  0.007888  5.249623  0.008
P  P5  1  0.69695011  0.64756825  0.14408894  1  1.508674  0.003176  4.72811  0.005  1.35472  0.006  5.222216  0.007  1.408448  0.004261  5.18203  0.006  0.388027  1.315794  0.00788  5.249736  0.008
H  H6  1  0.37646208  0.48308151  0.87214507  1  0.442242  -0.000367  0.863721  0.0  0.406633  -0.000179  0.933877  0.0  0.419284  -0.000206  0.915835  0.0  0.310975  0.397713  -0.000147  0.946592  0.0
H  H7  1  0.62344595  0.98301923  0.12780477  1  0.442244  -0.000367  0.86369  0.0  0.406656  -0.00018  0.933826  0.0  0.419271  -0.000206  0.915836  0.0  0.310984  0.397731  -0.000148  0.946551  0.0
H  H8  1  0.62319938  0.98302766  0.87224616  1  0.441746  -0.000367  0.864353  0.0  0.406069  -0.00018  0.9346  0.0  0.418738  -0.000206  0.91654  0.0  0.310687  0.397154  -0.000148  0.947304  0.0
H  H9  1  0.37669680  0.48303528  0.12779282  1  0.441799  -0.000367  0.864258  0.0  0.406185  -0.00018  0.934431  0.0  0.418816  -0.000206  0.916429  0.0  0.31078  0.397271  -0.000147  0.947132  0.0
H  H10  1  0.73013824  0.18545677  0.94577316  1  0.441957  -0.001008  0.848508  -0.002  0.413301  -0.000212  0.914033  0.0  0.424899  -0.000338  0.897261  0.0  0.310838  0.404864  -8.2e-05  0.926229  0.0
H  H11  1  0.26982353  0.68536489  0.05423030  1  0.442182  -0.001006  0.848226  -0.002  0.413463  -0.000213  0.913874  0.0  0.425034  -0.000337  0.897139  0.0  0.310815  0.405027  -8.2e-05  0.926071  0.0
H  H12  1  0.26971171  0.68538258  0.94569778  1  0.441923  -0.001007  0.848587  -0.002  0.413286  -0.000213  0.914108  0.0  0.424869  -0.000337  0.897358  0.0  0.310798  0.404844  -8.2e-05  0.926312  0.0
H  H13  1  0.73025515  0.18545471  0.05429480  1  0.441835  -0.001009  0.848649  -0.002  0.41332  -0.000213  0.914013  0.0  0.424863  -0.000338  0.897318  0.0  0.310856  0.404876  -8.2e-05  0.926221  0.0
H  H14  1  0.43505166  0.54527623  0.69532369  1  0.105417  -5.1e-05  0.954809  0.0  0.114852  1.7e-05  1.018072  0.0  0.117307  1.1e-05  1.018128  0.0  0.104431  0.11306  2.4e-05  1.018213  0.0
H  H15  1  0.56494636  0.04518772  0.30465442  1  0.10543  -4.9e-05  0.954599  0.0  0.114822  1.7e-05  1.017904  0.0  0.117273  1.1e-05  1.017969  0.0  0.104353  0.113025  2.4e-05  1.018044  0.0
H  H16  1  0.56479395  0.04523724  0.69545421  1  0.105567  -4.6e-05  0.954711  0.0  0.115033  1.7e-05  1.017932  0.0  0.117496  1.1e-05  1.017967  0.0  0.104544  0.113239  2.4e-05  1.018072  0.0
H  H17  1  0.43515997  0.54527232  0.30459127  1  0.105506  -4.9e-05  0.954704  0.0  0.114986  1.7e-05  1.01789  0.0  0.117442  1.1e-05  1.017942  0.0  0.104504  0.113192  2.4e-05  1.018028  0.0
H  H18  1  0.15428815  0.83054721  0.59182352  1  0.088676  -5e-06  0.985047  0.0  0.098963  -3e-06  1.048609  0.0  0.100957  -5e-06  1.049338  0.0  0.09716  0.097409  1e-06  1.048354  0.0
H  H19  1  0.84584953  0.33066553  0.40820525  1  0.088501  -4e-06  0.985515  0.0  0.098873  -3e-06  1.048861  0.0  0.100865  -5e-06  1.049649  0.0  0.097125  0.097314  1e-06  1.048608  0.0
H  H20  1  0.84579005  0.33072632  0.59168725  1  0.088503  -3e-06  0.985402  0.0  0.098773  -3e-06  1.048869  0.0  0.10075  -5e-06  1.049662  0.0  0.097127  0.097274  1e-06  1.048549  0.0
H  H21  1  0.15430347  0.83058937  0.40825713  1  0.088498  -8e-06  0.985561  0.0  0.098907  -3e-06  1.048898  0.0  0.100858  -6e-06  1.049719  0.0  0.097221  0.097362  1e-06  1.048631  0.0
H  H22  1  0.07204036  0.80003184  0.75605604  1  0.107144  -0.000117  0.950991  0.0  0.115743  -7.7e-05  1.014806  0.0  0.118834  -9.6e-05  1.013321  0.0  0.105263  0.113508  -5e-05  1.015918  0.0
H  H23  1  0.92798169  0.30012173  0.24396428  1  0.107149  -0.000116  0.950927  0.0  0.115778  -7.7e-05  1.014727  0.0  0.118862  -9.5e-05  1.01324  0.0  0.105254  0.113551  -5e-05  1.015844  0.0
H  H24  1  0.92780002  0.30018487  0.75595172  1  0.106993  -0.000121  0.951554  0.0  0.115664  -7.6e-05  1.015246  0.0  0.11876  -9.6e-05  1.013716  0.0  0.105156  0.113421  -4.9e-05  1.016395  0.0
H  H25  1  0.07215073  0.80007166  0.24400871  1  0.107115  -0.000116  0.951064  0.0  0.115797  -7.7e-05  1.014834  0.0  0.118895  -9.5e-05  1.013288  0.0  0.105226  0.113549  -4.9e-05  1.015981  0.0
H  H26  1  0.32653197  0.60747021  0.49994429  1  0.100063  -8.2e-05  0.945457  0.0  0.119984  -3.8e-05  1.008624  0.0  0.12051  -3.6e-05  1.009191  0.0  0.102375  0.119653  -3.6e-05  1.00808  0.0
H  H27  1  0.67353611  0.10749826  0.50007110  1  0.099996  -8.2e-05  0.945335  0.0  0.119824  -3.8e-05  1.00867  0.0  0.120384  -3.6e-05  1.00921  0.0  0.102272  0.119481  -3.6e-05  1.00813  0.0
H  H28  1  0.48666019  0.41668881  0.49995497  1  0.096498  -8.6e-05  0.967969  0.0  0.117157  -4.2e-05  1.029984  0.0  0.116893  -4.2e-05  1.03201  0.0  0.101968  0.117186  -3.7e-05  1.028746  0.0
H  H29  1  0.51354263  0.91670238  0.50006924  1  0.096533  -8.9e-05  0.968084  0.0  0.11717  -4.2e-05  1.030124  0.0  0.116915  -4.2e-05  1.03215  0.0  0.10206  0.117199  -3.7e-05  1.028879  0.0
C  C30  1  0.75029246  0.66973560  0.73578510  1  -0.25499  0.002566  3.784439  0.004  -0.21473  0.001587  4.030441  0.002  -0.224877  0.000898  4.052125  0.002  -0.027451  -0.207819  0.002391  4.016173  0.003
C  C31  1  0.24967768  0.16972697  0.26421789  1  -0.254882  0.002579  3.784265  0.004  -0.21451  0.001589  4.030108  0.002  -0.224634  0.0009  4.051758  0.002  -0.02729  -0.207594  0.002394  4.015826  0.003
C  C32  1  0.24951085  0.16981163  0.73579312  1  -0.254059  0.00257  3.783825  0.004  -0.213956  0.001591  4.030042  0.002  -0.224077  0.000902  4.051684  0.002  -0.027152  -0.207052  0.002396  4.01578  0.003
C  C33  1  0.75042704  0.66976823  0.26420103  1  -0.254697  0.002565  3.784368  0.004  -0.214512  0.001586  4.030494  0.002  -0.224667  0.000895  4.052192  0.002  -0.027391  -0.207595  0.002391  4.016205  0.003
C  C34  1  0.59257742  0.60536547  0.67233250  1  -0.088683  0.001061  3.739562  0.001  -0.118999  0.000844  3.983693  0.001  -0.119245  0.000637  4.004538  0.001  -0.083106  -0.118904  0.001151  3.969841  0.001
C  C35  1  0.40743803  0.10531805  0.32765843  1  -0.088663  0.001053  3.739106  0.001  -0.118963  0.000845  3.983189  0.001  -0.11921  0.000638  4.004011  0.001  -0.083132  -0.118865  0.001152  3.969319  0.001
C  C36  1  0.40731401  0.10538658  0.67239870  1  -0.089245  0.001062  3.740191  0.001  -0.119524  0.000848  3.984391  0.001  -0.119756  0.00064  4.005198  0.001  -0.083305  -0.119426  0.001156  3.970529  0.001
C  C37  1  0.59268448  0.60536992  0.32761604  1  -0.088787  0.001064  3.73983  0.001  -0.1191  0.000848  3.983948  0.001  -0.119332  0.000641  4.004774  0.001  -0.083148  -0.119015  0.001155  3.970094  0.001
C  C38  1  0.63985157  0.62115646  0.58013202  1  0.051129  -0.000568  3.736468  0.0  0.071582  -0.00024  3.975183  0.0  0.070663  -0.000366  3.996793  0.0  -0.011044  0.072225  -7.9e-05  3.960584  0.0
C  C39  1  0.36024547  0.12114157  0.41986482  1  0.050989  -0.000557  3.735975  0.0  0.071474  -0.000239  3.974692  0.0  0.070562  -0.000368  3.996304  0.0  -0.010933  0.072121  -7.9e-05  3.960073  0.0
C  C40  1  0.36019251  0.12117538  0.58018744  1  0.051445  -0.000579  3.736417  0.0  0.071881  -0.000242  3.975227  0.0  0.070953  -0.000374  3.996881  0.0  -0.010979  0.072528  -8.2e-05  3.960605  0.0
C  C41  1  0.63989095  0.62117738  0.41982301  1  0.051153  -0.00058  3.736614  0.0  0.071612  -0.000243  3.975327  0.0  0.070693  -0.000371  3.996945  0.0  -0.01114  0.07226  -8.3e-05  3.9607  0.0
C  C42  1  0.84239663  0.70188730  0.54994148  1  0.004736  0.00136  3.778103  0.002  0.01179  0.000818  4.011648  0.001  0.012315  0.000575  4.033193  0.001  -0.010698  0.011568  0.001168  3.996728  0.001
C  C43  1  0.15769933  0.20190418  0.45006450  1  0.004524  0.001355  3.778779  0.002  0.011647  0.000819  4.012201  0.001  0.012154  0.000576  4.033789  0.001  -0.010846  0.011425  0.00117  3.997269  0.001
C  C44  1  0.15768564  0.20193640  0.54992258  1  0.004163  0.00137  3.778553  0.002  0.011231  0.000822  4.012054  0.001  0.011731  0.000579  4.033649  0.001  -0.010859  0.011013  0.001173  3.997138  0.001
C  C45  1  0.84240013  0.70190331  0.45006775  1  0.004454  0.001364  3.77814  0.002  0.011518  0.000821  4.01167  0.001  0.012032  0.000577  4.03322  0.001  -0.010744  0.011295  0.001173  3.996743  0.001
C  C46  1  0.99882871  0.76588613  0.61332941  1  -0.103551  -0.00062  3.72903  0.0  -0.12241  -0.000119  3.983652  0.0  -0.125324  -0.000288  4.004733  0.0  -0.089986  -0.120244  7.6e-05  3.969315  0.0
C  C47  1  0.00127113  0.26597806  0.38668728  1  -0.103362  -0.000613  3.729617  0.0  -0.122256  -0.000119  3.984216  0.0  -0.1252  -0.000289  4.005273  0.0  -0.090049  -0.120089  7.6e-05  3.969872  0.0
C  C48  1  0.00118576  0.26603684  0.61324284  1  -0.102715  -0.000647  3.729158  0.0  -0.121453  -0.000123  3.983701  0.0  -0.124373  -0.000295  4.004748  0.0  -0.089591  -0.119331  7.3e-05  3.969343  0.0
C  C49  1  0.99887674  0.76593813  0.38672281  1  -0.103069  -0.000615  3.728955  0.0  -0.121956  -0.000123  3.983474  0.0  -0.124858  -0.000289  4.004545  0.0  -0.089922  -0.119802  7.3e-05  3.969132  0.0
C  C50  1  0.95246091  0.74906553  0.70601102  1  -0.029708  0.001298  3.724603  0.002  -0.0568  0.000894  3.976765  0.001  -0.056406  0.00065  3.997498  0.001  -0.078633  -0.057061  0.001237  3.962792  0.001
C  C51  1  0.04757263  0.24915898  0.29400862  1  -0.029687  0.001294  3.72428  0.002  -0.056845  0.000895  3.976476  0.001  -0.056447  0.000651  3.997186  0.001  -0.078633  -0.057121  0.001238  3.962524  0.001
C  C52  1  0.04741478  0.24921597  0.70594336  1  -0.030525  0.001312  3.72524  0.002  -0.057619  0.000898  3.97749  0.001  -0.057209  0.000653  3.998197  0.001  -0.07913  -0.057892  0.001242  3.96356  0.001
C  C53  1  0.95256783  0.74910107  0.29402796  1  -0.030237  0.001302  3.72433  0.002  -0.0574  0.000897  3.976598  0.001  -0.056976  0.000652  3.99729  0.001  -0.078861  -0.057671  0.001241  3.962644  0.001
C  C54  1  0.50259049  0.55966491  0.49996388  1  -0.209981  5e-05  3.747345  0.0  -0.267833  1.3e-05  3.993356  0.0  -0.267706  -3e-06  4.004839  0.0  -0.156822  -0.267612  3.5e-05  3.98524  0.0
C  C55  1  0.49749929  0.05965595  0.50004739  1  -0.209813  5.3e-05  3.74697  0.0  -0.267704  1.3e-05  3.993286  0.0  -0.267615  -3e-06  4.004747  0.0  -0.156863  -0.267466  3.5e-05  3.985176  0.0
O  O56  1  0.43068179  0.61172959  0.86119984  1  -0.761564  0.001957  2.069578  0.004  -0.678528  0.00184  2.289234  0.004  -0.702579  0.001111  2.263403  0.002  -0.37407  -0.661478  0.002702  2.307482  0.005
O  O57  1  0.56924038  0.11167324  0.13877399  1  -0.761494  0.001957  2.069284  0.004  -0.678655  0.00184  2.289057  0.004  -0.702549  0.001111  2.263147  0.002  -0.374173  -0.661593  0.002702  2.307296  0.005
O  O58  1  0.56898374  0.11171592  0.86131896  1  -0.761123  0.001953  2.070074  0.004  -0.67792  0.001836  2.289699  0.004  -0.702127  0.001107  2.263976  0.002  -0.373671  -0.660846  0.002698  2.307916  0.005
O  O59  1  0.43092996  0.61171819  0.13870386  1  -0.760943  0.001954  2.069847  0.004  -0.677964  0.001837  2.2896  0.004  -0.701959  0.001108  2.263753  0.002  -0.373781  -0.660925  0.002698  2.307845  0.005
O  O60  1  0.82812719  0.49516543  0.89427047  1  -0.84782  0.031153  2.029914  0.054  -0.795696  0.02461  2.324071  0.037  -0.831643  0.018695  2.303337  0.028  -0.36728  -0.766871  0.030564  2.336809  0.046
O  O61  1  0.17172495  0.99522319  0.10573772  1  -0.847865  0.03118  2.029838  0.054  -0.79566  0.02463  2.323879  0.037  -0.831652  0.018711  2.303214  0.028  -0.367123  -0.766819  0.030588  2.336617  0.046
O  O62  1  0.17144089  0.99526087  0.89423665  1  -0.84762  0.031172  2.029963  0.054  -0.795321  0.024625  2.324033  0.037  -0.831281  0.018708  2.303288  0.028  -0.367175  -0.766521  0.030583  2.336835  0.046
O  O63  1  0.82840955  0.49516555  0.10577358  1  -0.847433  0.031155  2.029802  0.054  -0.795215  0.024608  2.323837  0.037  -0.831177  0.018696  2.303134  0.028  -0.367061  -0.766402  0.030562  2.336594  0.046
O  O64  1  0.73949977  0.82475681  0.90164488  1  -0.850693  0.02136  2.079828  0.038  -0.783876  0.0189  2.355121  0.028  -0.816503  0.014916  2.331472  0.022  -0.358076  -0.758693  0.022872  2.370883  0.034
O  O65  1  0.26046137  0.32478572  0.09836354  1  -0.850751  0.021373  2.08019  0.038  -0.78397  0.018909  2.35546  0.028  -0.816611  0.014924  2.331878  0.022  -0.358119  -0.758809  0.022884  2.371249  0.034
O  O66  1  0.26019709  0.32484791  0.90163428  1  -0.850648  0.021425  2.080042  0.038  -0.783974  0.018945  2.355521  0.028  -0.816609  0.014953  2.331861  0.022  -0.357983  -0.758776  0.022928  2.371287  0.034
O  O67  1  0.73975047  0.82479106  0.09835032  1  -0.850746  0.021402  2.080187  0.038  -0.783968  0.018927  2.35548  0.028  -0.816601  0.014937  2.331846  0.022  -0.358028  -0.758779  0.022907  2.371254  0.034
O  O68  1  0.83292238  0.18019602  0.00001726  1  -0.860053  0.039035  2.079204  0.084  -0.828809  0.037527  2.322349  0.064  -0.858266  0.031394  2.279734  0.053  -0.548607  -0.806042  0.042813  2.353373  0.072
O  O69  1  0.16704783  0.68008659  0.99997879  1  -0.860461  0.039025  2.078928  0.084  -0.829028  0.037529  2.322137  0.064  -0.858511  0.031396  2.279495  0.053  -0.548438  -0.806261  0.042815  2.353155  0.072
