# generated using pymatgen
data_NaH7C4SN2O5
_symmetry_space_group_name_H-M   'P 1'
_cell_length_a   6.73821020
_cell_length_b   9.37153977
_cell_length_c   13.72891178
_cell_angle_alpha   89.99997589
_cell_angle_beta   89.99945340
_cell_angle_gamma   89.99995166
_symmetry_Int_Tables_number   1
_chemical_formula_structural   NaH7C4SN2O5
_chemical_formula_sum   'Na4 H28 C16 S4 N8 O20'
_cell_volume   866.94515076
_cell_formula_units_Z   4
loop_
 _symmetry_equiv_pos_site_id
 _symmetry_equiv_pos_as_xyz
  1  'x, y, z'
loop_
 _atom_site_type_symbol
 _atom_site_label
 _atom_site_symmetry_multiplicity
 _atom_site_fract_x
 _atom_site_fract_y
 _atom_site_fract_z
 _atom_site_occupancy
 _atom_site_pbe_bader_spin_density
 _atom_site_pbe_cm5_charge
 _atom_site_pbe_ddec_charge
 _atom_site_pbe_ddec_spin_density
 _atom_site_pbe_ddec_sum_bond_order
 _atom_site_pbe_magmom
Na  Na0  1  0.50000403  0.25000134  0.57313960  1  0  0.710021  0.877422  0  0.542575  0
Na  Na1  1  0.99999847  0.75000367  0.42686253  1  0  0.710024  0.877438  0  0.542561  0
Na  Na2  1  0.49999771  0.74999925  0.42686279  1  0  0.710038  0.877451  0  0.542557  0
Na  Na3  1  0.00000033  0.24999936  0.57313715  1  0  0.710018  0.877442  0  0.542544  0
H  H4  1  0.25000151  0.13526464  0.72821878  1  0  0.31777  0.405045  0  0.891552  0
H  H5  1  0.75000656  0.36473478  0.72822046  1  0  0.317765  0.405037  0  0.891543  0
H  H6  1  0.24999815  0.63527008  0.27178047  1  0  0.317815  0.405122  0  0.891494  0
H  H7  1  0.74999281  0.86473275  0.27177777  1  0  0.31779  0.405067  0  0.891511  0
H  H8  1  0.24999979  0.30336615  0.74262048  1  0  0.286307  0.350836  0  1.010083  0
H  H9  1  0.75000058  0.19663326  0.74261930  1  0  0.286307  0.350815  0  1.010124  0
H  H10  1  0.25000413  0.80337159  0.25737871  1  0  0.286352  0.35092  0  1.009959  0
H  H11  1  0.75000195  0.69663124  0.25738045  1  0  0.286336  0.350936  0  1.009939  0
H  H12  1  0.24999376  0.27802888  0.28712699  1  0  0.335625  0.326713  0  0.893731  0
H  H13  1  0.74999155  0.22197604  0.28712362  1  0  0.335543  0.326595  0  0.893774  0
H  H14  1  0.25000574  0.77802348  0.71287731  1  0  0.335533  0.326609  0  0.893768  0
H  H15  1  0.75000798  0.72197490  0.71287540  1  0  0.335555  0.326609  0  0.893714  0
H  H16  1  0.24999861  0.29783357  0.08862982  1  0  0.110433  0.159476  0  1.037144  0
H  H17  1  0.74999494  0.20216610  0.08862865  1  0  0.110455  0.159522  0  1.037097  0
H  H18  1  0.25000384  0.79782275  0.91137738  1  0  0.110411  0.159477  0  1.037047  0
H  H19  1  0.75000759  0.70216595  0.91136965  1  0  0.110432  0.159472  0  1.037102  0
H  H20  1  0.11729414  0.03345961  0.89243971  1  0  0.098767  0.141785  0  1.030197  0
H  H21  1  0.88269744  0.46654402  0.89243270  1  0  0.098754  0.141811  0  1.030178  0
H  H22  1  0.38269970  0.53344902  0.10756687  1  0  0.098777  0.141776  0  1.030279  0
H  H23  1  0.61730181  0.96654106  0.10756331  1  0  0.098734  0.141731  0  1.030214  0
H  H24  1  0.88270018  0.96654418  0.10756267  1  0  0.098761  0.141811  0  1.030166  0
H  H25  1  0.11730282  0.53345123  0.10756677  1  0  0.098751  0.14176  0  1.030285  0
H  H26  1  0.61730204  0.46654410  0.89243261  1  0  0.098744  0.141791  0  1.030214  0
H  H27  1  0.38269399  0.03346272  0.89243471  1  0  0.098747  0.14176  0  1.030244  0
H  H28  1  0.24999242  0.19695351  0.89954116  1  0  0.109095  0.164298  0  1.007057  0
H  H29  1  0.74999754  0.30305011  0.89954141  1  0  0.109124  0.164335  0  1.007034  0
H  H30  1  0.25000272  0.69693980  0.10046608  1  0  0.109055  0.164405  0  1.006917  0
H  H31  1  0.75000190  0.80304815  0.10045612  1  0  0.109102  0.164289  0  1.007063  0
C  C32  1  0.25000219  0.10870774  0.19078289  1  0  0.207375  0.373571  0  4.17639  0
C  C33  1  0.74999979  0.39129615  0.19078019  1  0  0.207368  0.373629  0  4.176535  0
C  C34  1  0.25000047  0.60869696  0.80921856  1  0  0.20737  0.37379  0  4.176611  0
C  C35  1  0.74999806  0.89129711  0.80921804  1  0  0.207348  0.373542  0  4.176648  0
C  C36  1  0.24999411  0.18379361  0.09999928  1  0  -0.130423  -0.404234  0  3.96115  0
C  C37  1  0.74999625  0.31620392  0.09999661  1  0  -0.130404  -0.404261  0  3.9609  0
C  C38  1  0.25000253  0.68378493  0.90000360  1  0  -0.13032  -0.404356  0  3.961048  0
C  C39  1  0.75000021  0.81620591  0.89999946  1  0  -0.130386  -0.404176  0  3.961079  0
C  C40  1  0.24999929  0.08043921  0.03036815  1  0  0.086715  0.317086  0  4.000605  0
C  C41  1  0.74999982  0.41956582  0.03036470  1  0  0.086724  0.31714  0  4.000454  0
C  C42  1  0.25000192  0.58042516  0.96963550  1  0  0.086715  0.317317  0  4.000238  0
C  C43  1  0.75000097  0.91956351  0.96963060  1  0  0.086686  0.317038  0  4.000606  0
C  C44  1  0.24999523  0.08530376  0.92262750  1  0  -0.239112  -0.461556  0  3.934778  0
C  C45  1  0.74999874  0.41470092  0.92262479  1  0  -0.239166  -0.461724  0  3.934775  0
C  C46  1  0.25000152  0.58529113  0.07737614  1  0  -0.239114  -0.461774  0  3.934751  0
C  C47  1  0.75000354  0.91469896  0.07737270  1  0  -0.239106  -0.461562  0  3.934695  0
S  S48  1  0.25000329  0.07852056  0.38876509  1  0  0.613555  1.372353  0  6.281764  0
S  S49  1  0.75000382  0.42148753  0.38876383  1  0  0.61359  1.372217  0  6.282096  0
S  S50  1  0.24999198  0.57852266  0.61123492  1  0  0.613644  1.372537  0  6.281626  0
S  S51  1  0.74999696  0.92148109  0.61123074  1  0  0.613739  1.372555  0  6.281485  0
N  N52  1  0.25000925  0.96740762  0.17691710  1  0  -0.238139  -0.289295  0  2.977222  0
N  N53  1  0.75000429  0.53259204  0.17691307  1  0  -0.238126  -0.289403  0  2.977553  0
N  N54  1  0.25000042  0.46740107  0.82308421  1  0  -0.238238  -0.289542  0  2.977691  0
N  N55  1  0.74999694  0.03259084  0.82308529  1  0  -0.238119  -0.289338  0  2.977483  0
N  N56  1  0.25000575  0.17021416  0.28067274  1  0  -0.430792  -0.532258  0  3.430295  0
N  N57  1  0.75000639  0.32978970  0.28067079  1  0  -0.430739  -0.532119  0  3.430368  0
N  N58  1  0.24999535  0.67020662  0.71933159  1  0  -0.430717  -0.532208  0  3.430276  0
N  N59  1  0.74999747  0.82979176  0.71932600  1  0  -0.430794  -0.532153  0  3.430167  0
O  O60  1  0.25000431  0.94951410  0.07353454  1  0  -0.064995  -0.096589  0  2.536478  0
O  O61  1  0.75000527  0.55048987  0.07353197  1  0  -0.064977  -0.096529  0  2.536695  0
O  O62  1  0.25000092  0.44950005  0.92646750  1  0  -0.06493  -0.096524  0  2.536499  0
O  O63  1  0.75000188  0.05048862  0.92646639  1  0  -0.064981  -0.09653  0  2.536658  0
O  O64  1  0.25000553  0.19715313  0.45792058  1  0  -0.438019  -0.703452  0  2.211554  0
O  O65  1  0.75000323  0.30285493  0.45791791  1  0  -0.437968  -0.70336  0  2.211744  0
O  O66  1  0.24999109  0.69714993  0.54208520  1  0  -0.43798  -0.703434  0  2.211837  0
O  O67  1  0.74999472  0.80285279  0.54207962  1  0  -0.438037  -0.703516  0  2.211924  0
O  O68  1  0.06791437  0.99507758  0.38711263  1  0  -0.371946  -0.647886  0  2.170312  0
O  O69  1  0.93209220  0.50493267  0.38710847  1  0  -0.372  -0.647919  0  2.170336  0
O  O70  1  0.43208636  0.49507207  0.61289159  1  0  -0.371988  -0.647986  0  2.170164  0
O  O71  1  0.56790313  0.00492739  0.61288917  1  0  -0.371985  -0.647971  0  2.169989  0
O  O72  1  0.93209034  0.00492941  0.61288539  1  0  -0.372027  -0.647969  0  2.170065  0
O  O73  1  0.06789766  0.49507432  0.61289391  1  0  -0.372008  -0.647992  0  2.170024  0
O  O74  1  0.56791093  0.50493171  0.38710862  1  0  -0.371971  -0.647878  0  2.1703  0
O  O75  1  0.43209565  0.99507746  0.38710957  1  0  -0.371946  -0.647891  0  2.170171  0
O  O76  1  0.25000179  0.22549421  0.69377831  1  0  -0.689044  -0.847161  0  2.067599  0
O  O77  1  0.74999803  0.27450842  0.69377856  1  0  -0.689034  -0.847151  0  2.06766  0
O  O78  1  0.25000668  0.72549857  0.30622018  1  0  -0.689142  -0.847351  0  2.067629  0
O  O79  1  0.74999995  0.77450530  0.30622043  1  0  -0.689092  -0.847285  0  2.067592  0
