# generated using pymatgen
data_NiH14C16(N2O3)2
_symmetry_space_group_name_H-M   'P 1'
_cell_length_a   8.64374887
_cell_length_b   8.87479356
_cell_length_c   12.97016814
_cell_angle_alpha   77.89635465
_cell_angle_beta   70.53497841
_cell_angle_gamma   60.84730799
_symmetry_Int_Tables_number   1
_chemical_formula_structural   NiH14C16(N2O3)2
_chemical_formula_sum   'Ni2 H28 C32 N8 O12'
_cell_volume   817.90481972
_cell_formula_units_Z   2
loop_
 _symmetry_equiv_pos_site_id
 _symmetry_equiv_pos_as_xyz
  1  'x, y, z'
loop_
 _atom_site_type_symbol
 _atom_site_label
 _atom_site_symmetry_multiplicity
 _atom_site_fract_x
 _atom_site_fract_y
 _atom_site_fract_z
 _atom_site_occupancy
 _atom_site_hle17_ddec_charge
 _atom_site_hle17_ddec_spin_density
 _atom_site_hle17_ddec_sum_bond_order
 _atom_site_hle17_magmom
 _atom_site_hse06_10hf_ddec_charge
 _atom_site_hse06_10hf_ddec_spin_density
 _atom_site_hse06_10hf_ddec_sum_bond_order
 _atom_site_hse06_10hf_magmom
 _atom_site_hse06_ddec_charge
 _atom_site_hse06_ddec_spin_density
 _atom_site_hse06_ddec_sum_bond_order
 _atom_site_hse06_magmom
 _atom_site_pbe_cm5_charge
 _atom_site_pbe_ddec_charge
 _atom_site_pbe_ddec_spin_density
 _atom_site_pbe_ddec_sum_bond_order
 _atom_site_pbe_magmom
Ni  Ni0  1  0.00000051  0.00000058  0.99999787  1  0.876534  1.828037  1.933699  1.52  0.888752  1.863783  2.311684  1.641  0.978418  1.920379  2.240262  1.726  0.636608  0.817648  1.809432  2.369575  1.564
Ni  Ni1  1  0.00000019  0.50000081  0.49999841  1  0.875001  -1.82774  1.936546  -1.52  0.886532  -1.863698  2.315139  -1.642  0.977265  -1.920187  2.24235  -1.726  0.636023  0.816686  -1.809647  2.370725  -1.565
H  H2  1  0.67948213  0.22724043  0.03018851  1  0.400274  -0.000487  0.923343  -0.002  0.365498  -3.8e-05  0.995543  -0.001  0.377974  -0.000139  0.978016  -0.001  0.28001  0.356689  8.4e-05  1.007808  0.0
H  H3  1  0.93679937  0.27303312  0.46979835  1  0.401183  0.000487  0.921562  0.002  0.366759  4e-05  0.993375  0.001  0.379208  0.00014  0.97589  0.001  0.280252  0.357972  -8.1e-05  1.005619  0.0
H  H4  1  0.32051915  0.77275408  0.96980751  1  0.400248  -0.000487  0.923333  -0.002  0.365504  -3.8e-05  0.995518  -0.001  0.377984  -0.000139  0.977986  -0.001  0.280039  0.356697  8.4e-05  1.007779  0.0
H  H5  1  0.06319701  0.72696808  0.53020275  1  0.401156  0.000487  0.921586  0.002  0.366746  4e-05  0.993396  0.001  0.379194  0.00014  0.97591  0.001  0.280236  0.35796  -8.1e-05  1.005634  0.0
H  H6  1  0.79421643  0.32599585  0.95736375  1  0.394001  -0.000307  0.874675  -0.001  0.371779  0.000286  0.948298  0.0  0.380352  0.000109  0.939484  0.0  0.298341  0.365604  0.000473  0.954414  0.0
H  H7  1  0.07733839  0.17419141  0.54267257  1  0.393632  0.000301  0.874749  0.001  0.371664  -0.000292  0.948012  0.0  0.380247  -0.000114  0.939167  0.0  0.298136  0.365477  -0.000479  0.954177  0.0
H  H8  1  0.20578274  0.67400270  0.04263595  1  0.394102  -0.000307  0.874496  -0.001  0.37185  0.000287  0.94816  0.0  0.380424  0.00011  0.939346  0.0  0.298402  0.365676  0.000473  0.954276  0.0
H  H9  1  0.92264593  0.82580244  0.45733839  1  0.39367  0.000301  0.874729  0.001  0.371757  -0.000291  0.947993  0.0  0.380331  -0.000113  0.939154  0.0  0.298135  0.365569  -0.000478  0.954163  0.0
H  H10  1  0.14373390  0.17496747  0.67491304  1  0.124736  0.00019  0.95617  0.0  0.137011  0.000132  1.012954  0.0  0.140855  0.000101  1.009066  0.0  0.115963  0.134066  0.00017  1.016001  0.0
H  H11  1  0.99402269  0.32492777  0.82489797  1  0.125185  -0.000179  0.956575  0.0  0.13747  -0.000129  1.013143  0.0  0.141404  -9.9e-05  1.009159  0.0  0.116077  0.134463  -0.000165  1.016273  0.0
H  H12  1  0.85627261  0.82501679  0.32508561  1  0.12465  0.000189  0.956298  0.0  0.136936  0.000132  1.013069  0.0  0.140777  0.000101  1.009187  0.0  0.115959  0.133989  0.00017  1.016134  0.0
H  H13  1  0.00598273  0.67506444  0.17510497  1  0.125191  -0.00018  0.956554  0.0  0.137451  -0.000129  1.013156  0.0  0.141384  -9.9e-05  1.009173  0.0  0.1161  0.134446  -0.000165  1.016281  0.0
H  H14  1  0.81289200  0.03602316  0.56337895  1  0.110988  -0.000461  0.957158  0.0  0.123499  -0.000574  1.011244  0.0  0.127506  -0.00039  1.008305  0.0  0.105661  0.120365  -0.00077  1.013883  0.0
H  H15  1  0.41234957  0.46363855  0.93692383  1  0.109331  0.000467  0.958317  0.0  0.122288  0.000578  1.012167  0.0  0.126329  0.000392  1.009159  0.0  0.105004  0.119188  0.000775  1.014779  0.0
H  H16  1  0.18710722  0.96398826  0.43661882  1  0.110977  -0.00046  0.957169  0.0  0.123487  -0.000574  1.011266  0.0  0.127494  -0.00039  1.008327  0.0  0.105667  0.120387  -0.00077  1.013863  0.0
H  H17  1  0.58765427  0.53636877  0.06306898  1  0.109327  0.000467  0.95825  0.0  0.122304  0.000578  1.012092  0.0  0.126344  0.000392  1.009086  0.0  0.105025  0.1192  0.000775  1.014711  0.0
H  H18  1  0.38152220  0.49916844  0.34880850  1  0.104906  -0.000176  0.901058  -0.001  0.118616  -8.1e-05  0.953452  0.0  0.120861  -6.5e-05  0.949997  0.0  0.148083  0.116742  -9.1e-05  0.956234  0.0
H  H19  1  0.22964574  0.00039551  0.15109066  1  0.105002  0.000174  0.900649  0.001  0.118842  8.1e-05  0.9528  0.0  0.12111  6.6e-05  0.949361  0.0  0.147673  0.116935  9.1e-05  0.955629  0.0
H  H20  1  0.61848588  0.50083394  0.65119006  1  0.104934  -0.000176  0.901004  -0.001  0.118646  -8.1e-05  0.953404  0.0  0.120893  -6.5e-05  0.949945  0.0  0.148089  0.116771  -9.1e-05  0.956186  0.0
H  H21  1  0.77034068  0.99960570  0.84891060  1  0.105027  0.000174  0.900595  0.001  0.11884  8.1e-05  0.952776  0.0  0.121111  6.6e-05  0.949334  0.0  0.147652  0.116928  9.1e-05  0.95561  0.0
H  H22  1  0.69114390  0.86423511  0.71328706  1  0.098412  4.6e-05  0.965709  0.0  0.105883  4.2e-05  1.034418  0.0  0.108881  3.9e-05  1.032672  0.0  0.102382  0.103658  4.5e-05  1.035777  0.0
H  H23  1  0.26856601  0.63585303  0.78709045  1  0.098987  -4.6e-05  0.965381  0.0  0.106318  -3.9e-05  1.034245  0.0  0.109334  -3.7e-05  1.032502  0.0  0.102332  0.10403  -4.1e-05  1.03571  0.0
H  H24  1  0.30886149  0.13576728  0.28671173  1  0.098404  4.7e-05  0.965754  0.0  0.105876  4.2e-05  1.034452  0.0  0.108873  3.9e-05  1.032706  0.0  0.102356  0.103651  4.6e-05  1.035812  0.0
H  H25  1  0.73142681  0.36415207  0.21291094  1  0.098946  -4.6e-05  0.965399  0.0  0.106293  -3.9e-05  1.034261  0.0  0.109309  -3.7e-05  1.032521  0.0  0.102321  0.10403  -4.1e-05  1.035701  0.0
H  H26  1  0.69413131  0.30747466  0.39383352  1  0.319441  -0.000169  0.940052  0.0  0.296302  -0.000138  1.005706  0.0  0.306067  -0.00011  0.997603  0.0  0.305586  0.289392  -0.000164  1.011464  0.0
H  H27  1  0.39554463  0.19215096  0.10620917  1  0.318033  0.000172  0.941307  0.0  0.295086  0.000142  1.006538  0.0  0.30479  0.000113  0.998544  0.0  0.306058  0.288132  0.00017  1.012384  0.0
H  H28  1  0.30587234  0.69252533  0.60616954  1  0.319463  -0.000169  0.940085  0.0  0.296299  -0.000138  1.005764  0.0  0.306072  -0.00011  0.997657  0.0  0.305597  0.289389  -0.000164  1.011527  0.0
H  H29  1  0.60445123  0.80784404  0.89379821  1  0.318065  0.000173  0.941219  0.0  0.295092  0.000143  1.00651  0.0  0.304799  0.000113  0.998506  0.0  0.306068  0.288141  0.00017  1.012348  0.0
C  C30  1  0.33088928  0.92424862  0.80229031  1  0.644374  -0.000572  3.875155  -0.003  0.595918  0.00235  4.179501  0.002  0.632539  0.001765  4.172461  0.001  0.208897  0.570236  0.003009  4.183291  0.002
C  C31  1  0.05756127  0.57571634  0.69777680  1  0.646361  0.000638  3.875738  0.003  0.596988  -0.002277  4.180621  -0.002  0.633563  -0.001707  4.17369  -0.001  0.20899  0.5714  -0.002919  4.184323  -0.002
C  C32  1  0.66911826  0.07574198  0.19770518  1  0.644342  -0.000574  3.875164  -0.003  0.595875  0.002349  4.179509  0.002  0.632498  0.001765  4.172468  0.001  0.208831  0.570194  0.003008  4.183293  0.002
C  C33  1  0.94243372  0.42428619  0.30222501  1  0.646425  0.000637  3.875536  0.003  0.597091  -0.002277  4.180367  -0.002  0.633664  -0.001707  4.173438  -0.001  0.209077  0.571504  -0.00292  4.184059  -0.002
C  C34  1  0.28946765  0.14101925  0.64529113  1  -0.137264  -0.001412  3.724187  -0.002  -0.169088  -9.8e-05  3.970527  -0.001  -0.168019  -0.000208  3.988675  -0.001  -0.083216  -0.169721  -2.6e-05  3.958637  0.0
C  C35  1  0.07617026  0.35880116  0.85460858  1  -0.135523  0.001226  3.724388  0.002  -0.167651  2.1e-05  3.970433  0.0  -0.166661  0.000165  3.988615  0.001  -0.082136  -0.168229  -9.1e-05  3.958533  0.0
C  C36  1  0.71053621  0.85897668  0.35470771  1  -0.137121  -0.0014  3.724217  -0.002  -0.168993  -9.9e-05  3.970503  -0.001  -0.167924  -0.000208  3.988654  -0.001  -0.083196  -0.169637  -2.6e-05  3.958622  0.0
C  C37  1  0.92383194  0.64119868  0.14539109  1  -0.135565  0.001241  3.724386  0.002  -0.167651  2.1e-05  3.970467  0.0  -0.166662  0.000163  3.988651  0.001  -0.082179  -0.168227  -9.2e-05  3.958554  0.0
C  C38  1  0.41021379  0.01006509  0.70189341  1  -0.082009  0.005604  3.769509  0.007  -0.063063  0.002773  4.014496  0.004  -0.073069  0.001933  4.039067  0.003  -0.029575  -0.056559  0.003713  3.998196  0.005
C  C39  1  0.12243776  0.48986612  0.79816318  1  -0.082255  -0.005708  3.770536  -0.007  -0.062082  -0.002814  4.014411  -0.004  -0.072198  -0.001963  4.039231  -0.003  -0.02949  -0.05551  -0.003755  3.997917  -0.005
C  C40  1  0.58978997  0.98993347  0.29810659  1  -0.082001  0.0056  3.769405  0.007  -0.06303  0.002774  4.014355  0.004  -0.073036  0.001932  4.038928  0.003  -0.029571  -0.056523  0.003713  3.998053  0.005
C  C41  1  0.87756131  0.51013629  0.20183581  1  -0.082305  -0.005719  3.77047  -0.007  -0.062148  -0.002814  4.014353  -0.004  -0.072263  -0.001961  4.039173  -0.003  -0.029475  -0.05556  -0.003755  3.997832  -0.005
C  C42  1  0.35974455  0.22914910  0.55583244  1  0.126685  0.000262  3.823041  0.001  0.133246  -0.000465  4.067418  0.0  0.135015  -0.000105  4.093337  0.0  0.084342  0.131753  -0.000759  4.049945  -0.001
C  C43  1  0.14503784  0.27060589  0.94409690  1  0.124316  -0.000224  3.819078  -0.001  0.13076  0.000464  4.064034  0.0  0.132534  0.000104  4.089943  0.0  0.084053  0.129272  0.000756  4.0465  0.001
C  C44  1  0.64025418  0.77085079  0.44416823  1  0.126561  0.000253  3.823157  0.001  0.133263  -0.000465  4.067364  0.0  0.13503  -0.000104  4.093286  0.0  0.084356  0.131773  -0.000758  4.049883  -0.001
C  C45  1  0.85496487  0.72939652  0.05590213  1  0.124394  -0.000231  3.819006  -0.001  0.130747  0.000464  4.064087  0.0  0.13252  0.000104  4.090002  0.0  0.084061  0.129254  0.000756  4.046562  0.001
C  C46  1  0.54861005  0.18945479  0.52522363  1  0.170417  -0.002401  3.782616  -0.003  0.158664  -0.001184  4.026435  -0.002  0.164696  -0.000952  4.048219  -0.001  0.098278  0.154683  -0.00139  4.011833  -0.002
C  C47  1  0.26357775  0.31019061  0.97478338  1  0.170511  0.002412  3.776443  0.003  0.158798  0.0012  4.020206  0.002  0.164716  0.000963  4.041999  0.001  0.098682  0.154882  0.001409  4.005615  0.002
C  C48  1  0.45138779  0.81054777  0.47477898  1  0.170437  -0.002395  3.78247  -0.003  0.158584  -0.001184  4.026348  -0.002  0.164627  -0.000953  4.048122  -0.001  0.098244  0.15461  -0.00139  4.011736  -0.002
C  C49  1  0.73642625  0.68981190  0.02521800  1  0.170337  0.002419  3.776593  0.003  0.158659  0.001199  4.020365  0.002  0.16457  0.000962  4.042159  0.001  0.098592  0.154744  0.001409  4.005774  0.002
C  C50  1  0.66985060  0.06123195  0.58311314  1  -0.173177  0.000605  3.764055  0.001  -0.18521  -0.000203  4.014277  0.0  -0.19016  -5.2e-05  4.032808  0.0  -0.099721  -0.182026  -0.000308  4.002162  0.0
C  C51  1  0.31433734  0.43853244  0.91707194  1  -0.168975  -0.000702  3.759188  -0.001  -0.181428  0.000155  4.009366  0.0  -0.186378  1.7e-05  4.027993  0.0  -0.098751  -0.178272  0.000249  3.997154  0.0
C  C52  1  0.33014844  0.93877699  0.41688735  1  -0.173092  0.000599  3.764033  0.001  -0.185134  -0.000203  4.014302  0.0  -0.190084  -5.3e-05  4.032832  0.0  -0.09969  -0.181977  -0.000308  4.002172  0.0
C  C53  1  0.68566476  0.56147126  0.08292702  1  -0.168848  -0.000714  3.759126  -0.001  -0.181319  0.000155  4.009299  0.0  -0.186268  1.8e-05  4.027928  0.0  -0.098712  -0.178163  0.000249  3.997094  0.0
C  C54  1  0.40432007  0.39987340  0.41491255  1  0.286569  0.006942  3.615358  0.008  0.22563  0.00213  3.899392  0.003  0.246464  0.002169  3.907134  0.003  0.169714  0.211435  0.002245  3.894067  0.003
C  C55  1  0.21933774  0.09974984  0.08500877  1  0.286147  -0.006932  3.613374  -0.008  0.224991  -0.002159  3.897448  -0.003  0.245688  -0.002192  3.905214  -0.003  0.169709  0.210867  -0.002276  3.892028  -0.003
C  C56  1  0.59568169  0.60012900  0.58508621  1  0.28648  0.006938  3.615374  0.008  0.225501  0.002131  3.899427  0.003  0.246342  0.00217  3.907168  0.003  0.169669  0.211304  0.002245  3.894104  0.003
C  C57  1  0.78065405  0.90025135  0.91499203  1  0.286085  -0.00693  3.613413  -0.008  0.224961  -0.002159  3.897472  -0.003  0.245654  -0.002193  3.905234  -0.003  0.169734  0.210844  -0.002276  3.892053  -0.003
C  C58  1  0.59885985  0.97006322  0.66978858  1  -0.058889  -0.000346  3.73393  0.0  -0.091503  0.000344  3.99702  0.0  -0.089987  0.000151  4.017934  0.0  -0.090814  -0.092281  0.000503  3.982836  0.001
C  C59  1  0.23884746  0.52985331  0.83041495  1  -0.061249  0.000468  3.731779  0.001  -0.09419  -0.000269  3.994794  0.0  -0.092728  -9.9e-05  4.015841  0.0  -0.090829  -0.09489  -0.000405  3.980532  0.0
C  C60  1  0.40114007  0.02994183  0.33021185  1  -0.05892  -0.000343  3.734038  0.0  -0.091537  0.000344  3.997113  0.0  -0.090021  0.000153  4.018027  0.0  -0.09081  -0.092325  0.000503  3.982946  0.001
C  C61  1  0.76114691  0.47015172  0.16958490  1  -0.061269  0.000477  3.731825  0.001  -0.094227  -0.000269  3.994859  0.0  -0.09276  -0.0001  4.01589  0.0  -0.090866  -0.09495  -0.000405  3.980587  0.0
N  N62  1  0.27354513  0.36277169  0.48516242  1  -0.413404  -0.04786  3.263703  -0.071  -0.381051  -0.030539  3.566449  -0.045  -0.412718  -0.025071  3.584762  -0.038  -0.356929  -0.358714  -0.034686  3.553856  -0.05
N  N63  1  0.12176693  0.13693976  0.01469514  1  -0.413141  0.047742  3.262146  0.07  -0.381253  0.03044  3.565584  0.045  -0.412708  0.024997  3.583997  0.038  -0.357544  -0.358665  0.034569  3.553048  0.05
N  N64  1  0.72646003  0.63722677  0.51483501  1  -0.413341  -0.047854  3.263731  -0.071  -0.380993  -0.030538  3.566416  -0.045  -0.412661  -0.025072  3.584728  -0.038  -0.356969  -0.358659  -0.034684  3.553825  -0.05
N  N65  1  0.87823605  0.86306126  0.98530188  1  -0.413086  0.047743  3.262109  0.07  -0.38118  0.030441  3.565569  0.045  -0.412635  0.024999  3.583983  0.038  -0.357494  -0.358591  0.03457  3.553035  0.05
N  N66  1  0.57104570  0.29996371  0.43568328  1  -0.349427  -0.000474  3.372151  -0.001  -0.288391  -0.000459  3.613652  -0.001  -0.306903  -0.000271  3.62374  -0.001  -0.375299  -0.27615  -0.000629  3.607039  -0.001
N  N67  1  0.30690543  0.19962640  0.06431708  1  -0.349117  0.000458  3.369875  0.001  -0.287835  0.000448  3.611167  0.001  -0.306104  0.000261  3.621122  0.001  -0.376406  -0.275643  0.000618  3.60466  0.001
N  N68  1  0.42895343  0.70004016  0.56431980  1  -0.349407  -0.000473  3.372145  -0.001  -0.288309  -0.000459  3.61363  -0.001  -0.306838  -0.000271  3.623722  -0.001  -0.375244  -0.276071  -0.000629  3.607014  -0.001
N  N69  1  0.69309034  0.80037487  0.93568583  1  -0.349071  0.000456  3.370026  0.001  -0.287783  0.000447  3.611301  0.001  -0.306038  0.000261  3.621235  0.001  -0.37641  -0.275591  0.000618  3.604792  0.001
O  O70  1  0.15791385  0.97599070  0.83068823  1  -0.591314  0.049741  2.018866  0.078  -0.568989  0.030138  2.283104  0.048  -0.605763  0.021975  2.274838  0.036  -0.308382  -0.540178  0.038369  2.287557  0.06
O  O71  1  0.96475109  0.52402092  0.66936232  1  -0.591592  -0.049715  2.020918  -0.078  -0.568974  -0.030146  2.285373  -0.048  -0.60584  -0.02202  2.276999  -0.036  -0.307767  -0.540435  -0.038284  2.289665  -0.06
O  O72  1  0.84209481  0.02399995  0.16930857  1  -0.591212  0.049743  2.018787  0.078  -0.56889  0.03014  2.283017  0.048  -0.605666  0.021976  2.274753  0.036  -0.308294  -0.540085  0.038371  2.287476  0.06
O  O73  1  0.03525094  0.47597888  0.33063631  1  -0.591557  -0.049716  2.020756  -0.078  -0.568938  -0.030146  2.285185  -0.048  -0.605805  -0.022019  2.276812  -0.036  -0.307782  -0.540406  -0.038285  2.289486  -0.06
O  O74  1  0.44050716  0.80571184  0.85642146  1  -0.634433  0.001577  2.011354  0.003  -0.573813  0.001278  2.228232  0.002  -0.59977  0.000719  2.217539  0.001  -0.322019  -0.555539  0.001936  2.235169  0.003
O  O75  1  0.10269413  0.69427000  0.64363693  1  -0.636195  -0.001452  2.009367  -0.003  -0.575221  -0.001183  2.22647  -0.002  -0.601164  -0.000651  2.215729  -0.001  -0.322924  -0.55696  -0.001819  2.233366  -0.003
O  O76  1  0.55949398  0.19427609  0.14357202  1  -0.634481  0.001576  2.011429  0.003  -0.573849  0.001278  2.228303  0.002  -0.599793  0.000719  2.217598  0.001  -0.322026  -0.555572  0.001935  2.23524  0.003
O  O77  1  0.89730320  0.30573121  0.35636444  1  -0.636192  -0.001452  2.009411  -0.003  -0.575245  -0.001184  2.22651  -0.002  -0.601184  -0.000651  2.215769  -0.001  -0.322938  -0.556988  -0.001819  2.233413  -0.003
O  O78  1  0.77244131  0.22839933  0.95636777  1  -0.778897  0.045865  1.913116  0.069  -0.755003  0.033531  2.119853  0.051  -0.783907  0.025698  2.091368  0.04  -0.569533  -0.732225  0.040729  2.139562  0.06
O  O79  1  0.95711288  0.27197060  0.54357289  1  -0.778471  -0.045907  1.914005  -0.069  -0.754948  -0.033528  2.120742  -0.051  -0.783962  -0.02573  2.092143  -0.04  -0.569237  -0.732449  -0.04067  2.140331  -0.06
O  O80  1  0.22755473  0.77160299  0.04362938  1  -0.778988  0.045868  1.912939  0.069  -0.75508  0.033532  2.119751  0.051  -0.783973  0.025699  2.091235  0.04  -0.569622  -0.732308  0.040731  2.139462  0.06
O  O81  1  0.04288228  0.72803318  0.45642807  1  -0.778457  -0.045911  1.914004  -0.069  -0.755058  -0.03353  2.120555  -0.051  -0.784057  -0.025731  2.091991  -0.04  -0.569212  -0.732555  -0.040671  2.140144  -0.06
