# generated using pymatgen
data_GdH8C9NO7
_symmetry_space_group_name_H-M   'P 1'
_cell_length_a   8.86971599
_cell_length_b   9.09534106
_cell_length_c   18.21577371
_cell_angle_alpha   79.95998244
_cell_angle_beta   75.89787826
_cell_angle_gamma   60.80829000
_symmetry_Int_Tables_number   1
_chemical_formula_structural   GdH8C9NO7
_chemical_formula_sum   'Gd4 H32 C36 N4 O28'
_cell_volume   1241.54447598
_cell_formula_units_Z   4
loop_
 _symmetry_equiv_pos_site_id
 _symmetry_equiv_pos_as_xyz
  1  'x, y, z'
loop_
 _atom_site_type_symbol
 _atom_site_label
 _atom_site_symmetry_multiplicity
 _atom_site_fract_x
 _atom_site_fract_y
 _atom_site_fract_z
 _atom_site_occupancy
 _atom_site_hle17_bader_spin_density
 _atom_site_hle17_ddec_charge
 _atom_site_hle17_ddec_spin_density
 _atom_site_hle17_ddec_sum_bond_order
 _atom_site_hle17_magmom
 _atom_site_hse06_10hf_bader_spin_density
 _atom_site_hse06_10hf_ddec_charge
 _atom_site_hse06_10hf_ddec_spin_density
 _atom_site_hse06_10hf_ddec_sum_bond_order
 _atom_site_hse06_10hf_magmom
 _atom_site_hse06_bader_spin_density
 _atom_site_hse06_ddec_charge
 _atom_site_hse06_ddec_spin_density
 _atom_site_hse06_ddec_sum_bond_order
 _atom_site_hse06_magmom
 _atom_site_pbe_bader_spin_density
 _atom_site_pbe_cm5_charge
 _atom_site_pbe_ddec_charge
 _atom_site_pbe_ddec_spin_density
 _atom_site_pbe_ddec_sum_bond_order
 _atom_site_pbe_magmom
Gd  Gd0  1  0.81913495  0.44647999  0.06987600  1  0  2.127551  0  1.826784  0  0  2.019682  0  2.201026  0  0  2.078567  0  2.141848  0  0  1.475598  1.975154  0  2.246918  0
Gd  Gd1  1  0.33533074  0.05347034  0.43022715  1  0  2.127403  0  1.828962  0  0  2.019412  0  2.203588  0  0  2.078185  0  2.144565  0  0  1.47585  1.97498  0  2.249299  0
Gd  Gd2  1  0.18086371  0.55352109  0.93012326  1  0  2.127531  0  1.82682  0  0  2.019655  0  2.20108  0  0  2.078557  0  2.141876  0  0  1.475595  1.975127  0  2.246975  0
Gd  Gd3  1  0.66466687  0.94652947  0.56977379  1  0  2.127444  0  1.828892  0  0  2.019403  0  2.203594  0  0  2.078198  0  2.144541  0  0  1.475862  1.974964  0  2.249323  0
H  H4  1  0.62250299  0.63768090  0.33032767  1  0  0.134881  0  0.927662  0  0  0.142101  0  0.990747  0  0  0.146773  0  0.985559  0  0  0.124075  0.138616  0  0.994569  0
H  H5  1  0.59037390  0.86245311  0.16985199  1  0  0.134363  0  0.928498  0  0  0.141781  0  0.991355  0  0  0.146488  0  0.98615  0  0  0.123752  0.138298  0  0.995163  0
H  H6  1  0.37750028  0.36232271  0.66966920  1  0  0.134897  0  0.927648  0  0  0.142098  0  0.99075  0  0  0.146771  0  0.985561  0  0  0.124074  0.138612  0  0.994571  0
H  H7  1  0.40963127  0.13754794  0.83015004  1  0  0.134372  0  0.928475  0  0  0.141772  0  0.991353  0  0  0.146478  0  0.986146  0  0  0.123761  0.138291  0  0.995159  0
H  H8  1  0.95360837  0.38537395  0.49830043  1  0  0.091659  0  0.936605  0  0  0.095535  0  1.006467  0  0  0.099532  0  1.001851  0  0  0.126408  0.092554  0  1.009829  0
H  H9  1  0.83740179  0.11456132  0.00185722  1  0  0.091415  0  0.937726  0  0  0.095209  0  1.007332  0  0  0.099209  0  1.00274  0  0  0.126201  0.092229  0  1.010695  0
H  H10  1  0.04638681  0.61462587  0.50169829  1  0  0.091688  0  0.936576  0  0  0.095565  0  1.006456  0  0  0.099553  0  1.001847  0  0  0.126413  0.092584  0  1.009826  0
H  H11  1  0.16260400  0.88543847  0.99814484  1  0  0.091401  0  0.937705  0  0  0.095173  0  1.007342  0  0  0.099218  0  1.002697  0  0  0.12619  0.092189  0  1.010714  0
H  H12  1  0.82380558  0.58028569  0.79184975  1  0  0.154362  0  0.934635  0  0  0.171484  0  0.995913  0  0  0.173739  0  0.995871  0  0  0.108  0.169821  0  0.996063  0
H  H13  1  0.19604891  0.91924960  0.70831483  1  0  0.154054  0  0.935982  0  0  0.171417  0  0.996942  0  0  0.173697  0  0.996871  0  0  0.107948  0.169751  0  0.997091  0
H  H14  1  0.17619471  0.41971412  0.20814968  1  0  0.154368  0  0.934628  0  0  0.171498  0  0.995908  0  0  0.173754  0  0.995867  0  0  0.108007  0.169842  0  0.996044  0
H  H15  1  0.80395348  0.08074263  0.29168522  1  0  0.153994  0  0.935923  0  0  0.171362  0  0.996897  0  0  0.173631  0  0.996841  0  0  0.107941  0.1697  0  0.997042  0
H  H16  1  0.78252920  0.40310263  0.81044706  1  0  0.150433  0  0.92902  0  0  0.171318  0  0.981287  0  0  0.174382  0  0.979171  0  0  0.106249  0.169022  0  0.982978  0
H  H17  1  0.99617137  0.09640091  0.68972127  1  0  0.15037  0  0.929529  0  0  0.171243  0  0.981739  0  0  0.174267  0  0.979666  0  0  0.106158  0.168981  0  0.983401  0
H  H18  1  0.21747006  0.59689719  0.18955223  1  0  0.150452  0  0.928996  0  0  0.17133  0  0.981284  0  0  0.174401  0  0.979161  0  0  0.106234  0.169036  0  0.982973  0
H  H19  1  0.00382881  0.90359132  0.31028097  1  0  0.150333  0  0.929558  0  0  0.171218  0  0.981768  0  0  0.174242  0  0.979696  0  0  0.106167  0.168962  0  0.983423  0
H  H20  1  0.00292247  0.37544922  0.79655170  1  0  0.146766  0  0.934861  0  0  0.165586  0  0.99286  0  0  0.167712  0  0.992879  0  0  0.106786  0.164061  0  0.99288  0
H  H21  1  0.17491440  0.12409728  0.70367778  1  0  0.146545  0  0.934538  0  0  0.165309  0  0.992962  0  0  0.167473  0  0.992933  0  0  0.106421  0.163764  0  0.993007  0
H  H22  1  0.99707797  0.62454933  0.20344708  1  0  0.146732  0  0.934762  0  0  0.165565  0  0.992765  0  0  0.167691  0  0.992785  0  0  0.106769  0.164037  0  0.992796  0
H  H23  1  0.82508578  0.87589494  0.29632447  1  0  0.146526  0  0.934559  0  0  0.165317  0  0.992952  0  0  0.167482  0  0.992922  0  0  0.106439  0.163773  0  0.993002  0
H  H24  1  0.09054018  0.16041900  0.29609768  1  0  0.095142  0  0.918989  0  0  0.102188  0  0.983043  0  0  0.105548  0  0.979486  0  0  0.131115  0.099691  0  0.985615  0
H  H25  1  0.54700598  0.33960554  0.20405651  1  0  0.09588  0  0.918443  0  0  0.102804  0  0.982654  0  0  0.106272  0  0.978964  0  0  0.131417  0.100251  0  0.985294  0
H  H26  1  0.90945457  0.83957828  0.70390276  1  0  0.095118  0  0.918996  0  0  0.102229  0  0.982996  0  0  0.105593  0  0.979434  0  0  0.131127  0.09972  0  0.985587  0
H  H27  1  0.45299388  0.66039805  0.79594488  1  0  0.095904  0  0.918483  0  0  0.102804  0  0.982725  0  0  0.10627  0  0.979037  0  0  0.131421  0.100252  0  0.985367  0
H  H28  1  0.48465019  0.72165853  0.08160329  1  0  0.437009  0  0.827121  0  0  0.416611  0  0.882167  0  0  0.426184  0  0.868107  0  0  0.319049  0.409775  0  0.892215  0
H  H29  1  0.28754228  0.77834614  0.41850144  1  0  0.436624  0  0.82735  0  0  0.416375  0  0.882303  0  0  0.425915  0  0.868301  0  0  0.319213  0.40955  0  0.892334  0
H  H30  1  0.51534881  0.27834507  0.91839548  1  0  0.437046  0  0.827129  0  0  0.416645  0  0.882135  0  0  0.426215  0  0.868077  0  0  0.319043  0.409811  0  0.89218  0
H  H31  1  0.71245717  0.22164987  0.58149960  1  0  0.436647  0  0.827256  0  0  0.416402  0  0.882247  0  0  0.425941  0  0.868246  0  0  0.319222  0.40958  0  0.892272  0
H  H32  1  0.41438239  0.59290441  0.07396184  1  0  0.443725  0  0.856209  0  0  0.412704  0  0.918864  0  0  0.424128  0  0.902474  0  0  0.297977  0.404618  0  0.930452  0
H  H33  1  0.08093535  0.90740243  0.42597098  1  0  0.443829  0  0.856238  0  0  0.41314  0  0.918395  0  0  0.424515  0  0.902078  0  0  0.298649  0.405081  0  0.929941  0
H  H34  1  0.58561778  0.40709793  0.92603642  1  0  0.443755  0  0.856166  0  0  0.412736  0  0.918819  0  0  0.424159  0  0.90243  0  0  0.297982  0.404649  0  0.93041  0
H  H35  1  0.91906348  0.09259484  0.57403002  1  0  0.443829  0  0.856235  0  0  0.413145  0  0.918382  0  0  0.424519  0  0.902065  0  0  0.298657  0.405082  0  0.929934  0
C  C36  1  0.73429292  0.52999329  0.35101205  1  0  0.001442  0  3.616578  0  0  -0.039295  0  3.858077  0  0  -0.030844  0  3.872172  0  0  -0.043428  -0.044335  0  3.848591  0
C  C37  1  0.61523127  0.97010453  0.14915524  1  0  0.002928  0  3.618094  0  0  -0.037466  0  3.859214  0  0  -0.029008  0  3.873383  0  0  -0.042637  -0.042528  0  3.849703  0
C  C38  1  0.26570938  0.47000906  0.64898526  1  0  0.001498  0  3.61658  0  0  -0.039223  0  3.858039  0  0  -0.030771  0  3.872135  0  0  -0.043375  -0.044268  0  3.848549  0
C  C39  1  0.38477131  0.02989652  0.85084705  1  0  0.002926  0  3.618129  0  0  -0.037442  0  3.859237  0  0  -0.028981  0  3.873402  0  0  -0.042662  -0.042504  0  3.849726  0
C  C40  1  0.91984664  0.38967204  0.44405538  1  0  0.155764  0  3.657334  0  0  0.11364  0  3.916957  0  0  0.124811  0  3.930056  0  0  0.069716  0.106609  0  3.907978  0
C  C41  1  0.75365894  0.11028657  0.05610479  1  0  0.156905  0  3.656618  0  0  0.115302  0  3.915731  0  0  0.12648  0  3.928776  0  0  0.070881  0.108251  0  3.906784  0
C  C42  1  0.08015108  0.61032904  0.55594250  1  0  0.155806  0  3.657401  0  0  0.113644  0  3.917065  0  0  0.124824  0  3.930172  0  0  0.069726  0.106606  0  3.9081  0
C  C43  1  0.24634343  0.88971070  0.94389733  1  0  0.15695  0  3.656586  0  0  0.115355  0  3.915701  0  0  0.1265  0  3.928738  0  0  0.070873  0.108308  0  3.906752  0
C  C44  1  0.76756425  0.52471614  0.42279376  1  0  -0.117174  0  3.717127  0  0  -0.089708  0  3.95265  0  0  -0.103181  0  3.974514  0  0  -0.006833  -0.081444  0  3.938273  0
C  C45  1  0.71508187  0.97530531  0.07737653  1  0  -0.117752  0  3.716931  0  0  -0.090469  0  3.95256  0  0  -0.103935  0  3.974369  0  0  -0.007441  -0.082206  0  3.938218  0
C  C46  1  0.23243621  0.47528999  0.57720344  1  0  -0.117205  0  3.717229  0  0  -0.089737  0  3.952775  0  0  -0.103209  0  3.974636  0  0  -0.006879  -0.081466  0  3.938387  0
C  C47  1  0.28492181  0.02469575  0.92262467  1  0  -0.117862  0  3.716912  0  0  -0.090577  0  3.95254  0  0  -0.104045  0  3.97436  0  0  -0.00747  -0.082312  0  3.938187  0
C  C48  1  0.65059951  0.66912032  0.47271280  1  0  0.721456  0  3.86481  0  0  0.672808  0  4.160502  0  0  0.709044  0  4.150371  0  0  0.233327  0.648195  0  4.166648  0
C  C49  1  0.79233431  0.83094229  0.02743916  1  0  0.721686  0  3.863074  0  0  0.672505  0  4.15965  0  0  0.708738  0  4.149524  0  0  0.233472  0.647894  0  4.165798  0
C  C50  1  0.34940271  0.33088202  0.52728574  1  0  0.721513  0  3.864782  0  0  0.672869  0  4.160469  0  0  0.709105  0  4.150338  0  0  0.233388  0.648256  0  4.166615  0
C  C51  1  0.20766076  0.16906255  0.97256286  1  0  0.721752  0  3.8631  0  0  0.672555  0  4.1597  0  0  0.708788  0  4.149574  0  0  0.233499  0.647947  0  4.165836  0
C  C52  1  0.86430861  0.45383885  0.82078520  1  0  -0.459553  0  3.617231  0  0  -0.533134  0  3.839821  0  0  -0.540482  0  3.841846  0  0  -0.235411  -0.52792  0  3.838518  0
C  C53  1  0.13901986  0.04571957  0.67939791  1  0  -0.459164  0  3.617177  0  0  -0.532774  0  3.840362  0  0  -0.54016  0  3.842368  0  0  -0.234974  -0.527561  0  3.839034  0
C  C54  1  0.13569387  0.54615970  0.17921386  1  0  -0.459483  0  3.617143  0  0  -0.53313  0  3.839755  0  0  -0.54048  0  3.84178  0  0  -0.235388  -0.527926  0  3.838445  0
C  C55  1  0.86097980  0.95427392  0.32060307  1  0  -0.459035  0  3.617122  0  0  -0.532692  0  3.840327  0  0  -0.540065  0  3.842334  0  0  -0.234976  -0.527485  0  3.838994  0
C  C56  1  0.85194429  0.39846693  0.30417601  1  0  -0.106071  0  3.737889  0  0  -0.07631  0  3.970938  0  0  -0.089917  0  3.994408  0  0  -0.007166  -0.068011  0  3.955537  0
C  C57  1  0.55449125  0.10163689  0.19598516  1  0  -0.107193  0  3.739594  0  0  -0.078199  0  3.97379  0  0  -0.091942  0  3.997454  0  0  -0.007464  -0.069844  0  3.95831  0
C  C58  1  0.14805501  0.60153416  0.69582146  1  0  -0.10621  0  3.737851  0  0  -0.076391  0  3.970877  0  0  -0.090004  0  3.994357  0  0  -0.007248  -0.068091  0  3.955472  0
C  C59  1  0.44551194  0.89836291  0.80401717  1  0  -0.10717  0  3.73955  0  0  -0.078159  0  3.973746  0  0  -0.091901  0  3.997406  0  0  -0.007413  -0.069805  0  3.958275  0
C  C60  1  0.99733356  0.26548291  0.33126713  1  0  0.152141  0  3.648749  0  0  0.110133  0  3.907494  0  0  0.120312  0  3.923246  0  0  0.070883  0.103766  0  3.896661  0
C  C61  1  0.59407593  0.23454549  0.16888122  1  0  0.15243  0  3.649037  0  0  0.110498  0  3.908341  0  0  0.120634  0  3.924131  0  0  0.071053  0.104167  0  3.89746  0
C  C62  1  0.00266325  0.73451564  0.66873177  1  0  0.152235  0  3.648755  0  0  0.110128  0  3.907516  0  0  0.120309  0  3.923273  0  0  0.070919  0.103777  0  3.896685  0
C  C63  1  0.40592784  0.76545558  0.83111874  1  0  0.152342  0  3.648965  0  0  0.110404  0  3.908296  0  0  0.120541  0  3.924083  0  0  0.070986  0.104073  0  3.897423  0
C  C64  1  0.84666722  0.46421985  0.90397439  1  0  0.807272  0  3.760602  0  0  0.770306  0  4.048516  0  0  0.805124  0  4.038727  0  0  0.233324  0.746578  0  4.054229  0
C  C65  1  0.21504935  0.03546643  0.59619732  1  0  0.807166  0  3.758715  0  0  0.769338  0  4.048129  0  0  0.804131  0  4.038351  0  0  0.232376  0.745599  0  4.053877  0
C  C66  1  0.15333424  0.53577870  0.09602453  1  0  0.807168  0  3.76083  0  0  0.770308  0  4.048602  0  0  0.805106  0  4.038837  0  0  0.233316  0.746583  0  4.054312  0
C  C67  1  0.78494887  0.96453212  0.40380365  1  0  0.807205  0  3.758648  0  0  0.769384  0  4.048054  0  0  0.80418  0  4.038275  0  0  0.232398  0.745654  0  4.053796  0
C  C68  1  0.83093863  0.40700009  0.22427288  1  0  0.621812  0  3.980983  0  0  0.575991  0  4.281745  0  0  0.609425  0  4.277162  0  0  0.186381  0.553503  0  4.283792  0
C  C69  1  0.46192671  0.09321531  0.27585057  1  0  0.621954  0  3.979412  0  0  0.576266  0  4.280294  0  0  0.609722  0  4.2757  0  0  0.186202  0.553769  0  4.282344  0
C  C70  1  0.16905991  0.59299720  0.77572496  1  0  0.621791  0  3.981128  0  0  0.575932  0  4.28192  0  0  0.609368  0  4.27734  0  0  0.186379  0.553443  0  4.283969  0
C  C71  1  0.53807274  0.90678702  0.72415071  1  0  0.622  0  3.979531  0  0  0.576287  0  4.280452  0  0  0.609744  0  4.275858  0  0  0.186249  0.553779  0  4.282517  0
N  N72  1  0.03234765  0.26215717  0.39953129  1  0  -0.39036  0  3.225837  0  0  -0.338338  0  3.501218  0  0  -0.355408  0  3.517203  0  0  -0.381688  -0.326674  0  3.490108  0
N  N73  1  0.69413066  0.23779079  0.10062349  1  0  -0.39156  0  3.225525  0  0  -0.339714  0  3.501023  0  0  -0.356807  0  3.517037  0  0  -0.382597  -0.328042  0  3.489909  0
N  N74  1  0.96765188  0.73783885  0.60046852  1  0  -0.390386  0  3.225924  0  0  -0.338327  0  3.501339  0  0  -0.355401  0  3.517323  0  0  -0.381687  -0.326666  0  3.490235  0
N  N75  1  0.30587157  0.76220774  0.89937929  1  0  -0.391502  0  3.225513  0  0  -0.339638  0  3.50099  0  0  -0.356738  0  3.517023  0  0  -0.382534  -0.327966  0  3.489876  0
O  O76  1  0.72989596  0.43788721  0.95265738  1  0  -0.700386  0  2.008716  0  0  -0.647608  0  2.234084  0  0  -0.674863  0  2.224108  0  0  -0.349877  -0.628421  0  2.240558  0
O  O77  1  0.12072889  0.06151948  0.54752524  1  0  -0.699662  0  2.008426  0  0  -0.646707  0  2.234221  0  0  -0.673889  0  2.224225  0  0  -0.349643  -0.627564  0  2.240733  0
O  O78  1  0.27010713  0.56211008  0.04734172  1  0  -0.700387  0  2.008793  0  0  -0.647628  0  2.234101  0  0  -0.674881  0  2.224135  0  0  -0.349904  -0.628442  0  2.240572  0
O  O79  1  0.87927015  0.93848158  0.45247594  1  0  -0.699703  0  2.008415  0  0  -0.646756  0  2.234234  0  0  -0.673946  0  2.224239  0  0  -0.349665  -0.627615  0  2.240748  0
O  O80  1  0.72778532  0.54938072  0.19533192  1  0  -0.670905  0  1.962247  0  0  -0.631574  0  2.198957  0  0  -0.657802  0  2.190655  0  0  -0.380054  -0.612988  0  2.2041  0
O  O81  1  0.47196972  0.95090239  0.30477512  1  0  -0.671364  0  1.961347  0  0  -0.631835  0  2.197974  0  0  -0.658047  0  2.189662  0  0  -0.38052  -0.613255  0  2.20311  0
O  O82  1  0.27221170  0.45062161  0.80466716  1  0  -0.670908  0  1.962272  0  0  -0.631572  0  2.199006  0  0  -0.657798  0  2.190697  0  0  -0.380093  -0.612987  0  2.204149  0
O  O83  1  0.52802590  0.04910245  0.69522636  1  0  -0.671413  0  1.961362  0  0  -0.631859  0  2.197986  0  0  -0.65808  0  2.189687  0  0  -0.380537  -0.613268  0  2.203121  0
O  O84  1  0.49994473  0.60725637  0.09558763  1  0  -0.897267  0  1.87415  0  0  -0.859677  0  2.061518  0  0  -0.87958  0  2.029497  0  0  -0.635068  -0.845213  0  2.083992  0
O  O85  1  0.20263795  0.89280221  0.40445607  1  0  -0.897457  0  1.875545  0  0  -0.860186  0  2.06283  0  0  -0.880025  0  2.03088  0  0  -0.635824  -0.845779  0  2.085302  0
O  O86  1  0.50005483  0.39274724  0.90441059  1  0  -0.897322  0  1.874115  0  0  -0.859736  0  2.06142  0  0  -0.879636  0  2.029404  0  0  -0.635066  -0.845276  0  2.0839  0
O  O87  1  0.79736354  0.10719380  0.59554525  1  0  -0.897467  0  1.875471  0  0  -0.86021  0  2.06283  0  0  -0.88005  0  2.03088  0  0  -0.635839  -0.845806  0  2.085303  0
O  O88  1  0.49361500  0.75906470  0.46122304  1  0  -0.726355  0  2.054062  0  0  -0.678674  0  2.295029  0  0  -0.70569  0  2.283625  0  0  -0.387597  -0.659409  0  2.302428  0
O  O89  1  0.71378199  0.74101522  0.03900563  1  0  -0.726686  0  2.054081  0  0  -0.678625  0  2.295107  0  0  -0.705673  0  2.283677  0  0  -0.3874  -0.659352  0  2.302544  0
O  O90  1  0.50638722  0.24093764  0.53877550  1  0  -0.726405  0  2.054084  0  0  -0.678713  0  2.295049  0  0  -0.705732  0  2.283644  0  0  -0.387612  -0.65945  0  2.302446  0
O  O91  1  0.28621755  0.25898711  0.96099442  1  0  -0.726714  0  2.054131  0  0  -0.678646  0  2.295168  0  0  -0.705697  0  2.283737  0  0  -0.387417  -0.659376  0  2.302604  0
O  O92  1  0.91940755  0.27593782  0.18623624  1  0  -0.673985  0  1.937407  0  0  -0.636639  0  2.162475  0  0  -0.661568  0  2.155039  0  0  -0.371272  -0.618972  0  2.167045  0
O  O93  1  0.38139763  0.22424025  0.31390389  1  0  -0.673369  0  1.936526  0  0  -0.635993  0  2.161501  0  0  -0.660898  0  2.154038  0  0  -0.370962  -0.618341  0  2.166083  0
O  O94  1  0.08059049  0.72405820  0.81376274  1  0  -0.673953  0  1.937578  0  0  -0.636606  0  2.162675  0  0  -0.661539  0  2.155241  0  0  -0.371256  -0.618936  0  2.167244  0
O  O95  1  0.61860337  0.77576081  0.68609881  1  0  -0.673361  0  1.936651  0  0  -0.635971  0  2.16163  0  0  -0.660877  0  2.154168  0  0  -0.370982  -0.618316  0  2.166215  0
O  O96  1  0.71833060  0.69483504  0.51989288  1  0  -0.697766  0  2.008951  0  0  -0.654975  0  2.250261  0  0  -0.682344  0  2.240565  0  0  -0.370352  -0.635501  0  2.256504  0
O  O97  1  0.93289709  0.80518742  0.98017501  1  0  -0.69784  0  2.007722  0  0  -0.654968  0  2.249228  0  0  -0.682336  0  2.23958  0  0  -0.370574  -0.63549  0  2.255449  0
O  O98  1  0.28167654  0.30516478  0.48010437  1  0  -0.6978  0  2.00897  0  0  -0.655022  0  2.25029  0  0  -0.682388  0  2.240595  0  0  -0.370383  -0.635553  0  2.256532  0
O  O99  1  0.06710420  0.19481112  0.01982638  1  0  -0.697824  0  2.007697  0  0  -0.654946  0  2.249212  0  0  -0.682308  0  2.239563  0  0  -0.370571  -0.635471  0  2.255429  0
O  O100  1  0.94998957  0.49747858  0.92781626  1  0  -0.801451  0  2.164432  0  0  -0.754047  0  2.413953  0  0  -0.783466  0  2.405581  0  0  -0.420189  -0.732972  0  2.419245  0
O  O101  1  0.37535958  0.00263696  0.57234884  1  0  -0.801674  0  2.164843  0  0  -0.753758  0  2.414862  0  0  -0.783147  0  2.406457  0  0  -0.419523  -0.732686  0  2.420145  0
O  O102  1  0.05001011  0.50252249  0.07218313  1  0  -0.801418  0  2.164537  0  0  -0.754052  0  2.414014  0  0  -0.783463  0  2.405652  0  0  -0.420162  -0.732978  0  2.419306  0
O  O103  1  0.62463946  0.99736411  0.42765234  1  0  -0.80167  0  2.164837  0  0  -0.753765  0  2.414866  0  0  -0.783145  0  2.406442  0  0  -0.419508  -0.732699  0  2.420154  0
