# generated using pymatgen
data_ZnH12C18(NO2)2
_symmetry_space_group_name_H-M   'P 1'
_cell_length_a   9.22261679
_cell_length_b   11.20054208
_cell_length_c   16.68216607
_cell_angle_alpha   101.05189380
_cell_angle_beta   94.38268475
_cell_angle_gamma   109.51547944
_symmetry_Int_Tables_number   1
_chemical_formula_structural   ZnH12C18(NO2)2
_chemical_formula_sum   'Zn4 H48 C72 N8 O16'
_cell_volume   1575.63630679
_cell_formula_units_Z   4
loop_
 _symmetry_equiv_pos_site_id
 _symmetry_equiv_pos_as_xyz
  1  'x, y, z'
loop_
 _atom_site_type_symbol
 _atom_site_label
 _atom_site_symmetry_multiplicity
 _atom_site_fract_x
 _atom_site_fract_y
 _atom_site_fract_z
 _atom_site_occupancy
 _atom_site_hle17_bader_spin_density
 _atom_site_hle17_ddec_charge
 _atom_site_hle17_ddec_spin_density
 _atom_site_hle17_ddec_sum_bond_order
 _atom_site_hle17_magmom
 _atom_site_hse06_10hf_bader_spin_density
 _atom_site_hse06_10hf_ddec_charge
 _atom_site_hse06_10hf_ddec_spin_density
 _atom_site_hse06_10hf_ddec_sum_bond_order
 _atom_site_hse06_10hf_magmom
 _atom_site_hse06_bader_spin_density
 _atom_site_hse06_ddec_charge
 _atom_site_hse06_ddec_spin_density
 _atom_site_hse06_ddec_sum_bond_order
 _atom_site_hse06_magmom
 _atom_site_pbe_bader_spin_density
 _atom_site_pbe_cm5_charge
 _atom_site_pbe_ddec_charge
 _atom_site_pbe_ddec_spin_density
 _atom_site_pbe_ddec_sum_bond_order
 _atom_site_pbe_magmom
Zn  Zn0  1  0.20538299  0.15737343  0.49564586  1  0  1.036598  0  1.852018  0  0  0.854969  0  2.317357  0  0  0.904023  0  2.260347  0  0  0.686887  0.820754  0  2.356381  0
Zn  Zn1  1  0.79461360  0.84262323  0.50435580  1  0  1.036643  0  1.851961  0  0  0.855007  0  2.317301  0  0  0.904065  0  2.260289  0  0  0.686891  0.820793  0  2.356327  0
Zn  Zn2  1  0.22892121  0.47626730  0.15296930  1  0  0.985942  0  1.83932  0  0  0.792818  0  2.303548  0  0  0.844237  0  2.247525  0  0  0.688412  0.757397  0  2.342003  0
Zn  Zn3  1  0.77108203  0.52373220  0.84702999  1  0  0.985953  0  1.839221  0  0  0.79283  0  2.30343  0  0  0.844249  0  2.247411  0  0  0.688429  0.757417  0  2.341885  0
H  H4  1  0.01252532  0.33493391  0.52491567  1  0  0.083191  0  0.973392  0  0  0.089922  0  1.041628  0  0  0.092343  0  1.039771  0  0  0.116501  0.087916  0  1.04287  0
H  H5  1  0.98746695  0.66506280  0.47508762  1  0  0.08316  0  0.973222  0  0  0.089842  0  1.041533  0  0  0.092302  0  1.039635  0  0  0.116502  0.087837  0  1.042774  0
H  H6  1  0.06137641  0.57051346  0.59199227  1  0  0.104114  0  0.956818  0  0  0.114744  0  1.016989  0  0  0.11702  0  1.017471  0  0  0.108469  0.112828  0  1.017558  0
H  H7  1  0.93861806  0.42948327  0.40801291  1  0  0.104153  0  0.95671  0  0  0.114743  0  1.016916  0  0  0.117019  0  1.017397  0  0  0.108465  0.112831  0  1.017474  0
H  H8  1  0.33655014  0.71788223  0.65015239  1  0  0.093815  0  0.958657  0  0  0.103636  0  1.020262  0  0  0.104696  0  1.021535  0  0  0.106324  0.103116  0  1.018872  0
H  H9  1  0.66344280  0.28211350  0.34985081  1  0  0.093811  0  0.958657  0  0  0.103626  0  1.020282  0  0  0.104689  0  1.02155  0  0  0.106312  0.103111  0  1.01888  0
H  H10  1  0.54831726  0.62840224  0.63940449  1  0  0.134616  0  0.98344  0  0  0.142576  0  1.04356  0  0  0.146771  0  1.040877  0  0  0.112193  0.139436  0  1.045918  0
H  H11  1  0.45167906  0.37159633  0.36059499  1  0  0.134635  0  0.983421  0  0  0.142603  0  1.043518  0  0  0.146797  0  1.040837  0  0  0.112192  0.139461  0  1.045877  0
H  H12  1  0.70443270  0.53191674  0.65013470  1  0  0.136484  0  0.953989  0  0  0.143883  0  1.015299  0  0  0.148023  0  1.012638  0  0  0.115057  0.140641  0  1.017594  0
H  H13  1  0.29556527  0.46808569  0.34986293  1  0  0.136423  0  0.954124  0  0  0.143822  0  1.015427  0  0  0.147962  0  1.012766  0  0  0.115023  0.140582  0  1.017711  0
H  H14  1  0.87815613  0.40551785  0.64422642  1  0  0.096106  0  0.941031  0  0  0.1083  0  0.998545  0  0  0.110775  0  0.997124  0  0  0.110489  0.106327  0  0.999223  0
H  H15  1  0.12183882  0.59448263  0.35577025  1  0  0.0962  0  0.940867  0  0  0.108376  0  0.998391  0  0  0.110851  0  0.996969  0  0  0.110539  0.106399  0  0.999068  0
H  H16  1  0.78211911  0.17448505  0.55714397  1  0  0.12724  0  0.955392  0  0  0.134805  0  1.015404  0  0  0.138474  0  1.013833  0  0  0.111754  0.132024  0  1.017445  0
H  H17  1  0.21787828  0.82551350  0.44285436  1  0  0.127257  0  0.955346  0  0  0.134831  0  1.015348  0  0  0.1385  0  1.013778  0  0  0.111771  0.132044  0  1.017393  0
H  H18  1  0.50715070  0.08307125  0.48157998  1  0  0.074374  0  0.947878  0  0  0.082402  0  1.01233  0  0  0.084495  0  1.011069  0  0  0.115933  0.080813  0  1.013325  0
H  H19  1  0.49284327  0.91692441  0.51841966  1  0  0.074382  0  0.947867  0  0  0.08242  0  1.012314  0  0  0.084513  0  1.011051  0  0  0.115932  0.080832  0  1.01331  0
H  H20  1  0.24166050  0.19719589  0.20657529  1  0  0.109861  0  0.961613  0  0  0.114586  0  1.030225  0  0  0.118793  0  1.026891  0  0  0.102366  0.111659  0  1.032151  0
H  H21  1  0.75834270  0.80280852  0.79342640  1  0  0.109788  0  0.961791  0  0  0.114563  0  1.030343  0  0  0.118769  0  1.02701  0  0  0.102369  0.111638  0  1.032271  0
H  H22  1  0.23775533  0.08786395  0.05973770  1  0  0.081261  0  0.994074  0  0  0.090447  0  1.056348  0  0  0.092231  0  1.058402  0  0  0.091546  0.089039  0  1.055407  0
H  H23  1  0.76223683  0.91213758  0.94026259  1  0  0.081297  0  0.994049  0  0  0.090479  0  1.056326  0  0  0.092263  0  1.058379  0  0  0.091539  0.08907  0  1.055386  0
H  H24  1  0.22340695  0.85627612  0.02545209  1  0  0.10512  0  0.946292  0  0  0.113692  0  1.009566  0  0  0.117754  0  1.006011  0  0  0.105662  0.11054  0  1.012458  0
H  H25  1  0.77659036  0.14372728  0.97454563  1  0  0.105162  0  0.946317  0  0  0.113748  0  1.009587  0  0  0.117808  0  1.006027  0  0  0.105692  0.110597  0  1.012478  0
H  H26  1  0.20625589  0.84311945  0.28061761  1  0  0.111118  0  0.95637  0  0  0.117708  0  1.023098  0  0  0.121989  0  1.019611  0  0  0.105223  0.114586  0  1.025748  0
H  H27  1  0.79374868  0.15687810  0.71938208  1  0  0.111126  0  0.956366  0  0  0.117691  0  1.023125  0  0  0.121974  0  1.019632  0  0  0.105226  0.114569  0  1.025775  0
H  H28  1  0.57554346  0.94760773  0.31220982  1  0  0.097068  0  0.94698  0  0  0.106052  0  1.011251  0  0  0.109527  0  1.008969  0  0  0.101033  0.103547  0  1.01288  0
H  H29  1  0.42445806  0.05239280  0.68779252  1  0  0.097103  0  0.947  0  0  0.106095  0  1.011259  0  0  0.109565  0  1.008982  0  0  0.101047  0.103593  0  1.012873  0
H  H30  1  0.48932253  0.01669020  0.18908505  1  0  0.080565  0  1.021019  0  0  0.087874  0  1.087736  0  0  0.088579  0  1.091381  0  0  0.091693  0.087816  0  1.084183  0
H  H31  1  0.51068117  0.98331033  0.81091737  1  0  0.080557  0  1.021053  0  0  0.087852  0  1.087789  0  0  0.088556  0  1.091435  0  0  0.091683  0.087793  0  1.084238  0
H  H32  1  0.68161708  0.18385926  0.13283905  1  0  0.099182  0  0.948016  0  0  0.109037  0  1.009481  0  0  0.112771  0  1.006637  0  0  0.10244  0.106122  0  1.011957  0
H  H33  1  0.31838710  0.81613735  0.86716231  1  0  0.099185  0  0.94798  0  0  0.109072  0  1.009411  0  0  0.112805  0  1.00657  0  0  0.102459  0.106159  0  1.011885  0
H  H34  1  0.03718069  0.22675441  0.32961227  1  0  0.119917  0  0.985101  0  0  0.124952  0  1.054238  0  0  0.12905  0  1.051128  0  0  0.106748  0.122051  0  1.056166  0
H  H35  1  0.96282325  0.77324416  0.67038992  1  0  0.119927  0  0.985102  0  0  0.124948  0  1.054245  0  0  0.129046  0  1.051136  0  0  0.106756  0.122047  0  1.056178  0
H  H36  1  0.52070796  0.69458628  0.27321278  1  0  0.081066  0  0.9366  0  0  0.090305  0  0.999266  0  0  0.092305  0  0.998276  0  0  0.118431  0.088435  0  1.000777  0
H  H37  1  0.47929102  0.30540838  0.72678694  1  0  0.081031  0  0.936633  0  0  0.090275  0  0.999306  0  0  0.092274  0  0.998314  0  0  0.118403  0.088417  0  1.000796  0
H  H38  1  0.80753949  0.74611134  0.29451520  1  0  0.121635  0  0.942917  0  0  0.131231  0  0.999763  0  0  0.134573  0  0.998848  0  0  0.112303  0.128693  0  1.000692  0
H  H39  1  0.19245738  0.25389107  0.70548118  1  0  0.121615  0  0.942936  0  0  0.131218  0  0.999779  0  0  0.134561  0  0.998865  0  0  0.112311  0.128678  0  1.00071  0
H  H40  1  0.91712840  0.59999580  0.20134236  1  0  0.110432  0  0.942286  0  0  0.120598  0  0.998849  0  0  0.12324  0  0.997411  0  0  0.112081  0.118351  0  1.000405  0
H  H41  1  0.08287685  0.40001340  0.79865520  1  0  0.110408  0  0.942296  0  0  0.120589  0  0.998828  0  0  0.12323  0  0.99739  0  0  0.112125  0.118345  0  1.000377  0
H  H42  1  0.73886120  0.42283859  0.08858927  1  0  0.139254  0  0.947582  0  0  0.146759  0  1.008723  0  0  0.150616  0  1.006315  0  0  0.117762  0.143928  0  1.010498  0
H  H43  1  0.26114392  0.57716776  0.91141273  1  0  0.139274  0  0.947503  0  0  0.146796  0  1.008634  0  0  0.150653  0  1.006228  0  0  0.117787  0.143963  0  1.010407  0
H  H44  1  0.57733221  0.29342445  0.98847089  1  0  0.12823  0  0.991221  0  0  0.136042  0  1.052893  0  0  0.139897  0  1.051  0  0  0.111671  0.133023  0  1.054929  0
H  H45  1  0.42267046  0.70657119  0.01153030  1  0  0.128205  0  0.991268  0  0  0.136007  0  1.052948  0  0  0.139861  0  1.051062  0  0  0.111644  0.132989  0  1.054979  0
H  H46  1  0.36820897  0.13540930  0.87776127  1  0  0.092965  0  0.961462  0  0  0.10591  0  1.017205  0  0  0.107519  0  1.017298  0  0  0.105606  0.104629  0  1.017386  0
H  H47  1  0.63179252  0.86459119  0.12223806  1  0  0.092933  0  0.961499  0  0  0.105888  0  1.017238  0  0  0.107495  0  1.017331  0  0  0.105598  0.104611  0  1.017414  0
H  H48  1  0.09267780  0.12722214  0.87977920  1  0  0.109226  0  0.954759  0  0  0.118359  0  1.013913  0  0  0.120087  0  1.016187  0  0  0.109911  0.117254  0  1.01224  0
H  H49  1  0.90732469  0.87278318  0.12021837  1  0  0.109194  0  0.954741  0  0  0.118381  0  1.013834  0  0  0.120108  0  1.016108  0  0  0.10994  0.117274  0  1.01216  0
H  H50  1  0.03907402  0.27843756  0.99742587  1  0  0.09661  0  0.957265  0  0  0.102507  0  1.023525  0  0  0.104593  0  1.022158  0  0  0.121888  0.100676  0  1.02514  0
H  H51  1  0.96093064  0.72156776  0.00257239  1  0  0.096586  0  0.957292  0  0  0.1025  0  1.023522  0  0  0.104585  0  1.022156  0  0  0.121891  0.100668  0  1.025134  0
C  C52  1  0.12834649  0.40384690  0.55254851  1  0  0.127327  0  3.707327  0  0  0.096849  0  3.956182  0  0  0.103248  0  3.974642  0  0  0.048833  0.093953  0  3.941982  0
C  C53  1  0.87164318  0.59614883  0.44745336  1  0  0.127373  0  3.707354  0  0  0.096914  0  3.956227  0  0  0.103283  0  3.974671  0  0  0.048792  0.094017  0  3.942027  0
C  C54  1  0.15681648  0.53390149  0.58907414  1  0  -0.130459  0  3.742784  0  0  -0.143812  0  3.995676  0  0  -0.151349  0  4.019118  0  0  -0.083669  -0.139138  0  3.980055  0
C  C55  1  0.84317255  0.46609526  0.41093022  1  0  -0.130479  0  3.743164  0  0  -0.143789  0  3.99605  0  0  -0.151328  0  4.019506  0  0  -0.083628  -0.139113  0  3.980427  0
C  C56  1  0.30947226  0.61536898  0.62155506  1  0  0.010111  0  3.709811  0  0  -0.007642  0  3.958358  0  0  -0.004375  0  3.978669  0  0  -0.062582  -0.009344  0  3.944212  0
C  C57  1  0.69052600  0.38463156  0.37844595  1  0  0.010105  0  3.710028  0  0  -0.007657  0  3.958536  0  0  -0.004391  0  3.978848  0  0  -0.062593  -0.00936  0  3.944393  0
C  C58  1  0.42796833  0.56451383  0.61655907  1  0  -0.136522  0  3.659785  0  0  -0.156319  0  3.907106  0  0  -0.163063  0  3.926906  0  0  -0.077702  -0.152405  0  3.894472  0
C  C59  1  0.57202947  0.43548568  0.38343879  1  0  -0.136541  0  3.659676  0  0  -0.156312  0  3.906928  0  0  -0.163056  0  3.926726  0  0  -0.077676  -0.152397  0  3.894292  0
C  C60  1  0.39033076  0.43260191  0.57968935  1  0  0.175696  0  3.756884  0  0  0.168333  0  4.002539  0  0  0.174503  0  4.024048  0  0  0.121676  0.164606  0  3.98788  0
C  C61  1  0.60966340  0.56739669  0.42031125  1  0  0.175758  0  3.756803  0  0  0.168413  0  4.002402  0  0  0.174582  0  4.023909  0  0  0.121714  0.164686  0  3.987744  0
C  C62  1  0.50869706  0.37005352  0.57330236  1  0  0.165614  0  3.777601  0  0  0.162808  0  4.020527  0  0  0.168308  0  4.041773  0  0  0.119835  0.159042  0  4.005816  0
C  C63  1  0.49129816  0.62994504  0.42669588  1  0  0.165592  0  3.777703  0  0  0.162773  0  4.020672  0  0  0.168279  0  4.041919  0  0  0.119916  0.159004  0  4.005959  0
C  C64  1  0.66238002  0.43204361  0.61352667  1  0  -0.138317  0  3.657289  0  0  -0.158691  0  3.908406  0  0  -0.164927  0  3.928177  0  0  -0.074896  -0.153325  0  3.893822  0
C  C65  1  0.33761370  0.56795399  0.38647200  1  0  -0.138292  0  3.657298  0  0  -0.158658  0  3.908404  0  0  -0.164893  0  3.928173  0  0  -0.074927  -0.15329  0  3.893818  0
C  C66  1  0.76111036  0.36094250  0.60939836  1  0  0.006956  0  3.708432  0  0  -0.012394  0  3.961673  0  0  -0.009012  0  3.97987  0  0  -0.062959  -0.013695  0  3.948273  0
C  C67  1  0.23888613  0.63905899  0.39060089  1  0  0.006862  0  3.708397  0  0  -0.012453  0  3.96162  0  0  -0.009072  0  3.97982  0  0  -0.063031  -0.013749  0  3.948211  0
C  C68  1  0.70860505  0.23337814  0.56184414  1  0  -0.119834  0  3.697881  0  0  -0.131986  0  3.948322  0  0  -0.138801  0  3.969503  0  0  -0.079897  -0.129446  0  3.936156  0
C  C69  1  0.29138919  0.76661561  0.43815707  1  0  -0.119884  0  3.697913  0  0  -0.132033  0  3.948326  0  0  -0.138852  0  3.969509  0  0  -0.079898  -0.129493  0  3.93616  0
C  C70  1  0.55552960  0.18099039  0.52127061  1  0  0.134479  0  3.709957  0  0  0.105175  0  3.962973  0  0  0.110861  0  3.981854  0  0  0.051475  0.101481  0  3.95138  0
C  C71  1  0.44446196  0.81900724  0.47872917  1  0  0.134475  0  3.709825  0  0  0.105158  0  3.962867  0  0  0.11085  0  3.981748  0  0  0.051448  0.101461  0  3.951275  0
C  C72  1  0.23312931  0.09357651  0.34016143  1  0  0.622367  0  3.928589  0  0  0.575774  0  4.214427  0  0  0.608809  0  4.209981  0  0  0.196693  0.554016  0  4.214968  0
C  C73  1  0.76686677  0.90642402  0.65983829  1  0  0.622265  0  3.928689  0  0  0.575628  0  4.214548  0  0  0.608665  0  4.210103  0  0  0.196667  0.553868  0  4.215092  0
C  C74  1  0.22617368  0.02718287  0.25234028  1  0  -0.066019  0  3.773856  0  0  -0.039871  0  4.005828  0  0  -0.04943  0  4.02958  0  0  -0.018843  -0.033422  0  3.987602  0
C  C75  1  0.77382680  0.97281275  0.74765901  1  0  -0.06614  0  3.77378  0  0  -0.03993  0  4.005687  0  0  -0.049494  0  4.02944  0  0  -0.0189  -0.033476  0  3.987462  0
C  C76  1  0.23445968  0.09612001  0.18989965  1  0  -0.059737  0  3.701129  0  0  -0.086099  0  3.950185  0  0  -0.08362  0  3.967611  0  0  -0.080693  -0.086724  0  3.936346  0
C  C77  1  0.76553883  0.90387858  0.81010173  1  0  -0.059595  0  3.701201  0  0  -0.086029  0  3.950239  0  0  -0.083545  0  3.967665  0  0  -0.080664  -0.086656  0  3.936401  0
C  C78  1  0.23197098  0.03466967  0.10832700  1  0  -0.088374  0  3.780709  0  0  -0.094919  0  4.027491  0  0  -0.099237  0  4.04853  0  0  -0.097945  -0.092438  0  4.013574  0
C  C79  1  0.76802510  0.96533088  0.89167392  1  0  -0.088469  0  3.780648  0  0  -0.095006  0  4.027448  0  0  -0.099331  0  4.04849  0  0  -0.097961  -0.092523  0  4.01353  0
C  C80  1  0.22342700  0.90534952  0.08867590  1  0  -0.071488  0  3.726841  0  0  -0.094792  0  3.97224  0  0  -0.0925  0  3.989244  0  0  -0.080232  -0.096044  0  3.960899  0
C  C81  1  0.77657202  0.09465782  0.91132477  1  0  -0.071567  0  3.726707  0  0  -0.09492  0  3.972088  0  0  -0.092617  0  3.989082  0  0  -0.080281  -0.096167  0  3.960742  0
C  C82  1  0.21309117  0.83557984  0.15082478  1  0  -0.084083  0  3.785893  0  0  -0.05805  0  4.019115  0  0  -0.067541  0  4.042416  0  0  -0.024702  -0.052132  0  4.0034  0
C  C83  1  0.78690984  0.16441960  0.84917021  1  0  -0.084046  0  3.785768  0  0  -0.057928  0  4.018898  0  0  -0.067422  0  4.042204  0  0  -0.024708  -0.052011  0  4.003183  0
C  C84  1  0.21305471  0.89667114  0.23223156  1  0  -0.073768  0  3.702854  0  0  -0.107585  0  3.947245  0  0  -0.104118  0  3.964118  0  0  -0.078737  -0.109681  0  3.935485  0
C  C85  1  0.78694440  0.10332639  0.76776491  1  0  -0.073663  0  3.702819  0  0  -0.107511  0  3.94717  0  0  -0.104035  0  3.964031  0  0  -0.078688  -0.10961  0  3.935416  0
C  C86  1  0.20815488  0.69809109  0.13114210  1  0  0.616921  0  3.939893  0  0  0.571165  0  4.225077  0  0  0.60445  0  4.220034  0  0  0.193714  0.548542  0  4.227984  0
C  C87  1  0.79185132  0.30191028  0.86885334  1  0  0.616877  0  3.939905  0  0  0.571052  0  4.225147  0  0  0.604335  0  4.220112  0  0  0.193665  0.54843  0  4.228052  0
C  C88  1  0.86379134  0.04203201  0.40348679  1  0  0.679928  0  3.870817  0  0  0.626346  0  4.163337  0  0  0.662235  0  4.153903  0  0  0.219338  0.601816  0  4.169084  0
C  C89  1  0.13620820  0.95797146  0.59651583  1  0  0.679875  0  3.870916  0  0  0.626316  0  4.163403  0  0  0.6622  0  4.153967  0  0  0.219286  0.601786  0  4.169151  0
C  C90  1  0.81154138  0.08312189  0.32904861  1  0  -0.080243  0  3.760943  0  0  -0.052378  0  3.993879  0  0  -0.061815  0  4.016947  0  0  -0.021862  -0.046011  0  3.977972  0
C  C91  1  0.18846141  0.91688157  0.67095414  1  0  -0.080057  0  3.760802  0  0  -0.052272  0  3.993804  0  0  -0.061688  0  4.016839  0  0  -0.02186  -0.045907  0  3.977896  0
C  C92  1  0.65743159  0.02320163  0.28857195  1  0  -0.067527  0  3.732038  0  0  -0.095505  0  3.982843  0  0  -0.09314  0  4.000262  0  0  -0.084263  -0.096685  0  3.970683  0
C  C93  1  0.34256825  0.97679500  0.71142924  1  0  -0.067701  0  3.732238  0  0  -0.09567  0  3.983064  0  0  -0.09331  0  4.000483  0  0  -0.08428  -0.096843  0  3.970904  0
C  C94  1  0.60959742  0.06133225  0.21933629  1  0  -0.097039  0  3.808757  0  0  -0.105552  0  4.061083  0  0  -0.109494  0  4.082663  0  0  -0.100763  -0.103232  0  4.04561  0
C  C95  1  0.39040519  0.93866828  0.78066609  1  0  -0.096919  0  3.808655  0  0  -0.105406  0  4.060957  0  0  -0.109346  0  4.082538  0  0  -0.100738  -0.10309  0  4.045488  0
C  C96  1  0.71613232  0.15525208  0.18800702  1  0  -0.065764  0  3.731716  0  0  -0.091344  0  3.975912  0  0  -0.089113  0  3.993437  0  0  -0.082347  -0.092774  0  3.964768  0
C  C97  1  0.28386597  0.84474353  0.81199098  1  0  -0.065976  0  3.731847  0  0  -0.091615  0  3.976068  0  0  -0.089386  0  3.993594  0  0  -0.082452  -0.093046  0  3.96492  0
C  C98  1  0.87089810  0.21448332  0.22730449  1  0  -0.066607  0  3.768438  0  0  -0.039386  0  3.998959  0  0  -0.048732  0  4.022582  0  0  -0.020714  -0.033774  0  3.98333  0
C  C99  1  0.12910823  0.78551325  0.77269575  1  0  -0.066414  0  3.7685  0  0  -0.03916  0  3.998975  0  0  -0.048506  0  4.022601  0  0  -0.020638  -0.033548  0  3.983344  0
C  C100  1  0.91693509  0.18061904  0.29905687  1  0  -0.078466  0  3.682786  0  0  -0.114977  0  3.929107  0  0  -0.112439  0  3.948055  0  0  -0.081244  -0.116458  0  3.915284  0
C  C101  1  0.08306665  0.81937950  0.70094284  1  0  -0.078543  0  3.68264  0  0  -0.115024  0  3.928962  0  0  -0.112492  0  3.947904  0  0  -0.081256  -0.116506  0  3.91514  0
C  C102  1  0.98576797  0.31058124  0.19057241  1  0  0.619771  0  3.927783  0  0  0.573982  0  4.210613  0  0  0.607618  0  4.205661  0  0  0.195799  0.551468  0  4.212798  0
C  C103  1  0.01423613  0.68942022  0.80942835  1  0  0.619706  0  3.927674  0  0  0.573884  0  4.21055  0  0  0.607524  0  4.205595  0  0  0.195748  0.551373  0  4.212733  0
C  C104  1  0.57350657  0.63617977  0.23407349  1  0  0.138137  0  3.706887  0  0  0.105202  0  3.965129  0  0  0.111962  0  3.983851  0  0  0.051267  0.100721  0  3.953099  0
C  C105  1  0.42649709  0.36382070  0.76592593  1  0  0.138142  0  3.706716  0  0  0.10519  0  3.964971  0  0  0.111956  0  3.98369  0  0  0.05126  0.100703  0  3.95293  0
C  C106  1  0.73365411  0.66370538  0.24560218  1  0  -0.114967  0  3.70597  0  0  -0.130073  0  3.960948  0  0  -0.136839  0  3.982199  0  0  -0.079098  -0.125728  0  3.946679  0
C  C107  1  0.26635012  0.33629895  0.75439534  1  0  -0.114938  0  3.705922  0  0  -0.130052  0  3.96091  0  0  -0.13682  0  3.982162  0  0  -0.079081  -0.125707  0  3.946645  0
C  C108  1  0.79289599  0.58382322  0.19381415  1  0  0.005852  0  3.685142  0  0  -0.010289  0  3.933064  0  0  -0.007115  0  3.951933  0  0  -0.059355  -0.011965  0  3.920093  0
C  C109  1  0.20710909  0.41618308  0.80618485  1  0  0.00591  0  3.684991  0  0  -0.010231  0  3.932907  0  0  -0.007055  0  3.951778  0  0  -0.059377  -0.011903  0  3.919934  0
C  C110  1  0.69205517  0.48329396  0.13023996  1  0  -0.123378  0  3.644824  0  0  -0.14272  0  3.889384  0  0  -0.149421  0  3.910381  0  0  -0.06751  -0.138101  0  3.8749  0
C  C111  1  0.30795324  0.51670744  0.86975856  1  0  -0.123543  0  3.644859  0  0  -0.142918  0  3.889482  0  0  -0.149623  0  3.910486  0  0  -0.0676  -0.138297  0  3.874997  0
C  C112  1  0.53287665  0.46342312  0.12152468  1  0  0.168344  0  3.755454  0  0  0.16631  0  3.992595  0  0  0.171728  0  4.01503  0  0  0.119403  0.16282  0  3.977051  0
C  C113  1  0.46712359  0.53657447  0.87847544  1  0  0.16854  0  3.755276  0  0  0.16649  0  3.992443  0  0  0.171911  0  4.014877  0  0  0.119468  0.163001  0  3.976901  0
C  C114  1  0.41675453  0.36486248  0.05339542  1  0  0.176479  0  3.75045  0  0  0.170372  0  3.990878  0  0  0.177199  0  4.01206  0  0  0.120967  0.166019  0  3.976193  0
C  C115  1  0.58325172  0.63513896  0.94660423  1  0  0.176486  0  3.750389  0  0  0.170411  0  3.990816  0  0  0.177242  0  4.011992  0  0  0.120932  0.166055  0  3.976139  0
C  C116  1  0.45645108  0.28513474  0.99034619  1  0  -0.140781  0  3.672173  0  0  -0.160742  0  3.919724  0  0  -0.168149  0  3.939981  0  0  -0.076935  -0.156117  0  3.906548  0
C  C117  1  0.54355241  0.71486281  0.00965346  1  0  -0.140819  0  3.672181  0  0  -0.160764  0  3.919746  0  0  -0.168176  0  3.940003  0  0  -0.076844  -0.156136  0  3.906569  0
C  C118  1  0.33962634  0.19845293  0.92739587  1  0  0.005269  0  3.708841  0  0  -0.011763  0  3.953644  0  0  -0.0077  0  3.971645  0  0  -0.06237  -0.014302  0  3.94175  0
C  C119  1  0.66037499  0.80154465  0.07260429  1  0  0.005286  0  3.708899  0  0  -0.011772  0  3.953746  0  0  -0.007706  0  3.971745  0  0  -0.062433  -0.014314  0  3.941849  0
C  C120  1  0.18657794  0.19329938  0.92818196  1  0  -0.119461  0  3.724203  0  0  -0.130069  0  3.97355  0  0  -0.137175  0  3.995538  0  0  -0.077608  -0.125846  0  3.959253  0
C  C121  1  0.81342478  0.80670397  0.07181478  1  0  -0.119446  0  3.724264  0  0  -0.130084  0  3.973607  0  0  -0.137189  0  3.995594  0  0  -0.077644  -0.125858  0  3.959306  0
C  C122  1  0.15520737  0.27594498  0.99263950  1  0  0.141793  0  3.675579  0  0  0.108364  0  3.925189  0  0  0.11547  0  3.943362  0  0  0.058774  0.103708  0  3.913544  0
C  C123  1  0.84479540  0.72405845  0.00736144  1  0  0.141843  0  3.675489  0  0  0.108415  0  3.925122  0  0  0.11552  0  3.943297  0  0  0.058788  0.103763  0  3.913476  0
N  N124  1  0.47557368  0.53727933  0.17480671  1  0  -0.359948  0  3.274409  0  0  -0.285423  0  3.543062  0  0  -0.304386  0  3.559105  0  0  -0.321094  -0.272754  0  3.532358  0
N  N125  1  0.52443257  0.46272210  0.82519293  1  0  -0.359972  0  3.274152  0  0  -0.285434  0  3.542813  0  0  -0.304406  0  3.558862  0  0  -0.321103  -0.272767  0  3.532118  0
N  N126  1  0.26754326  0.35859108  0.05346890  1  0  -0.351527  0  3.3088  0  0  -0.270404  0  3.577402  0  0  -0.28995  0  3.591624  0  0  -0.323681  -0.257254  0  3.567709  0
N  N127  1  0.73245997  0.64140840  0.94652918  1  0  -0.35155  0  3.308719  0  0  -0.270492  0  3.577406  0  0  -0.290038  0  3.591622  0  0  -0.323679  -0.257345  0  3.567719  0
N  N128  1  0.24195655  0.35424928  0.54842198  1  0  -0.343895  0  3.272707  0  0  -0.268496  0  3.536401  0  0  -0.286964  0  3.551951  0  0  -0.315352  -0.255398  0  3.52458  0
N  N129  1  0.75803870  0.64574933  0.45157926  1  0  -0.343947  0  3.272745  0  0  -0.268538  0  3.536424  0  0  -0.287007  0  3.551983  0  0  -0.315383  -0.255444  0  3.524612  0
N  N130  1  0.45754884  0.24610899  0.52869158  1  0  -0.344916  0  3.285013  0  0  -0.276963  0  3.544591  0  0  -0.293682  0  3.561196  0  0  -0.31625  -0.266565  0  3.534061  0
N  N131  1  0.54244539  0.75388475  0.47130903  1  0  -0.344838  0  3.285068  0  0  -0.276927  0  3.544705  0  0  -0.293662  0  3.561324  0  0  -0.316235  -0.26652  0  3.534169  0
O  O132  1  0.26013906  0.21437799  0.35892787  1  0  -0.616067  0  1.991745  0  0  -0.565306  0  2.227771  0  0  -0.588841  0  2.218377  0  0  -0.313506  -0.548869  0  2.233318  0
O  O133  1  0.73986703  0.78562055  0.64107321  1  0  -0.61605  0  1.991775  0  0  -0.565237  0  2.227773  0  0  -0.588775  0  2.21838  0  0  -0.313488  -0.548797  0  2.233322  0
O  O134  1  0.20781730  0.02256494  0.39382239  1  0  -0.641001  0  1.997103  0  0  -0.575563  0  2.250265  0  0  -0.6045  0  2.239247  0  0  -0.332233  -0.555138  0  2.256753  0
O  O135  1  0.79218245  0.97743655  0.60617820  1  0  -0.640956  0  1.997121  0  0  -0.575495  0  2.250268  0  0  -0.604435  0  2.239253  0  0  -0.332218  -0.555069  0  2.256757  0
O  O136  1  0.21918808  0.64423365  0.05992617  1  0  -0.596953  0  1.930227  0  0  -0.549392  0  2.153441  0  0  -0.571891  0  2.14379  0  0  -0.31315  -0.53306  0  2.159799  0
O  O137  1  0.78080745  0.35577071  0.94006980  1  0  -0.596988  0  1.930013  0  0  -0.549399  0  2.153228  0  0  -0.571908  0  2.143596  0  0  -0.313132  -0.533062  0  2.159584  0
O  O138  1  0.19540310  0.64110558  0.19264412  1  0  -0.643923  0  2.045099  0  0  -0.570988  0  2.310896  0  0  -0.600753  0  2.297746  0  0  -0.33391  -0.550096  0  2.320035  0
O  O139  1  0.80460321  0.35889096  0.80735433  1  0  -0.643855  0  2.045324  0  0  -0.570855  0  2.311055  0  0  -0.600617  0  2.297909  0  0  -0.333842  -0.549965  0  2.320196  0
O  O140  1  0.79344955  0.92319640  0.40543880  1  0  -0.634637  0  2.062825  0  0  -0.568885  0  2.335007  0  0  -0.596203  0  2.319826  0  0  -0.317524  -0.549847  0  2.344754  0
O  O141  1  0.20654874  0.07680417  0.59456461  1  0  -0.634583  0  2.062903  0  0  -0.568817  0  2.335043  0  0  -0.596135  0  2.319869  0  0  -0.31747  -0.54978  0  2.344787  0
O  O142  1  0.96955758  0.12655210  0.45873714  1  0  -0.647094  0  2.080453  0  0  -0.582946  0  2.35216  0  0  -0.60827  0  2.335486  0  0  -0.320188  -0.565525  0  2.363644  0
O  O143  1  0.03044437  0.87344941  0.54126533  1  0  -0.647155  0  2.080535  0  0  -0.58296  0  2.35215  0  0  -0.608293  0  2.335486  0  0  -0.320162  -0.565541  0  2.363634  0
O  O144  1  0.12734323  0.36436852  0.22960380  1  0  -0.635755  0  2.023739  0  0  -0.560695  0  2.281773  0  0  -0.589739  0  2.268304  0  0  -0.326773  -0.540807  0  2.290419  0
O  O145  1  0.87266045  0.63563197  0.77039682  1  0  -0.635702  0  2.023731  0  0  -0.560629  0  2.28177  0  0  -0.589676  0  2.2683  0  0  -0.326732  -0.540739  0  2.290407  0
O  O146  1  0.94499400  0.33487045  0.12355985  1  0  -0.612477  0  1.923624  0  0  -0.562821  0  2.152881  0  0  -0.586527  0  2.142862  0  0  -0.31559  -0.545765  0  2.158611  0
O  O147  1  0.05501039  0.66512417  0.87643948  1  0  -0.612482  0  1.923472  0  0  -0.562825  0  2.152748  0  0  -0.586522  0  2.142708  0  0  -0.315588  -0.54577  0  2.158476  0
