# generated using pymatgen
data_Zn2H28C40(N2O3)3
_symmetry_space_group_name_H-M   'P 1'
_cell_length_a   9.46915709
_cell_length_b   19.60418375
_cell_length_c   19.60184714
_cell_angle_alpha   117.45834336
_cell_angle_beta   99.27297873
_cell_angle_gamma   99.28089074
_symmetry_Int_Tables_number   1
_chemical_formula_structural   Zn2H28C40(N2O3)3
_chemical_formula_sum   'Zn6 H84 C120 N18 O27'
_cell_volume   3069.21264668
_cell_formula_units_Z   3
loop_
 _symmetry_equiv_pos_site_id
 _symmetry_equiv_pos_as_xyz
  1  'x, y, z'
loop_
 _atom_site_type_symbol
 _atom_site_label
 _atom_site_symmetry_multiplicity
 _atom_site_fract_x
 _atom_site_fract_y
 _atom_site_fract_z
 _atom_site_occupancy
 _atom_site_pbe_bader_charge
 _atom_site_pbe_bader_spin_density
 _atom_site_pbe_cm5_charge
 _atom_site_pbe_ddec_charge
 _atom_site_pbe_ddec_spin_density
 _atom_site_pbe_ddec_sum_bond_order
 _atom_site_pbe_magmom
Zn  Zn0  1  0.81477386  0.37790351  0.53577919  1  1.245637  0  0.709435  0.769671  0  2.37579  0
Zn  Zn1  1  0.27864970  0.46416845  0.84205795  1  1.246356  0  0.708502  0.767424  0  2.375871  0
Zn  Zn2  1  0.43637001  0.15789047  0.62214277  1  1.245642  0  0.709459  0.769671  0  2.374166  0
Zn  Zn3  1  0.36234707  0.73470080  0.86486462  1  1.310176  0  0.670495  0.845968  0  2.266285  0
Zn  Zn4  1  0.49671760  0.13496097  0.86982399  1  1.310543  0  0.671546  0.848433  0  2.262645  0
Zn  Zn5  1  0.62744706  0.13018976  0.26518566  1  1.310841  0  0.671204  0.8474  0  2.262345  0
H  H6  1  0.83482004  0.73801948  0.95970578  1  0.098376  0  0.104362  0.107845  0  1.001459  0
H  H7  1  0.87480864  0.04030429  0.77856871  1  0.101018  0  0.104251  0.107802  0  1.001039  0
H  H8  1  0.09700285  0.22166193  0.26173078  1  0.075558  0  0.103997  0.10727  0  1.000863  0
H  H9  1  0.66407056  0.57517304  0.70777511  1  0.098243  0  0.104249  0.113025  0  1.021998  0
H  H10  1  0.95558649  0.29215429  0.86737374  1  0.108256  0  0.103323  0.110963  0  1.023033  0
H  H11  1  0.08874088  0.13266567  0.42461786  1  0.113331  0  0.104338  0.113521  0  1.021903  0
H  H12  1  0.07198001  0.69652129  0.95727965  1  0.106004  0  0.102412  0.112072  0  1.012713  0
H  H13  1  0.11432076  0.04289012  0.73949437  1  0.092659  0  0.101815  0.111523  0  1.011127  0
H  H14  1  0.37565835  0.26073918  0.30342736  1  0.086811  0  0.101777  0.111005  0  1.013133  0
H  H15  1  0.48753624  0.62984882  0.93948363  1  0.175596  0  0.120817  0.104785  0  1.037843  0
H  H16  1  0.54714290  0.06055748  0.69036661  1  0.206071  0  0.120697  0.104494  0  1.037644  0
H  H17  1  0.85784293  0.30968355  0.37026653  1  0.192845  0  0.121208  0.105144  0  1.036801  0
H  H18  1  0.30277217  0.45655625  0.98977170  1  0.121428  0  0.122416  0.096084  0  0.985285  0
H  H19  1  0.31293874  0.00996064  0.46649818  1  0.096415  0  0.122758  0.096324  0  0.984506  0
H  H20  1  0.84708404  0.53338400  0.54352967  1  0.136482  0  0.122777  0.096869  0  0.984574  0
H  H21  1  0.90234161  0.78677555  0.73877742  1  0.068255  0  0.113627  0.122822  0  0.98521  0
H  H22  1  0.16291742  0.26096963  0.04791180  1  0.078419  0  0.113093  0.12094  0  0.986558  0
H  H23  1  0.11532273  0.95204777  0.21293786  1  0.102958  0  0.113348  0.121181  0  0.985964  0
H  H24  1  0.22908682  0.73279699  0.60428056  1  0.05739  0  0.099652  0.102132  0  1.039675  0
H  H25  1  0.62414474  0.39567815  0.12843522  1  0.066896  0  0.09979  0.102265  0  1.039709  0
H  H26  1  0.49586159  0.87154725  0.26718115  1  0.063516  0  0.100358  0.10311  0  1.039926  0
H  H27  1  0.41241222  0.54619429  0.13457959  1  0.065547  0  0.102054  0.105048  0  1.04235  0
H  H28  1  0.27794747  0.86520264  0.41149004  1  0.106081  0  0.101948  0.105666  0  1.041533  0
H  H29  1  0.86692595  0.58842588  0.45377534  1  0.059529  0  0.102576  0.10601  0  1.041393  0
H  H30  1  0.59937318  0.72685562  0.08045503  1  0.076542  0  0.115785  0.126034  0  0.990953  0
H  H31  1  0.51872973  0.91968426  0.64650073  1  0.084378  0  0.115612  0.126266  0  0.991321  0
H  H32  1  0.87258207  0.35350392  0.27315723  1  0.10815  0  0.116113  0.126776  0  0.989343  0
H  H33  1  0.35892814  0.70232257  0.70390733  1  0.13615  0  0.120359  0.104754  0  1.012322  0
H  H34  1  0.65443339  0.29598320  0.99846513  1  0.143155  0  0.120956  0.10645  0  1.011038  0
H  H35  1  0.65636073  0.00159057  0.29765918  1  0.157231  0  0.120543  0.105436  0  1.011937  0
H  H36  1  0.05031542  0.75837521  0.83413801  1  0.128948  0  0.118311  0.086673  0  1.004787  0
H  H37  1  0.21559808  0.16560907  0.92423998  1  0.090943  0  0.118226  0.086822  0  1.00682  0
H  H38  1  0.29187460  0.07574926  0.24130128  1  0.12702  0  0.118533  0.088116  0  1.006418  0
H  H39  1  0.76565066  0.19181056  0.45867846  1  0.225185  0  0.141359  0.121491  0  1.032785  0
H  H40  1  0.30660276  0.54101790  0.73296081  1  0.215826  0  0.141145  0.120723  0  1.033839  0
H  H41  1  0.57358562  0.26709634  0.80825098  1  0.216879  0  0.141649  0.122273  0  1.030987  0
H  H42  1  0.11530533  0.24040000  0.65375960  1  0.178105  0  0.126055  0.136318  0  1.030115  0
H  H43  1  0.46210170  0.34629161  0.58683777  1  0.192974  0  0.125784  0.136265  0  1.029482  0
H  H44  1  0.87492033  0.41328098  0.75952611  1  0.17156  0  0.126425  0.137446  0  1.029331  0
H  H45  1  0.09547541  0.38252650  0.65740363  1  0.145066  0  0.116867  0.113158  0  1.047094  0
H  H46  1  0.43844221  0.34270154  0.72532702  1  0.137192  0  0.116725  0.11294  0  1.048879  0
H  H47  1  0.71287935  0.27469913  0.61746663  1  0.1367  0  0.116774  0.113616  0  1.047465  0
H  H48  1  0.10855797  0.11676490  0.58785517  1  0.1802  0  0.107987  0.125453  0  1.073795  0
H  H49  1  0.52054021  0.41189701  0.52872792  1  0.162785  0  0.108758  0.12648  0  1.073238  0
H  H50  1  0.99198625  0.47130200  0.88335477  1  0.152235  0  0.108317  0.125964  0  1.073171  0
H  H51  1  0.66165239  0.08509820  0.46452653  1  0.151541  0  0.110054  0.13327  0  1.042907  0
H  H52  1  0.19768167  0.53553515  0.62073944  1  0.169106  0  0.110068  0.133745  0  1.04287  0
H  H53  1  0.57674512  0.37941866  0.91488263  1  0.13011  0  0.11011  0.133676  0  1.042742  0
H  H54  1  0.60345068  0.94166461  0.42322376  1  0.064729  0  0.097319  0.098615  0  1.036231  0
H  H55  1  0.18097073  0.57695507  0.51872739  1  0.073884  0  0.097024  0.098275  0  1.036424  0
H  H56  1  0.66206852  0.48140428  0.05834463  1  0.066643  0  0.096978  0.098248  0  1.037478  0
H  H57  1  0.04863481  0.97414230  0.54847925  1  0.067106  0  0.10325  0.112736  0  1.004091  0
H  H58  1  0.50004355  0.45134342  0.42552591  1  0.063524  0  0.10369  0.113799  0  1.00485  0
H  H59  1  0.07463221  0.57450324  0.02602737  1  0.057852  0  0.103085  0.112675  0  1.004079  0
H  H60  1  0.90885844  0.87974054  0.69923706  1  0.05581  0  0.110126  0.111448  0  0.990894  0
H  H61  1  0.20865257  0.30091225  0.18053533  1  0.088547  0  0.110981  0.113439  0  0.989323  0
H  H62  1  0.02836527  0.81939069  0.12022330  1  0.075056  0  0.110515  0.112146  0  0.990015  0
H  H63  1  0.79365149  0.92407612  0.60961406  1  0.086218  0  0.107858  0.11555  0  1.010928  0
H  H64  1  0.18377210  0.39057430  0.31461462  1  0.073253  0  0.106403  0.11418  0  1.010862  0
H  H65  1  0.86924341  0.68533310  0.07592930  1  0.089882  0  0.10705  0.114189  0  1.010145  0
H  H66  1  0.92927458  0.75152459  0.41708485  1  0.056584  0  0.100315  0.106543  0  1.032892  0
H  H67  1  0.51233954  0.58290072  0.33437378  1  0.06762  0  0.099923  0.105784  0  1.033411  0
H  H68  1  0.17811586  0.66575875  0.24859120  1  0.063583  0  0.099965  0.106346  0  1.0326  0
H  H69  1  0.04440682  0.70722204  0.50589208  1  0.034258  0  0.098496  0.095495  0  1.032356  0
H  H70  1  0.53800647  0.49402182  0.20113465  1  0.05362  0  0.098263  0.094418  0  1.031843  0
H  H71  1  0.33713478  0.79898053  0.29287495  1  0.047141  0  0.097787  0.094551  0  1.031476  0
H  H72  1  0.58038945  0.72760025  0.39302382  1  0.07988  0  0.100155  0.108602  0  1.035146  0
H  H73  1  0.18770624  0.60695996  0.33470995  1  0.074776  0  0.100201  0.109005  0  1.035128  0
H  H74  1  0.85296479  0.66537216  0.27247126  1  0.067919  0  0.100645  0.109809  0  1.034186  0
H  H75  1  0.84813648  0.88177069  0.33431249  1  0.092032  0  0.112492  0.128282  0  0.980287  0
H  H76  1  0.51382494  0.66587120  0.54782504  1  0.085675  0  0.113024  0.128722  0  0.979773  0
H  H77  1  0.96631759  0.45252067  0.11823183  1  0.077417  0  0.112656  0.129107  0  0.981531  0
H  H78  1  0.73700827  0.78702722  0.19203013  1  0.060267  0  0.106026  0.104349  0  1.01384  0
H  H79  1  0.54496259  0.80811739  0.59528054  1  0.091673  0  0.106269  0.104881  0  1.013803  0
H  H80  1  0.94994397  0.40491206  0.21291901  1  0.077791  0  0.106289  0.105136  0  1.014677  0
H  H81  1  0.46060936  0.63462297  0.25039101  1  0.077663  0  0.098656  0.094958  0  1.039339  0
H  H82  1  0.21047273  0.74954376  0.38430565  1  0.034547  0  0.099137  0.095302  0  1.038361  0
H  H83  1  0.82614473  0.61566037  0.36540258  1  0.062281  0  0.099491  0.09684  0  1.038368  0
H  H84  1  0.42739176  0.87231624  0.85839950  1  0.626917  0  0.277177  0.351066  0  1.00451  0
H  H85  1  0.56844009  0.14149164  0.01394145  1  0.648779  0  0.276914  0.35145  0  1.003232  0
H  H86  1  0.55465650  0.98610969  0.12751123  1  0.635887  0  0.27723  0.352194  0  1.002738  0
H  H87  1  0.50390768  0.87841613  0.93972635  1  0.611646  0  0.284498  0.331928  0  1.01844  0
H  H88  1  0.56377003  0.06018552  0.93873825  1  0.587265  0  0.28452  0.33249  0  1.017358  0
H  H89  1  0.62503264  0.06140161  0.12148258  1  0.605957  0  0.284297  0.331947  0  1.018383  0
C  C90  1  0.59197880  0.68193400  0.83465297  1  1.538877  0  0.194774  0.564522  0  4.211057  0
C  C91  1  0.75669920  0.16531308  0.84736004  1  1.55778  0  0.194905  0.563185  0  4.211709  0
C  C92  1  0.90999147  0.15267572  0.31785012  1  1.488502  0  0.193429  0.561766  0  4.215171  0
C  C93  1  0.13264151  0.57971153  0.83429883  1  1.599697  0  0.224157  0.601505  0  4.174637  0
C  C94  1  0.29777504  0.16574994  0.74539424  1  1.590129  0  0.221355  0.594224  0  4.1792  0
C  C95  1  0.55299992  0.25464440  0.42029153  1  1.613342  0  0.223048  0.599045  0  4.176105  0
C  C96  1  0.90096126  0.51441433  0.68292704  1  1.561931  0  0.197867  0.56066  0  4.237064  0
C  C97  1  0.21714090  0.31713420  0.83136497  1  1.563557  0  0.198105  0.55889  0  4.23366  0
C  C98  1  0.38637704  0.16860930  0.48561113  1  1.557489  0  0.198722  0.561293  0  4.233681  0
C  C99  1  0.73489622  0.65856775  0.83408841  1  -0.023354  0  -0.0176  -0.031437  0  3.981689  0
C  C100  1  0.90013804  0.16585118  0.82451478  1  -0.043691  0  -0.017422  -0.030098  0  3.980805  0
C  C101  1  0.07633028  0.17555172  0.34122219  1  0.026014  0  -0.017171  -0.029361  0  3.980084  0
C  C102  1  0.84995775  0.69261055  0.90441957  1  -0.039647  0  -0.080426  -0.085629  0  3.970996  0
C  C103  1  0.94500722  0.09559981  0.78833669  1  -0.019524  0  -0.081042  -0.086098  0  3.972242  0
C  C104  1  0.15742490  0.21181372  0.30720719  1  -0.021054  0  -0.080781  -0.087117  0  3.969356  0
C  C105  1  0.75294589  0.60083534  0.76248101  1  0.022762  0  -0.077363  -0.10229  0  3.931942  0
C  C106  1  0.98971756  0.23746089  0.83831125  1  -0.017218  0  -0.076869  -0.101244  0  3.930446  0
C  C107  1  0.15205618  0.16172162  0.39901837  1  -0.084229  0  -0.07707  -0.10255  0  3.931843  0
C  C108  1  0.88277401  0.57565093  0.76048519  1  0.010271  0  -0.016604  -0.058697  0  3.966076  0
C  C109  1  0.12149926  0.23953355  0.81506630  1  0.032321  0  -0.016517  -0.057798  0  3.964126  0
C  C110  1  0.30709106  0.18496031  0.42434594  1  0.043281  0  -0.016926  -0.059167  0  3.965521  0
C  C111  1  0.99748016  0.60990917  0.83142514  1  -0.077875  0  -0.004045  -0.037405  0  3.944729  0
C  C112  1  0.16538252  0.16864109  0.77844253  1  -0.115795  0  -0.003512  -0.035151  0  3.943814  0
C  C113  1  0.38761301  0.22159404  0.39008132  1  -0.053124  0  -0.005411  -0.0402  0  3.947456  0
C  C114  1  0.98119042  0.66903232  0.90298116  1  -0.080413  0  -0.09182  -0.118766  0  3.990031  0
C  C115  1  0.07767791  0.09711999  0.76619635  1  -0.027499  0  -0.091647  -0.119893  0  3.989787  0
C  C116  1  0.31226055  0.23396132  0.33088711  1  -0.028139  0  -0.091074  -0.115643  0  3.988409  0
C  C117  1  0.47447071  0.61281369  0.98424252  1  0.542547  0  0.054255  0.110534  0  3.905569  0
C  C118  1  0.48961066  0.01574310  0.62853860  1  0.438835  0  0.054937  0.111781  0  3.905631  0
C  C119  1  0.86191654  0.37147099  0.38725841  1  0.434881  0  0.053865  0.109563  0  3.905127  0
C  C120  1  0.37087945  0.51704301  0.01304084  1  0.426087  0  0.04826  0.095679  0  3.957723  0
C  C121  1  0.35764174  0.98676791  0.50381324  1  0.486101  0  0.048626  0.097557  0  3.955021  0
C  C122  1  0.85454747  0.49613046  0.48302892  1  0.42497  0  0.048972  0.097226  0  3.955837  0
C  C123  1  0.00338348  0.76884374  0.72821530  1  0.00818  0  -0.079898  -0.171684  0  3.936273  0
C  C124  1  0.27452826  0.27159002  0.04057077  1  -0.056326  0  -0.079424  -0.170422  0  3.935238  0
C  C125  1  0.23429317  0.95941429  0.23090101  1  0.009036  0  -0.079915  -0.170328  0  3.935467  0
C  C126  1  0.05367371  0.76357191  0.66278744  1  -0.047085  0  0.012488  0.112132  0  3.999527  0
C  C127  1  0.39014443  0.33713699  0.10070418  1  0.014307  0  0.012832  0.114625  0  3.99732  0
C  C128  1  0.28971022  0.89929670  0.23631707  1  -0.026008  0  0.013343  0.114377  0  4.002115  0
C  C129  1  0.18195402  0.73694438  0.65280681  1  -0.022708  0  -0.085545  -0.171892  0  3.937382  0
C  C130  1  0.52842312  0.34713305  0.08406208  1  -0.037822  0  -0.085927  -0.172985  0  3.94015  0
C  C131  1  0.44463181  0.91591987  0.26298854  1  -0.02639  0  -0.087478  -0.175513  0  3.942031  0
C  C132  1  0.43252173  0.56822988  0.09424533  1  0.027568  0  -0.089007  -0.185812  0  3.953475  0
C  C133  1  0.33826208  0.90560279  0.47387838  1  -0.056011  0  -0.088232  -0.186742  0  3.952992  0
C  C134  1  0.86489129  0.52605768  0.43178091  1  -0.038777  0  -0.090121  -0.189091  0  3.954923  0
C  C135  1  0.51983469  0.64634601  0.12300069  1  -0.059716  0  0.014441  0.118805  0  3.978204  0
C  C136  1  0.39692067  0.87698035  0.52335283  1  -0.038177  0  0.014679  0.119301  0  3.979601  0
C  C137  1  0.87379327  0.47660337  0.35365000  1  -0.004955  0  0.014429  0.119092  0  3.977743  0
C  C138  1  0.53829515  0.66728938  0.06463866  1  -0.064501  0  -0.07834  -0.169642  0  3.913879  0
C  C139  1  0.47343193  0.93540138  0.60268252  1  0.011559  0  -0.078697  -0.170094  0  3.916244  0
C  C140  1  0.87114445  0.39729247  0.33271736  1  -0.010926  0  -0.078212  -0.168935  0  3.912297  0
C  C141  1  0.25659669  0.72080916  0.70822329  1  0.490618  0  0.051244  0.11002  0  3.904795  0
C  C142  1  0.54770716  0.29165073  0.01257171  1  0.483151  0  0.051162  0.108368  0  3.907557  0
C  C143  1  0.53551307  0.98743677  0.27910936  1  0.456702  0  0.052227  0.111299  0  3.908408  0
C  C144  1  0.08482658  0.75241910  0.78166036  1  0.492913  0  0.053805  0.109542  0  3.939678  0
C  C145  1  0.30251917  0.21814180  0.97071551  1  0.533284  0  0.054709  0.10995  0  3.940453  0
C  C146  1  0.33224516  0.02927065  0.24735732  1  0.470052  0  0.054809  0.108823  0  3.940436  0
C  C147  1  0.85647443  0.22498439  0.51240594  1  0.965385  0  0.152326  0.118308  0  3.859542  0
C  C148  1  0.34405226  0.48742170  0.71252310  1  0.942722  0  0.152251  0.119267  0  3.862249  0
C  C149  1  0.63137608  0.28753996  0.77505957  1  0.975362  0  0.152865  0.117868  0  3.859251  0
C  C150  1  0.04104326  0.25227744  0.61488651  1  0.290234  0  0.010037  -0.081345  0  3.864582  0
C  C151  1  0.42662179  0.38512786  0.63753664  1  0.281766  0  0.010711  -0.079298  0  3.86355  0
C  C152  1  0.78875955  0.36255991  0.74767761  1  0.286176  0  0.008658  -0.083423  0  3.865546  0
C  C153  1  0.03200524  0.32145750  0.61550775  1  0.388295  0  -0.002181  -0.026474  0  3.978324  0
C  C154  1  0.41687327  0.38454661  0.70611061  1  0.397397  0  -0.002656  -0.028564  0  3.97995  0
C  C155  1  0.71048638  0.29393035  0.67853450  1  0.402238  0  -0.001342  -0.026886  0  3.980304  0
C  C156  1  0.99815866  0.07844527  0.55155880  1  0.015972  0  -0.090114  -0.148306  0  3.973577  0
C  C157  1  0.44661213  0.44826834  0.52677645  1  0.006562  0  -0.089885  -0.147292  0  3.971373  0
C  C158  1  0.91993706  0.47326358  0.92164931  1  -0.013573  0  -0.090892  -0.149114  0  3.972472  0
C  C159  1  0.89100203  0.10937299  0.52664519  1  0.328854  0  0.099362  0.174718  0  3.980176  0
C  C160  1  0.36452110  0.47319612  0.58268547  1  0.262735  0  0.097978  0.1745  0  3.977338  0
C  C161  1  0.78183074  0.41739967  0.89066233  1  0.305871  0  0.100218  0.177567  0  3.975122  0
C  C162  1  0.74788751  0.06039895  0.48061564  1  -0.007277  0  -0.085828  -0.143239  0  3.951805  0
C  C163  1  0.26774314  0.51938537  0.57990607  1  -0.060359  0  -0.085269  -0.144588  0  3.952036  0
C  C164  1  0.68771254  0.42022607  0.93960446  1  0.045273  0  -0.086696  -0.146264  0  3.951805  0
C  C165  1  0.71475217  0.98014813  0.45857233  1  -0.032312  0  -0.096914  -0.162199  0  4.010833  0
C  C166  1  0.25677187  0.54152934  0.52177317  1  -0.023222  0  -0.097029  -0.161835  0  4.010655  0
C  C167  1  0.73487688  0.47833928  0.01989339  1  -0.040174  0  -0.096593  -0.161325  0  4.010235  0
C  C168  1  0.82258195  0.94819629  0.48194529  1  0.266312  0  0.083967  0.159689  0  4.063155  0
C  C169  1  0.34097179  0.51806399  0.46632693  1  0.317853  0  0.084205  0.160888  0  4.064596  0
C  C170  1  0.87460463  0.53374567  0.05188006  1  0.274441  0  0.084101  0.161047  0  4.061938  0
C  C171  1  0.96419464  0.99821765  0.52951263  1  -0.062621  0  -0.096195  -0.159955  0  4.002161  0
C  C172  1  0.43467055  0.47034298  0.46860371  1  -0.011567  0  -0.09665  -0.162583  0  4.005356  0
C  C173  1  0.96612363  0.53143517  0.00189999  1  -0.012405  0  -0.09612  -0.160615  0  4.002702  0
C  C174  1  0.98048640  0.78788749  0.60876656  1  0.064126  0  -0.01293  0.046881  0  3.999363  0
C  C175  1  0.37095451  0.39123275  0.17901592  1  0.022705  0  -0.012014  0.047451  0  3.999088  0
C  C176  1  0.19217796  0.82098936  0.21210883  1  0.04899  0  -0.012464  0.047045  0  4.000464  0
C  C177  1  0.90951749  0.84960244  0.63663235  1  -0.000246  0  -0.079756  -0.098988  0  3.962912  0
C  C178  1  0.27209486  0.36348643  0.21295617  1  -0.074499  0  -0.080817  -0.102613  0  3.95943  0
C  C179  1  0.05937508  0.78700246  0.15039597  1  -0.009725  0  -0.080213  -0.100544  0  3.960284  0
C  C180  1  0.84509287  0.87495970  0.58666172  1  -0.030886  0  -0.091869  -0.1728  0  3.99408  0
C  C181  1  0.25807249  0.41348431  0.28837933  1  0.021266  0  -0.090758  -0.170312  0  3.989161  0
C  C182  1  0.96983378  0.71162656  0.12507445  1  -0.068008  0  -0.091219  -0.170411  0  3.989001  0
C  C183  1  0.84879833  0.83861113  0.50640045  1  0.336786  0  0.095572  0.187105  0  4.035092  0
C  C184  1  0.34239383  0.49368984  0.33228730  1  0.31926  0  0.095611  0.185896  0  4.032909  0
C  C185  1  0.01022515  0.66782788  0.16148531  1  0.280319  0  0.095287  0.18766  0  4.032709  0
C  C186  1  0.92093748  0.77777062  0.47832642  1  -0.065082  0  -0.102228  -0.182126  0  4.00889  0
C  C187  1  0.44250287  0.52169716  0.29940022  1  -0.085408  0  -0.101946  -0.181632  0  4.0083  0
C  C188  1  0.14327586  0.70074290  0.22238242  1  0.015736  0  -0.102015  -0.183496  0  4.006663  0
C  C189  1  0.98590891  0.75320778  0.52879387  1  -0.063109  0  -0.09254  -0.118498  0  4.007209  0
C  C190  1  0.45660586  0.47118008  0.22428309  1  0.00364  0  -0.092653  -0.117198  0  4.007457  0
C  C191  1  0.23256700  0.77580872  0.24687574  1  -0.078798  0  -0.091836  -0.116602  0  4.006435  0
C  C192  1  0.61470375  0.73977073  0.34833244  1  -0.03252  0  -0.098607  -0.180668  0  3.991295  0
C  C193  1  0.26671138  0.65168266  0.39157422  1  0.016239  0  -0.099279  -0.18234  0  3.994065  0
C  C194  1  0.87518182  0.60853834  0.26032353  1  -0.091757  0  -0.099365  -0.182487  0  3.991655  0
C  C195  1  0.72312451  0.81094153  0.37370721  1  0.331176  0  0.097753  0.187107  0  4.038037  0
C  C196  1  0.34976377  0.62637370  0.43742694  1  0.387243  0  0.097363  0.185134  0  4.040768  0
C  C197  1  0.91245398  0.56277574  0.18915678  1  0.415077  0  0.098556  0.190082  0  4.036175  0
C  C198  1  0.76369938  0.82712123  0.31556952  1  0.044397  0  -0.092204  -0.173463  0  3.980411  0
C  C199  1  0.44830343  0.68456705  0.51182217  1  -0.064777  0  -0.091826  -0.171401  0  3.978174  0
C  C200  1  0.93665945  0.48841553  0.17289880  1  -0.03034  0  -0.092805  -0.174926  0  3.98311  0
C  C201  1  0.69841903  0.77362199  0.23501523  1  -0.085968  0  -0.082389  -0.101683  0  3.988762  0
C  C202  1  0.46356277  0.76510132  0.53881875  1  -0.048681  0  -0.083903  -0.104315  0  3.988711  0
C  C203  1  0.92488216  0.46132788  0.22636276  1  -0.102791  0  -0.083517  -0.104254  0  3.99067  0
C  C204  1  0.58833618  0.70249928  0.20855361  1  -0.01884  0  -0.018554  0.030185  0  4.00487  0
C  C205  1  0.38008001  0.79147320  0.49402799  1  -0.024431  0  -0.019108  0.029021  0  4.004871  0
C  C206  1  0.88608096  0.50599398  0.29750967  1  0.060612  0  -0.018141  0.03218  0  4.00215  0
C  C207  1  0.54825380  0.68746795  0.26758096  1  -0.083644  0  -0.089727  -0.1099  0  3.991675  0
C  C208  1  0.28098217  0.73239356  0.41997122  1  -0.117758  0  -0.089568  -0.108467  0  3.989742  0
C  C209  1  0.86102623  0.58005503  0.31258267  1  -0.066722  0  -0.090024  -0.112667  0  3.991729  0
N  N210  1  0.21063195  0.72968671  0.77277903  1  -1.248385  0  -0.326238  -0.237025  0  3.546635  0
N  N211  1  0.43722694  0.22705564  0.95688400  1  -1.24853  0  -0.327453  -0.238111  0  3.548242  0
N  N212  1  0.48079478  0.04310762  0.27018156  1  -1.263951  0  -0.327766  -0.239016  0  3.550717  0
N  N213  1  0.39106580  0.53840370  0.95821262  1  -1.261715  0  -0.333611  -0.236903  0  3.580678  0
N  N214  1  0.43234330  0.04167416  0.58006077  1  -1.269036  0  -0.334545  -0.239913  0  3.579756  0
N  N215  1  0.85314523  0.41992187  0.46168382  1  -1.261591  0  -0.334727  -0.238752  0  3.579891  0
N  N216  1  0.91695325  0.30372308  0.55130954  1  -1.276445  0  -0.367825  -0.300637  0  3.612705  0
N  N217  1  0.36570828  0.44862217  0.75244447  1  -1.259299  0  -0.367569  -0.299169  0  3.611169  0
N  N218  1  0.61305049  0.24758201  0.69632045  1  -1.275984  0  -0.368101  -0.299553  0  3.612202  0
N  N219  1  0.78788164  0.86521485  0.45550247  1  -1.235037  0  -0.256384  -0.157402  0  3.684955  0
N  N220  1  0.33280054  0.54459786  0.40987380  1  -1.233842  0  -0.255606  -0.155348  0  3.684131  0
N  N221  1  0.92288566  0.59027977  0.13488070  1  -1.219387  0  -0.255721  -0.159209  0  3.684396  0
N  N222  1  0.92833541  0.19160551  0.54958398  1  -1.267818  0  -0.216248  0.019978  0  3.763536  0
N  N223  1  0.37892876  0.45027853  0.64200948  1  -1.253708  0  -0.215997  0.018037  0  3.766499  0
N  N224  1  0.73676298  0.35807770  0.80840147  1  -1.262346  0  -0.215795  0.019351  0  3.763217  0
N  N225  1  0.40994950  0.86558373  0.01705404  1  0.457884  0  -0.055413  0.192403  0  3.577504  0
N  N226  1  0.39232173  0.98275832  0.84844407  1  0.456879  0  -0.057142  0.188275  0  3.579771  0
N  N227  1  0.54390698  0.15155530  0.13442329  1  0.458641  0  -0.05756  0.188154  0  3.582491  0
O  O228  1  0.26162826  0.62394146  0.85385652  1  -1.187231  0  -0.302489  -0.546975  0  2.369992  0
O  O229  1  0.40705085  0.14612831  0.77011072  1  -1.183609  0  -0.301071  -0.544887  0  2.369482  0
O  O230  1  0.63774650  0.22995036  0.37607528  1  -1.191918  0  -0.300853  -0.54493  0  2.368165  0
O  O231  1  0.10791242  0.50793399  0.82140752  1  -1.173098  0  -0.311243  -0.528373  0  2.368231  0
O  O232  1  0.28613696  0.17859498  0.68647793  1  -1.172629  0  -0.310792  -0.525319  0  2.368695  0
O  O233  1  0.60016893  0.31357687  0.49204842  1  -1.182452  0  -0.310931  -0.527403  0  2.369191  0
O  O234  1  0.56419990  0.71887666  0.90285865  1  -1.160009  0  -0.331821  -0.54581  0  2.232342  0
O  O235  1  0.66052534  0.09712548  0.81600642  1  -1.166361  0  -0.331244  -0.545505  0  2.23293  0
O  O236  1  0.84508403  0.18398087  0.28100262  1  -1.160938  0  -0.331154  -0.544886  0  2.23291  0
O  O237  1  0.50298532  0.66378843  0.76974150  1  -1.181331  0  -0.327422  -0.568574  0  2.169502  0
O  O238  1  0.73281648  0.23021997  0.89421296  1  -1.182265  0  -0.327958  -0.568453  0  2.167842  0
O  O239  1  0.83934345  0.10583792  0.33596698  1  -1.169937  0  -0.327347  -0.568283  0  2.171085  0
O  O240  1  0.77882282  0.46491216  0.62966813  1  -1.173294  0  -0.33421  -0.547105  0  2.320004  0
O  O241  1  0.14819048  0.37033093  0.83508070  1  -1.168445  0  -0.333469  -0.545764  0  2.316981  0
O  O242  1  0.31374222  0.16493049  0.53512412  1  -1.162089  0  -0.334901  -0.547759  0  2.318762  0
O  O243  1  0.02788677  0.51320839  0.67248167  1  -1.175711  0  -0.317474  -0.559598  0  2.196439  0
O  O244  1  0.35458372  0.32768197  0.84066711  1  -1.183653  0  -0.318013  -0.558671  0  2.193854  0
O  O245  1  0.51443788  0.15926349  0.48679397  1  -1.184891  0  -0.317371  -0.559477  0  2.19455  0
O  O246  1  0.31308368  0.79691406  0.97360869  1  -0.638927  0  -0.206085  -0.394951  0  2.253772  0
O  O247  1  0.33864039  0.02621472  0.82333463  1  -0.637146  0  -0.206494  -0.394486  0  2.253006  0
O  O248  1  0.51566804  0.17677312  0.20307475  1  -0.636056  0  -0.205984  -0.392998  0  2.252196  0
O  O249  1  0.40403503  0.90360613  0.08760145  1  -0.585674  0  -0.164382  -0.33433  0  2.208385  0
O  O250  1  0.31603520  0.91216587  0.81584381  1  -0.58677  0  -0.16265  -0.331386  0  2.210163  0
O  O251  1  0.50005874  0.18406999  0.09638430  1  -0.5907  0  -0.162746  -0.332236  0  2.211487  0
O  O252  1  0.49200286  0.84847150  0.88165832  1  -1.232617  0  -0.589185  -0.734324  0  2.126823  0
O  O253  1  0.60975214  0.11826003  0.96681212  1  -1.229875  0  -0.588685  -0.734673  0  2.12586  0
O  O254  1  0.64306548  0.03328450  0.15142317  1  -1.236548  0  -0.589356  -0.735702  0  2.126895  0
