# generated using pymatgen
data_MnPH15C20N2O5
_symmetry_space_group_name_H-M   'P 1'
_cell_length_a   9.34427744
_cell_length_b   10.21913903
_cell_length_c   10.71521599
_cell_angle_alpha   74.95161965
_cell_angle_beta   69.24718246
_cell_angle_gamma   84.05287151
_symmetry_Int_Tables_number   1
_chemical_formula_structural   MnPH15C20N2O5
_chemical_formula_sum   'Mn2 P2 H30 C40 N4 O10'
_cell_volume   923.92500239
_cell_formula_units_Z   2
loop_
 _symmetry_equiv_pos_site_id
 _symmetry_equiv_pos_as_xyz
  1  'x, y, z'
loop_
 _atom_site_type_symbol
 _atom_site_label
 _atom_site_symmetry_multiplicity
 _atom_site_fract_x
 _atom_site_fract_y
 _atom_site_fract_z
 _atom_site_occupancy
 _atom_site_hle17_ddec_charge
 _atom_site_hle17_ddec_spin_density
 _atom_site_hle17_ddec_sum_bond_order
 _atom_site_hle17_magmom
 _atom_site_hse06_10hf_ddec_charge
 _atom_site_hse06_10hf_ddec_spin_density
 _atom_site_hse06_10hf_ddec_sum_bond_order
 _atom_site_hse06_10hf_magmom
 _atom_site_hse06_ddec_charge
 _atom_site_hse06_ddec_spin_density
 _atom_site_hse06_ddec_sum_bond_order
 _atom_site_hse06_magmom
 _atom_site_pbe_cm5_charge
 _atom_site_pbe_ddec_charge
 _atom_site_pbe_ddec_spin_density
 _atom_site_pbe_ddec_sum_bond_order
 _atom_site_pbe_magmom
Mn  Mn0  1  0.58604921  0.12679944  0.13954205  1  1.181307  4.774841  1.865248  4.64  1.003121  4.691526  2.411643  4.474  1.06416  4.744329  2.331728  4.551  0.633579  0.957842  4.633237  2.470218  4.392
Mn  Mn1  1  0.41395307  0.87320413  0.86046655  1  1.18127  4.774845  1.865334  4.64  1.003132  4.691557  2.411676  4.474  1.064174  4.744362  2.33176  4.551  0.633571  0.957829  4.633274  2.470288  4.392
P  P2  1  0.28092456  0.11514950  0.04107132  1  1.52989  0.012958  4.794081  0.01  1.379984  0.020051  5.286184  0.014  1.430189  0.015587  5.249388  0.012  0.373882  1.344565  0.024226  5.310038  0.016
P  P3  1  0.71907897  0.88484903  0.95892227  1  1.529921  0.012979  4.794041  0.01  1.379992  0.020049  5.286153  0.014  1.430199  0.015582  5.24936  0.012  0.373853  1.344572  0.024227  5.310002  0.016
H  H4  1  0.15513605  0.91704182  0.16650279  1  0.424179  0.000114  0.88853  0.0  0.387358  0.000294  0.961807  0.0  0.400804  0.000205  0.942546  0.0  0.297774  0.377899  0.000377  0.975258  0.0
H  H5  1  0.84486852  0.08296278  0.83349831  1  0.424137  0.000112  0.888579  0.0  0.387354  0.000294  0.961794  0.0  0.40079  0.000205  0.942546  0.0  0.297743  0.377895  0.000377  0.975245  0.0
H  H6  1  0.21424206  0.31323703  0.89592170  1  0.129847  -0.000247  0.934686  0.0  0.144564  2.4e-05  0.991747  0.0  0.146746  -1.7e-05  0.991268  0.0  0.105307  0.142983  8.3e-05  0.992078  0.0
H  H7  1  0.78576138  0.68676655  0.10407533  1  0.12989  -0.000221  0.934644  0.0  0.1446  2.3e-05  0.991702  0.0  0.14678  -1.8e-05  0.991225  0.0  0.105334  0.143018  8.3e-05  0.992031  0.0
H  H8  1  0.05614635  0.20432941  0.99180558  1  0.138281  -3.6e-05  0.937777  0.0  0.153244  0.000188  0.992818  0.0  0.155084  8.2e-05  0.992751  0.0  0.109422  0.151747  0.000336  0.993304  0.0
H  H9  1  0.94385825  0.79567316  0.00819135  1  0.138299  -4.2e-05  0.937817  0.0  0.153276  0.000188  0.992829  0.0  0.155118  8.2e-05  0.992756  0.0  0.109442  0.151778  0.000335  0.993315  0.0
H  H10  1  0.94508109  0.19160124  0.26060521  1  0.095279  -0.000305  0.972524  0.0  0.103563  -0.000269  1.039108  0.0  0.10581  -0.000269  1.039253  0.0  0.097696  0.101986  -0.000265  1.03904  0.0
H  H11  1  0.05492469  0.80839930  0.73939466  1  0.095269  -0.000289  0.972515  0.0  0.10356  -0.000269  1.039078  0.0  0.105808  -0.000269  1.039222  0.0  0.097681  0.10198  -0.000265  1.039015  0.0
H  H12  1  0.85574700  0.33851642  0.42605027  1  0.078996  3e-06  0.977744  0.0  0.090139  -3e-05  1.039589  0.0  0.092143  -3.8e-05  1.040517  0.0  0.092071  0.089143  -7.4e-05  1.038258  0.0
H  H13  1  0.14425543  0.66147905  0.57395375  1  0.078867  2.5e-05  0.977841  0.0  0.090026  -3e-05  1.039687  0.0  0.092027  -3.9e-05  1.040618  0.0  0.09204  0.08903  -7.4e-05  1.038353  0.0
H  H14  1  0.95646526  0.57504944  0.35699809  1  0.090293  -8e-05  0.968452  0.0  0.098173  3.3e-05  1.036896  0.0  0.101494  1.7e-05  1.034777  0.0  0.097609  0.095456  0.000109  1.039096  0.0
H  H15  1  0.04353023  0.42495007  0.64300893  1  0.090324  -9.8e-05  0.96847  0.0  0.098173  3.3e-05  1.036927  0.0  0.101513  1.7e-05  1.034788  0.0  0.097634  0.095454  0.000109  1.039136  0.0
H  H16  1  0.23481342  0.51206404  0.96182476  1  0.106123  -0.000348  0.939975  0.0  0.11623  -0.000338  0.999466  0.0  0.120019  -0.000375  0.997224  0.0  0.105306  0.113439  -0.000309  1.001451  0.0
H  H17  1  0.76518203  0.48793851  0.03817686  1  0.106126  -0.000367  0.940028  0.0  0.116212  -0.000338  0.999531  0.0  0.119999  -0.000375  0.997291  0.0  0.105299  0.11342  -0.000309  1.001515  0.0
H  H18  1  0.82387204  0.89563310  0.22779321  1  0.089433  -0.000307  0.932975  0.0  0.097452  0.000128  0.995149  0.0  0.100142  -3.6e-05  0.992771  0.0  0.12161  0.095364  0.000294  0.997019  0.0
H  H19  1  0.17612577  0.10436541  0.77220308  1  0.089486  -0.000281  0.93303  0.0  0.097485  0.000128  0.995203  0.0  0.100182  -3.6e-05  0.992812  0.0  0.121605  0.095388  0.000294  0.997069  0.0
H  H20  1  0.93766968  0.82438974  0.41361392  1  0.11565  0.000234  0.94463  0.0  0.125754  0.000206  1.002613  0.0  0.129289  0.000165  1.00147  0.0  0.109957  0.123012  0.000317  1.003922  0.0
H  H21  1  0.06232473  0.17560675  0.58638206  1  0.115673  0.000239  0.944612  0.0  0.125789  0.000206  1.002588  0.0  0.129324  0.000164  1.001446  0.0  0.109964  0.123049  0.000317  1.003896  0.0
H  H22  1  0.84729577  0.94145592  0.61064712  1  0.116483  -0.000262  0.948881  0.0  0.125818  -7.6e-05  1.009899  0.0  0.128619  -0.000101  1.008708  0.0  0.112477  0.123801  -2e-06  1.010918  0.0
H  H23  1  0.15270439  0.05853854  0.38935038  1  0.116449  -0.000257  0.948917  0.0  0.125778  -7.5e-05  1.009933  0.0  0.128577  -0.000101  1.00875  0.0  0.112451  0.123762  -2e-06  1.010953  0.0
H  H24  1  0.49136271  0.30750468  0.70434149  1  0.103251  -6.5e-05  0.935845  0.0  0.117835  1.2e-05  0.988418  0.0  0.120664  -4.6e-05  0.9878  0.0  0.108849  0.115598  6.2e-05  0.98939  0.0
H  H25  1  0.50864192  0.69249587  0.29565406  1  0.103222  -7.3e-05  0.93589  0.0  0.117809  1.3e-05  0.988452  0.0  0.120639  -4.6e-05  0.987833  0.0  0.108831  0.115571  6.2e-05  0.989422  0.0
H  H26  1  0.68071388  0.12050329  0.71508413  1  0.118063  0.000325  0.97039  0.0  0.127259  0.000654  1.029409  0.0  0.130862  0.000507  1.027206  0.0  0.113416  0.124398  0.000841  1.031361  0.0
H  H27  1  0.31928616  0.87949827  0.28491259  1  0.118059  0.0003  0.970364  0.0  0.127235  0.000654  1.029409  0.0  0.130838  0.000507  1.027206  0.0  0.113396  0.124371  0.000841  1.031361  0.0
H  H28  1  0.32825563  0.45609956  0.57612637  1  0.09816  -0.000264  0.94809  0.0  0.109381  -4.6e-05  1.009377  0.0  0.111881  -7.4e-05  1.008295  0.0  0.107998  0.107353  1e-05  1.010794  0.0
H  H29  1  0.67174099  0.54390098  0.42387352  1  0.098208  -0.000269  0.948078  0.0  0.109447  -4.6e-05  1.009342  0.0  0.111928  -7.4e-05  1.008284  0.0  0.108019  0.107417  1e-05  1.010759  0.0
H  H30  1  0.24030265  0.51008134  0.37211298  1  0.107054  0.000266  0.95613  0.0  0.117447  0.000241  1.014497  0.0  0.120008  0.000184  1.014933  0.0  0.107658  0.115564  0.000342  1.01445  0.0
H  H31  1  0.75969289  0.48991514  0.62788918  1  0.107039  0.000275  0.956173  0.0  0.117427  0.000241  1.014549  0.0  0.119988  0.000184  1.014985  0.0  0.107627  0.115545  0.000342  1.014502  0.0
H  H32  1  0.33905895  0.36771441  0.19943659  1  0.08795  -0.000239  0.956284  0.0  0.094444  0.000172  1.021061  0.0  0.096657  1.7e-05  1.019983  0.0  0.119832  0.092833  0.000333  1.021594  0.001
H  H33  1  0.66094337  0.63228714  0.80056596  1  0.087957  -0.000245  0.956187  0.0  0.094421  0.000171  1.021007  0.0  0.096634  1.8e-05  1.01993  0.0  0.119831  0.092821  0.000333  1.021528  0.001
C  C34  1  0.15193300  0.25253009  0.99904461  1  -0.488039  0.003768  3.712684  0.004  -0.512751  0.003872  3.954517  0.003  -0.521889  0.003025  3.96278  0.003  -0.164702  -0.506239  0.004665  3.949296  0.004
C  C35  1  0.84807047  0.74747147  0.00095291  1  -0.488121  0.003744  3.712802  0.004  -0.512812  0.003872  3.954509  0.003  -0.521952  0.00303  3.962772  0.003  -0.164731  -0.506299  0.004665  3.949283  0.004
C  C36  1  0.09595674  0.34089464  0.09951557  1  0.152425  -0.001578  3.757451  -0.001  0.172364  -0.000464  3.994986  0.0  0.172678  -0.000852  4.019616  -0.001  -0.002825  0.171883  -0.000112  3.978595  0.0
C  C37  1  0.90404442  0.65910793  0.90048335  1  0.152503  -0.001555  3.757614  -0.001  0.172504  -0.000459  3.995023  0.0  0.172821  -0.00086  4.019649  -0.001  -0.002724  0.172024  -0.000112  3.978632  0.0
C  C38  1  0.98856515  0.29410508  0.23119608  1  -0.102278  0.002036  3.680819  0.002  -0.125502  0.00214  3.929808  0.002  -0.126351  0.001734  3.950141  0.001  -0.086442  -0.124161  0.00295  3.914618  0.002
C  C39  1  0.01143490  0.70589546  0.76880368  1  -0.102321  0.001968  3.680928  0.002  -0.125568  0.002139  3.929912  0.002  -0.126418  0.001739  3.950244  0.001  -0.086462  -0.124227  0.00295  3.914719  0.002
C  C40  1  0.93864580  0.37713938  0.32393911  1  -0.087881  -0.001593  3.804431  -0.001  -0.097305  -0.000733  4.055419  -0.001  -0.100916  -0.000996  4.078323  -0.001  -0.101352  -0.094313  -0.00058  4.037603  0.0
C  C41  1  0.06135425  0.62286116  0.67606439  1  -0.087736  -0.001643  3.804386  -0.001  -0.097176  -0.000732  4.05537  -0.001  -0.100785  -0.000999  4.078282  -0.001  -0.101325  -0.094184  -0.00058  4.037552  0.0
C  C42  1  0.99416393  0.50851509  0.28634352  1  -0.099759  0.002329  3.781531  0.002  -0.125582  0.002546  4.032682  0.002  -0.125611  0.002076  4.053196  0.002  -0.097512  -0.124764  0.003698  4.018361  0.003
C  C43  1  0.00583615  0.49148342  0.71366140  1  -0.099788  0.002344  3.781609  0.002  -0.125582  0.002544  4.032783  0.002  -0.125628  0.002079  4.053291  0.002  -0.097526  -0.124767  0.003698  4.018464  0.003
C  C44  1  0.10123640  0.55663603  0.15528952  1  -0.075862  0.000104  3.786643  0.0  -0.050978  0.000453  4.020108  0.0  -0.059226  -0.000106  4.0441  0.0  -0.022958  -0.045928  0.000735  4.004709  0.0
C  C45  1  0.89876587  0.44336856  0.84471323  1  -0.075888  0.000147  3.786765  0.0  -0.051017  0.000456  4.020218  0.0  -0.059268  -0.000108  4.044215  0.0  -0.022958  -0.045966  0.000735  4.004823  0.0
C  C46  1  0.16224753  0.69757516  0.11188109  1  0.658706  0.007349  3.909408  0.008  0.608249  0.011885  4.200457  0.011  0.64351  0.009194  4.193468  0.009  0.218842  0.584026  0.014566  4.203935  0.013
C  C47  1  0.83775015  0.30243043  0.88812563  1  0.658954  0.007351  3.909298  0.008  0.608514  0.011884  4.200316  0.011  0.64378  0.009195  4.19332  0.009  0.218893  0.58429  0.014565  4.203803  0.013
C  C48  1  0.15158617  0.47230870  0.06336566  1  -0.116102  0.001712  3.681385  0.002  -0.145383  0.001989  3.924205  0.002  -0.145947  0.001605  3.943671  0.001  -0.080728  -0.145792  0.002691  3.912301  0.002
C  C49  1  0.84841268  0.52769488  0.93663746  1  -0.116173  0.00174  3.681474  0.002  -0.145446  0.001985  3.924264  0.002  -0.146011  0.001611  3.943728  0.001  -0.080804  -0.145853  0.002691  3.91236  0.002
C  C50  1  0.78976479  0.94584304  0.31229245  1  0.162421  0.005199  3.659458  0.005  0.129048  0.008553  3.920811  0.007  0.13888  0.00688  3.93509  0.006  0.064379  0.122155  0.010839  3.912096  0.009
C  C51  1  0.21023759  0.05415548  0.68770429  1  0.162345  0.005034  3.659751  0.005  0.129025  0.00855  3.921036  0.007  0.138857  0.006872  3.935317  0.006  0.064366  0.122151  0.010834  3.912303  0.009
C  C52  1  0.85212251  0.90555948  0.41853071  1  -0.10922  -0.003115  3.710498  -0.002  -0.1267  -0.002132  3.972564  -0.001  -0.133402  -0.002842  3.992471  -0.002  -0.08004  -0.122297  -0.00135  3.960776  -0.001
C  C53  1  0.14787419  0.09443700  0.58146736  1  -0.109282  -0.003082  3.710472  -0.002  -0.126791  -0.002129  3.972523  -0.001  -0.133493  -0.002842  3.992433  -0.002  -0.080046  -0.122389  -0.001348  3.960734  -0.001
C  C54  1  0.80393001  0.97026194  0.52512317  1  -0.044079  0.004693  3.652446  0.004  -0.068958  0.007601  3.902044  0.006  -0.066117  0.006107  3.919449  0.005  -0.060047  -0.072504  0.009368  3.892469  0.007
C  C55  1  0.19606669  0.02973454  0.47487490  1  -0.044047  0.004679  3.652351  0.004  -0.068884  0.007596  3.901949  0.006  -0.066047  0.006107  3.919354  0.005  -0.060012  -0.072431  0.009363  3.89238  0.007
C  C56  1  0.69482806  0.07706160  0.52350024  1  0.024572  -0.000403  3.78441  -0.001  0.04128  0.001188  4.019284  0.0  0.0388  0.000566  4.042183  0.0  0.002264  0.042362  0.001695  4.005245  0.0
C  C57  1  0.30517201  0.92293793  0.47649790  1  0.024621  -0.000393  3.784258  -0.001  0.041263  0.00119  4.019236  0.0  0.038784  0.000564  4.042136  0.0  0.002225  0.042344  0.001696  4.005198  0.0
C  C58  1  0.63976422  0.11148510  0.41141205  1  0.117959  0.002062  3.778176  0.002  0.110093  0.004668  4.018925  0.004  0.113944  0.003427  4.041861  0.003  0.116765  0.108211  0.006381  4.002493  0.005
C  C59  1  0.36023701  0.88851342  0.58858599  1  0.118043  0.001989  3.777996  0.002  0.11015  0.004664  4.018803  0.004  0.114002  0.00342  4.041737  0.003  0.116828  0.108268  0.006376  4.002372  0.005
C  C60  1  0.52966656  0.22017615  0.40477199  1  0.13008  0.002779  3.75896  0.003  0.125498  0.005439  3.993997  0.005  0.129512  0.004355  4.017087  0.004  0.121171  0.122454  0.007165  3.977986  0.006
C  C61  1  0.47033350  0.77982440  0.59522217  1  0.12994  0.002844  3.759089  0.003  0.125417  0.005437  3.994087  0.005  0.129432  0.004348  4.017177  0.004  0.121092  0.122372  0.007162  3.978072  0.006
C  C62  1  0.47771762  0.29195616  0.51018237  1  0.015396  -0.002503  3.812137  -0.002  0.031052  -0.001615  4.045679  -0.001  0.028022  -0.002246  4.071017  -0.002  -0.004773  0.034186  -0.001295  4.028395  -0.001
C  C63  1  0.52228254  0.70803830  0.48981887  1  0.015475  -0.002517  3.812085  -0.002  0.031128  -0.001615  4.045599  -0.001  0.028096  -0.00224  4.070933  -0.002  -0.004738  0.034263  -0.001294  4.028311  -0.001
C  C64  1  0.53427947  0.25365889  0.62249319  1  -0.091271  0.00134  3.738691  0.002  -0.116192  0.002469  3.998372  0.002  -0.119086  0.001944  4.020287  0.002  -0.080789  -0.114718  0.003895  3.98457  0.003
C  C65  1  0.46571949  0.74633861  0.37750579  1  -0.091325  0.001325  3.73871  0.002  -0.116244  0.002468  3.998377  0.002  -0.119137  0.001944  4.020291  0.002  -0.080808  -0.114768  0.003896  3.984567  0.003
C  C66  1  0.63849810  0.15021490  0.62912385  1  -0.092461  -0.000299  3.708259  -0.001  -0.11661  0.001913  3.969221  -0.001  -0.118119  0.000984  3.987129  -0.001  -0.077821  -0.116427  0.002237  3.95884  -0.001
C  C67  1  0.36150085  0.84978361  0.37087676  1  -0.092466  -0.000204  3.70828  -0.001  -0.116582  0.001913  3.969262  -0.001  -0.118092  0.000984  3.987172  -0.001  -0.07781  -0.116396  0.002237  3.958873  -0.001
C  C68  1  0.37101481  0.39857193  0.49732877  1  -0.054927  0.005559  3.708159  0.005  -0.080175  0.008385  3.95924  0.006  -0.077439  0.006943  3.977101  0.005  -0.066043  -0.082848  0.011458  3.949283  0.009
C  C69  1  0.62898764  0.60142253  0.50266896  1  -0.054966  0.005611  3.7081  0.005  -0.080243  0.008386  3.959181  0.006  -0.07749  0.006934  3.977052  0.005  -0.066089  -0.082914  0.011457  3.949223  0.009
C  C70  1  0.32212493  0.42830692  0.38534032  1  -0.126158  -0.003664  3.741569  -0.002  -0.138843  -0.00228  3.995168  -0.001  -0.14561  -0.003235  4.016025  -0.002  -0.084126  -0.134797  -0.001669  3.982329  -0.001
C  C71  1  0.67786834  0.57168854  0.61466559  1  -0.126143  -0.00378  3.741555  -0.002  -0.138823  -0.002282  3.995134  -0.001  -0.145589  -0.003226  4.015983  -0.002  -0.084039  -0.134777  -0.001669  3.982297  -0.001
C  C72  1  0.37770248  0.34991267  0.28733375  1  0.155326  0.005836  3.665198  0.006  0.124483  0.009267  3.916561  0.008  0.133607  0.00771  3.931995  0.007  0.064697  0.118082  0.012327  3.906313  0.01
C  C73  1  0.62229522  0.65009192  0.71266481  1  0.155374  0.005872  3.665189  0.006  0.124576  0.009265  3.916547  0.008  0.133701  0.007707  3.931982  0.007  0.064713  0.118166  0.012324  3.906293  0.01
N  N74  1  0.68642463  0.04564079  0.30828036  1  -0.366604  0.024914  3.241757  0.011  -0.305351  0.030658  3.527773  0.012  -0.32439  0.026667  3.541106  0.009  -0.312509  -0.291924  0.034829  3.518482  0.015
N  N75  1  0.31357653  0.95436178  0.69171670  1  -0.36661  0.025055  3.241827  0.011  -0.305378  0.03066  3.527859  0.012  -0.324419  0.026678  3.541199  0.009  -0.312505  -0.29195  0.034831  3.51856  0.015
N  N76  1  0.47844674  0.24876271  0.29682142  1  -0.351435  0.024216  3.238903  0.011  -0.288024  0.029616  3.51627  0.012  -0.306325  0.025489  3.528811  0.009  -0.309604  -0.275545  0.033934  3.508606  0.015
N  N77  1  0.52154756  0.75123985  0.70317868  1  -0.351407  0.024177  3.238928  0.011  -0.288045  0.029611  3.516285  0.012  -0.306346  0.02549  3.528826  0.009  -0.309565  -0.275561  0.033931  3.50862  0.015
O  O78  1  0.17536636  0.01342569  0.17308979  1  -0.786206  1.3e-05  2.060096  0.001  -0.711141  0.00073  2.292513  0.001  -0.734099  0.000306  2.267458  0.001  -0.388542  -0.694532  0.001226  2.309551  0.002
O  O79  1  0.82464049  0.98657891  0.82691155  1  -0.786145  1.4e-05  2.060083  0.001  -0.711125  0.000731  2.292527  0.001  -0.73408  0.000308  2.267485  0.001  -0.388528  -0.694517  0.001226  2.309565  0.002
O  O80  1  0.39822808  0.17400670  0.07920683  1  -0.868939  0.043013  2.003795  0.027  -0.776676  0.052398  2.300117  0.032  -0.809635  0.04611  2.275017  0.027  -0.374878  -0.751398  0.058484  2.315824  0.038
O  O81  1  0.60176961  0.82599788  0.92079547  1  -0.868855  0.043016  2.003908  0.027  -0.776612  0.052402  2.30026  0.032  -0.809575  0.046117  2.275159  0.027  -0.374826  -0.751332  0.058488  2.315968  0.038
O  O82  1  0.34308463  0.05080969  0.91883249  1  -0.886519  0.043573  2.047946  0.027  -0.795816  0.052793  2.354135  0.032  -0.828707  0.046819  2.328971  0.026  -0.375381  -0.770385  0.058398  2.370025  0.037
O  O83  1  0.65691771  0.94919085  0.08116657  1  -0.886596  0.043556  2.047716  0.027  -0.795886  0.05279  2.353897  0.032  -0.828769  0.046811  2.328724  0.026  -0.375411  -0.770467  0.058395  2.369811  0.037
O  O84  1  0.26155747  0.73068872  0.99148023  1  -0.655555  0.042805  2.091999  0.028  -0.584364  0.049195  2.376097  0.03  -0.61727  0.043136  2.358516  0.024  -0.322291  -0.558732  0.054394  2.386509  0.035
O  O85  1  0.73843910  0.26931485  0.00852173  1  -0.65561  0.042812  2.09198  0.028  -0.584414  0.049193  2.376075  0.03  -0.617318  0.043136  2.358486  0.024  -0.322289  -0.558786  0.054393  2.386489  0.035
O  O86  1  0.11100009  0.77377935  0.19522287  1  -0.62382  0.003268  2.000496  0.004  -0.567485  0.006684  2.225603  0.007  -0.59339  0.005049  2.214923  0.006  -0.309194  -0.549024  0.009142  2.232317  0.01
O  O87  1  0.88899426  0.22622017  0.80478171  1  -0.623979  0.00326  2.000482  0.004  -0.567669  0.006686  2.225574  0.007  -0.59357  0.005047  2.214891  0.006  -0.309244  -0.549205  0.009143  2.232292  0.01
