# generated using pymatgen
data_CdH11C11(SN2)2
_symmetry_space_group_name_H-M   'P 1'
_cell_length_a   8.85461831
_cell_length_b   8.89598488
_cell_length_c   9.03708205
_cell_angle_alpha   75.85728733
_cell_angle_beta   85.31672999
_cell_angle_gamma   77.12495483
_symmetry_Int_Tables_number   1
_chemical_formula_structural   CdH11C11(SN2)2
_chemical_formula_sum   'Cd2 H22 C22 S4 N8'
_cell_volume   672.64621568
_cell_formula_units_Z   2
loop_
 _symmetry_equiv_pos_site_id
 _symmetry_equiv_pos_as_xyz
  1  'x, y, z'
loop_
 _atom_site_type_symbol
 _atom_site_label
 _atom_site_symmetry_multiplicity
 _atom_site_fract_x
 _atom_site_fract_y
 _atom_site_fract_z
 _atom_site_occupancy
 _atom_site_pbe_bader_charge
 _atom_site_pbe_bader_spin_density
 _atom_site_pbe_cm5_charge
 _atom_site_pbe_ddec_charge
 _atom_site_pbe_ddec_spin_density
 _atom_site_pbe_ddec_sum_bond_order
 _atom_site_pbe_magmom
Cd  Cd0  1  0.19064254  0.88593040  0.26197562  1  1.144263  0  0.726474  0.75883  0  2.446372  0
Cd  Cd1  1  0.80935798  0.11407080  0.73802196  1  1.144286  0  0.726488  0.758791  0  2.446301  0
H  H2  1  0.07997068  0.59367143  0.37327474  1  0.064967  0  0.08912  0.132637  0  1.050269  0
H  H3  1  0.92002984  0.40632744  0.62672672  1  0.064919  0  0.089105  0.132604  0  1.050256  0
H  H4  1  0.11562879  0.44295338  0.26864768  1  0.057549  0  0.086576  0.13833  0  1.021792  0
H  H5  1  0.88437985  0.55704375  0.73135686  1  0.057765  0  0.086619  0.13834  0  1.021668  0
H  H6  1  0.14859288  0.39154044  0.46581340  1  0.055278  0  0.090779  0.136609  0  1.024605  0
H  H7  1  0.85141228  0.60845744  0.53418904  1  0.05533  0  0.090734  0.136568  0  1.024658  0
H  H8  1  0.45709189  0.26274043  0.31243370  1  0.112825  0  0.09217  0.131168  0  1.070836  0
H  H9  1  0.54291906  0.73725968  0.68756995  1  0.11271  0  0.09217  0.131134  0  1.070868  0
H  H10  1  0.76309031  0.27879001  0.24134017  1  0.061937  0  0.096682  0.150468  0  1.006672  0
H  H11  1  0.23691368  0.72121276  0.75866229  1  0.061864  0  0.096709  0.150521  0  1.006591  0
H  H12  1  0.78930417  0.47186186  0.14868821  1  0.051324  0  0.095033  0.138235  0  1.002731  0
H  H13  1  0.21070215  0.52813925  0.85131335  1  0.051323  0  0.095036  0.138237  0  1.002728  0
H  H14  1  0.81574822  0.39965550  0.34873571  1  0.05627  0  0.097791  0.147533  0  1.00011  0
H  H15  1  0.18426041  0.60034511  0.65126800  1  0.056545  0  0.097791  0.147539  0  1.000191  0
H  H16  1  0.58710139  0.79013268  0.37039416  1  0.098543  0  0.104209  0.098314  0  1.012737  0
H  H17  1  0.41290144  0.20986803  0.62959671  1  0.098515  0  0.104188  0.098255  0  1.012644  0
H  H18  1  0.72213740  0.69438722  0.25045422  1  0.106406  0  0.123365  0.122355  0  0.962056  0
H  H19  1  0.27785965  0.30562400  0.74954123  1  0.106487  0  0.123304  0.122203  0  0.962141  0
H  H20  1  0.45397770  0.73186872  0.01125948  1  0.080574  0  0.105608  0.114141  0  1.000937  0
H  H21  1  0.54601587  0.26813744  0.98874078  1  0.080806  0  0.105631  0.114126  0  1.00094  0
H  H22  1  0.62329616  0.05017151  0.21540009  1  0.076416  0  0.092509  0.099393  0  1.039141  0
H  H23  1  0.37669856  0.94983557  0.78459876  1  0.076366  0  0.092507  0.099407  0  1.039136  0
C  C24  1  0.15749905  0.48267942  0.36075001  1  -0.049524  0  -0.244103  -0.436725  0  3.934867  0
C  C25  1  0.84250611  0.51731614  0.63925408  1  -0.049824  0  -0.244057  -0.436653  0  3.934765  0
C  C26  1  0.32055793  0.50162968  0.32895119  1  0.42326  0  0.097072  0.282264  0  4.017458  0
C  C27  1  0.67944723  0.49836936  0.67105207  1  0.423147  0  0.097056  0.282326  0  4.017349  0
C  C28  1  0.45280477  0.38649254  0.30778833  1  0.017899  0  -0.128427  -0.355064  0  3.959051  0
C  C29  1  0.54720734  0.61350616  0.69221778  1  0.018193  0  -0.128498  -0.355042  0  3.959058  0
C  C30  1  0.57731382  0.46235559  0.28243685  1  0.320096  0  0.103454  0.219488  0  3.976721  0
C  C31  1  0.42269481  0.53764502  0.71756465  1  0.319996  0  0.103459  0.219439  0  3.97669  0
C  C32  1  0.74501243  0.40093306  0.25371435  1  -0.018262  0  -0.236353  -0.442948  0  3.972406  0
C  C33  1  0.25499157  0.59907202  0.74628866  1  -0.0184  0  -0.23639  -0.443019  0  3.972316  0
C  C34  1  0.59838771  0.74473231  0.26621137  1  0.278913  0  -0.04479  -0.127555  0  3.914406  0
C  C35  1  0.40161629  0.25527509  0.73378556  1  0.27847  0  -0.044734  -0.127384  0  3.914306  0
C  C36  1  0.54330558  0.87677527  0.12925144  1  -0.046257  0  -0.023771  0.062186  0  4.020274  0
C  C37  1  0.45668915  0.12323064  0.87074880  1  -0.046699  0  -0.023777  0.06215  0  4.020369  0
C  C38  1  0.47401243  0.84941922  0.00705723  1  -0.060747  0  -0.097239  -0.138228  0  4.015368  0
C  C39  1  0.52598461  0.15058505  0.99293989  1  -0.060561  0  -0.097283  -0.138252  0  4.015493  0
C  C40  1  0.56895192  0.02824088  0.12081060  1  -0.026838  0  -0.095397  -0.124571  0  3.989719  0
C  C41  1  0.43104628  0.97176313  0.87918760  1  -0.026912  0  -0.095429  -0.124639  0  3.989721  0
C  C42  1  0.14660882  0.07359115  0.54460455  1  0.575746  0  0.155718  0.273862  0  4.291441  0
C  C43  1  0.85338358  0.92640019  0.45539714  1  0.57414  0  0.155612  0.273798  0  4.291113  0
C  C44  1  0.00047194  0.81137194  0.98891739  1  0.574375  0  0.15389  0.279046  0  4.262195  0
C  C45  1  0.99952047  0.18863216  0.01108347  1  0.574253  0  0.153856  0.27898  0  4.262491  0
S  S46  1  0.31253452  0.99223402  0.47703275  1  0.076018  0  -0.11956  -0.279274  0  2.591424  0
S  S47  1  0.68746716  0.00775767  0.52295817  1  0.077018  0  -0.119538  -0.279185  0  2.591704  0
S  S48  1  0.86434502  0.80973912  0.87791223  1  0.080094  0  -0.126346  -0.272046  0  2.534322  0
S  S49  1  0.13564507  0.19026199  0.12208841  1  0.080467  0  -0.1264  -0.272117  0  2.534586  0
N  N50  1  0.10142222  0.80944310  0.06757326  1  -1.272096  0  -0.388755  -0.446994  0  3.147064  0
N  N51  1  0.89856671  0.19055826  0.93243074  1  -1.272286  0  -0.388675  -0.446868  0  3.147074  0
N  N52  1  0.51773132  0.61552448  0.28971284  1  -0.800393  0  -0.152774  0.100259  0  3.752269  0
N  N53  1  0.48227384  0.38447688  0.71028655  1  -0.799981  0  -0.152648  0.100526  0  3.752193  0
N  N54  1  0.36139482  0.64134882  0.31767610  1  -0.741118  0  -0.258759  -0.300351  0  3.343539  0
N  N55  1  0.63860570  0.35865121  0.68232840  1  -0.74114  0  -0.258749  -0.300491  0  3.343621  0
N  N56  1  0.02886934  0.13679154  0.59532453  1  -1.297398  0  -0.39417  -0.461302  0  3.176997  0
N  N57  1  0.97114046  0.86318913  0.40466727  1  -1.296919  0  -0.394095  -0.461354  0  3.176378  0
