# generated using pymatgen
data_Zn4H4C24S4N2O17F2
_symmetry_space_group_name_H-M   'P 1'
_cell_length_a   19.64326697
_cell_length_b   19.64792540
_cell_length_c   33.35409609
_cell_angle_alpha   79.04884682
_cell_angle_beta   79.06299311
_cell_angle_gamma   63.79955565
_symmetry_Int_Tables_number   1
_chemical_formula_structural   Zn4H4C24S4N2O17F2
_chemical_formula_sum   'Zn16 H16 C96 S16 N8 O68 F8'
_cell_volume   11257.85096068
_cell_formula_units_Z   4
loop_
 _symmetry_equiv_pos_site_id
 _symmetry_equiv_pos_as_xyz
  1  'x, y, z'
loop_
 _atom_site_type_symbol
 _atom_site_label
 _atom_site_symmetry_multiplicity
 _atom_site_fract_x
 _atom_site_fract_y
 _atom_site_fract_z
 _atom_site_occupancy
 _atom_site_pbe_bader_charge
 _atom_site_pbe_bader_spin_density
 _atom_site_pbe_cm5_charge
 _atom_site_pbe_ddec_charge
 _atom_site_pbe_ddec_spin_density
 _atom_site_pbe_ddec_sum_bond_order
 _atom_site_pbe_magmom
Zn  Zn0  1  0.05489463  0.40170264  0.47718837  1  1.315109  0  0.672461  0.971012  0  2.335235  0
Zn  Zn1  1  0.98707132  0.48310139  0.56003984  1  1.33523  0  0.690581  0.991518  0  2.327708  0
Zn  Zn2  1  0.05725161  0.56362938  0.48184860  1  1.321652  0  0.683958  0.982734  0  2.339886  0
Zn  Zn3  1  0.89997156  0.55445870  0.47911311  1  1.323283  0  0.683172  0.980393  0  2.345544  0
Zn  Zn4  1  0.69485473  0.34934798  0.27169475  1  1.317588  0  0.673706  0.970456  0  2.346562  0
Zn  Zn5  1  0.68850738  0.19106598  0.26574607  1  1.313591  0  0.673364  0.965155  0  2.376809  0
Zn  Zn6  1  0.77114306  0.26482374  0.18957208  1  1.32393  0  0.684704  0.985067  0  2.329476  0
Zn  Zn7  1  0.84789302  0.19415207  0.27285939  1  1.324614  0  0.683732  0.976806  0  2.35491  0
Zn  Zn8  1  0.26762790  0.76579934  0.68861501  1  1.302086  0  0.6717  0.960437  0  2.370153  0
Zn  Zn9  1  0.35024457  0.69558099  0.77038376  1  1.322007  0  0.681828  0.97749  0  2.348543  0
Zn  Zn10  1  0.19451801  0.84871724  0.77046046  1  1.319771  0  0.676105  0.972459  0  2.356609  0
Zn  Zn11  1  0.19212765  0.68710505  0.76595667  1  1.32632  0  0.684561  0.984771  0  2.323217  0
Zn  Zn12  1  0.56100394  0.06033229  0.98287973  1  1.313529  0  0.673517  0.966166  0  2.359948  0
Zn  Zn13  1  0.40190954  0.05389854  0.97709827  1  1.316834  0  0.673211  0.964336  0  2.356875  0
Zn  Zn14  1  0.55781530  0.90002750  0.97804739  1  1.319005  0  0.677084  0.970081  0  2.370943  0
Zn  Zn15  1  0.48415420  0.98197320  0.05955657  1  1.317464  0  0.67543  0.966721  0  2.375174  0
H  H16  1  0.74708362  0.45343416  0.35011559  1  0.148684  0  0.123273  0.153315  0  0.970852  0
H  H17  1  0.00054882  0.29924724  0.39954651  1  0.103487  0  0.122495  0.152209  0  0.972344  0
H  H18  1  0.20516776  0.69777959  0.59829747  1  0.096224  0  0.12109  0.151538  0  0.974577  0
H  H19  1  0.04835477  0.55152906  0.64899998  1  0.151672  0  0.127415  0.161344  0  0.96318  0
H  H20  1  0.46285724  0.24018242  0.34199630  1  0.119449  0  0.124458  0.150436  0  0.966464  0
H  H21  1  0.48310647  0.70158103  0.59972500  1  0.132529  0  0.123308  0.148878  0  0.96822  0
H  H22  1  0.20463148  0.97919820  0.59995653  1  0.128362  0  0.123359  0.149743  0  0.968324  0
H  H23  1  0.95187818  0.96317854  0.34170616  1  0.121478  0  0.127886  0.156131  0  0.960395  0
H  H24  1  0.64968043  0.15292675  0.04822355  1  0.110937  0  0.123492  0.154246  0  0.970983  0
H  H25  1  0.59649338  0.10510536  0.19970683  1  0.151992  0  0.122301  0.153271  0  0.973501  0
H  H26  1  0.54390693  0.76890732  0.14839951  1  0.115117  0  0.125184  0.1522  0  0.963993  0
H  H27  1  0.16068118  0.14315958  0.04103100  1  0.152213  0  0.124659  0.150762  0  0.966497  0
H  H28  1  0.29958697  0.99806180  0.90077710  1  0.134038  0  0.121512  0.151969  0  0.974814  0
H  H29  1  0.45062238  0.74443576  0.85112698  1  0.132859  0  0.126807  0.160369  0  0.964586  0
H  H30  1  0.29818523  0.28327613  0.90312246  1  0.112097  0  0.124301  0.150238  0  0.966686  0
H  H31  1  0.78754520  0.01211528  0.90589685  1  0.121695  0  0.124844  0.151523  0  0.96475  0
C  C32  1  0.06447903  0.31719811  0.55924970  1  1.601472  0  0.221937  0.619976  0  4.209815  0
C  C33  1  0.07003723  0.57150598  0.56678901  1  1.566077  0  0.233254  0.623919  0  4.152931  0
C  C34  1  0.18017503  0.44205594  0.43756303  1  1.625618  0  0.222511  0.618955  0  4.208443  0
C  C35  1  0.93505831  0.68285231  0.43844740  1  1.631659  0  0.222467  0.616431  0  4.215354  0
C  C36  1  0.92817680  0.43132934  0.43197223  1  1.593511  0  0.232665  0.626051  0  4.151845  0
C  C37  1  0.82115131  0.56017865  0.56198069  1  1.617642  0  0.222784  0.615984  0  4.210806  0
C  C38  1  0.56707707  0.31015792  0.31283276  1  1.588961  0  0.219884  0.613315  0  4.212403  0
C  C39  1  0.67817017  0.18758402  0.17911468  1  1.593182  0  0.233305  0.625188  0  4.151779  0
C  C40  1  0.69356275  0.43119508  0.18906041  1  1.622385  0  0.221023  0.617812  0  4.212637  0
C  C41  1  0.93571735  0.18498516  0.19120496  1  1.611144  0  0.223078  0.618333  0  4.211414  0
C  C42  1  0.81732446  0.31869957  0.32011269  1  1.610132  0  0.231733  0.624926  0  4.156027  0
C  C43  1  0.81221107  0.06339973  0.30790430  1  1.586627  0  0.220228  0.609526  0  4.218855  0
C  C44  1  0.43486581  0.69131658  0.68689185  1  1.562455  0  0.220214  0.613553  0  4.21193  0
C  C45  1  0.31834504  0.81859382  0.81874231  1  1.589541  0  0.231476  0.621206  0  4.157884  0
C  C46  1  0.18719168  0.93335986  0.68693049  1  1.563455  0  0.21991  0.611233  0  4.215763  0
C  C47  1  0.06752910  0.81032011  0.80862644  1  1.608058  0  0.22191  0.616916  0  4.213268  0
C  C48  1  0.18671183  0.67460032  0.68045720  1  1.585616  0  0.230931  0.625008  0  4.153365  0
C  C49  1  0.31064602  0.56968921  0.81229146  1  1.621377  0  0.222541  0.615968  0  4.215104  0
C  C50  1  0.43739863  0.18404184  0.93811627  1  1.592471  0  0.219909  0.612142  0  4.215622  0
C  C51  1  0.43314073  0.92593818  0.93152858  1  1.586966  0  0.23094  0.622681  0  4.157354  0
C  C52  1  0.68537549  0.94019253  0.93782281  1  1.569453  0  0.220226  0.611678  0  4.214927  0
C  C53  1  0.56291028  0.81507482  0.06154919  1  1.608337  0  0.220793  0.610958  0  4.218868  0
C  C54  1  0.56867203  0.06950088  0.06901913  1  1.574534  0  0.231344  0.623766  0  4.159297  0
C  C55  1  0.31596697  0.06250502  0.06005477  1  1.582403  0  0.219152  0.611231  0  4.217607  0
C  C56  1  0.89883744  0.40448921  0.40271411  1  0.047439  0  -0.013768  -0.110662  0  3.955248  0
C  C57  1  0.84762456  0.34691078  0.34816211  1  -0.006458  0  -0.0149  -0.113565  0  3.959887  0
C  C58  1  0.82742110  0.44695302  0.38792751  1  0.451958  0  0.108177  0.270328  0  4.042125  0
C  C59  1  0.91942799  0.30481265  0.36258486  1  0.514026  0  0.107051  0.270257  0  4.042528  0
C  C60  1  0.80247114  0.41909519  0.36120361  1  0.040148  0  -0.084869  -0.197648  0  3.965418  0
C  C61  1  0.94458333  0.33293575  0.38905421  1  0.050461  0  -0.085582  -0.199186  0  3.969385  0
C  C62  1  0.10000549  0.59943378  0.59517051  1  0.051426  0  -0.013638  -0.112473  0  3.954535  0
C  C63  1  0.15589927  0.64755414  0.65204429  1  0.044641  0  -0.014553  -0.114158  0  3.959574  0
C  C64  1  0.14433877  0.64132095  0.58183141  1  0.443549  0  0.108569  0.272342  0  4.044068  0
C  C65  1  0.11111377  0.60613353  0.66537278  1  0.469703  0  0.109114  0.272845  0  4.041773  0
C  C66  1  0.17141615  0.66503067  0.60951269  1  0.066561  0  -0.087037  -0.202675  0  3.973509  0
C  C67  1  0.08347043  0.58289474  0.63771381  1  0.068891  0  -0.081238  -0.194947  0  3.950409  0
C  C68  1  0.30596316  0.45507573  0.40297887  1  0.316493  0  0.078932  0.030678  0  3.934974  0
C  C69  1  0.44642542  0.29694186  0.34999760  1  0.087295  0  -0.086599  -0.130848  0  3.959083  0
C  C70  1  0.25837226  0.41734069  0.41537202  1  -0.125786  0  -0.007025  -0.150337  0  3.905669  0
C  C71  1  0.49199530  0.33618941  0.33795473  1  -0.203829  0  -0.020697  -0.11768  0  3.970053  0
C  C72  1  0.37808954  0.34107941  0.37336666  1  -0.155586  0  -0.018217  -0.003651  0  4.068121  0
C  C73  1  0.37355798  0.41266985  0.37839755  1  -0.131258  0  -0.016247  -0.067998  0  4.081011  0
C  C74  1  0.72874283  0.58063999  0.63088453  1  0.355935  0  0.079072  0.030187  0  3.932708  0
C  C75  1  0.52705325  0.67379369  0.62031342  1  0.021673  0  -0.08755  -0.131424  0  3.963598  0
C  C76  1  0.74705898  0.58810977  0.58829144  1  -0.161093  0  -0.006053  -0.150738  0  3.90741  0
C  C77  1  0.51075221  0.66548655  0.66268447  1  -0.159051  0  -0.021623  -0.120706  0  3.972649  0
C  C78  1  0.60686800  0.64176204  0.60884637  1  -0.175245  0  -0.018566  -0.007496  0  4.071787  0
C  C79  1  0.64899206  0.60982894  0.64283495  1  -0.113624  0  -0.015505  -0.067604  0  4.081006  0
C  C80  1  0.07131743  0.22614724  0.62799917  1  0.322758  0  0.07873  0.029589  0  3.938188  0
C  C81  1  0.17406364  0.02389916  0.61994522  1  0.014253  0  -0.087641  -0.134088  0  3.963011  0
C  C82  1  0.08303537  0.24313632  0.58548262  1  -0.12015  0  -0.00752  -0.151334  0  3.913284  0
C  C83  1  0.16191547  0.00891959  0.66227371  1  -0.131613  0  -0.020515  -0.116418  0  3.968733  0
C  C84  1  0.14147541  0.10343671  0.60766511  1  -0.139771  0  -0.018449  -0.003059  0  4.068566  0
C  C85  1  0.10560321  0.14679374  0.64098668  1  -0.148045  0  -0.015564  -0.0677  0  4.079298  0
C  C86  1  0.83687414  0.80395475  0.39874319  1  0.311684  0  0.078261  0.029089  0  3.939949  0
C  C87  1  0.90551179  0.94520750  0.34779814  1  0.093831  0  -0.083225  -0.127255  0  3.948435  0
C  C88  1  0.90629659  0.75935493  0.41440700  1  -0.133102  0  -0.005936  -0.149754  0  3.908492  0
C  C89  1  0.83586523  0.98833627  0.33288572  1  -0.19932  0  -0.020977  -0.116922  0  3.971954  0
C  C90  1  0.90587139  0.87728362  0.37132152  1  -0.176657  0  -0.017987  -0.006428  0  4.068563  0
C  C91  1  0.83659876  0.87061278  0.37355539  1  -0.115828  0  -0.016234  -0.067912  0  4.083682  0
C  C92  1  0.65047089  0.15867965  0.15000577  1  0.042706  0  -0.014241  -0.112921  0  3.95164  0
C  C93  1  0.59562707  0.09947102  0.09794903  1  -0.006162  0  -0.014971  -0.114014  0  3.957544  0
C  C94  1  0.66456252  0.17110080  0.10686509  1  0.450042  0  0.109025  0.272511  0  4.038833  0
C  C95  1  0.58143222  0.08720966  0.14108653  1  0.481212  0  0.107546  0.271527  0  4.039411  0
C  C96  1  0.63785195  0.14231911  0.08148630  1  0.071303  0  -0.084638  -0.198173  0  3.961842  0
C  C97  1  0.60819801  0.11587403  0.16645831  1  0.073349  0  -0.086702  -0.200663  0  3.968739  0
C  C98  1  0.67546520  0.52211522  0.11972883  1  0.334082  0  0.079739  0.03175  0  3.937473  0
C  C99  1  0.57521373  0.72428357  0.12841173  1  0.07217  0  -0.085093  -0.131058  0  3.954798  0
C  C100  1  0.66498731  0.50474300  0.16230649  1  -0.109617  0  -0.008533  -0.154278  0  3.911696  0
C  C101  1  0.58784934  0.73946942  0.08611530  1  -0.206206  0  -0.020649  -0.117736  0  3.969171  0
C  C102  1  0.60853588  0.64470331  0.14057069  1  -0.118671  0  -0.01757  -0.002962  0  4.065446  0
C  C103  1  0.64507664  0.60168341  0.10715484  1  -0.159243  0  -0.01638  -0.070051  0  4.078993  0
C  C104  1  0.08520071  0.11634146  0.17901102  1  0.333482  0  0.078794  0.029746  0  3.937296  0
C  C105  1  0.16988693  0.12542602  0.07319721  1  0.076739  0  -0.085863  -0.130687  0  3.958948  0
C  C106  1  0.01203373  0.15567082  0.16701794  1  -0.143236  0  -0.006961  -0.151895  0  3.908953  0
C  C107  1  0.24174463  0.08669273  0.08601626  1  -0.200761  0  -0.021177  -0.118224  0  3.970372  0
C  C108  1  0.11295085  0.13737034  0.10741676  1  -0.219398  0  -0.018069  -0.00488  0  4.066848  0
C  C109  1  0.14310728  0.10712305  0.14531991  1  -0.155193  0  -0.016947  -0.070676  0  4.082057  0
C  C110  1  0.34580273  0.84688526  0.84826005  1  0.046105  0  -0.013295  -0.111875  0  3.954306  0
C  C111  1  0.40481642  0.89619733  0.90316835  1  0.077393  0  -0.015015  -0.113982  0  3.956941  0
C  C112  1  0.30431658  0.91828699  0.86318812  1  0.465293  0  0.10696  0.270592  0  4.042069  0
C  C113  1  0.44600921  0.82445734  0.88855825  1  0.476182  0  0.109443  0.272775  0  4.038468  0
C  C114  1  0.33294994  0.94239495  0.88990368  1  0.005792  0  -0.087839  -0.201889  0  3.975059  0
C  C115  1  0.41734352  0.80029663  0.86184267  1  0.03899  0  -0.081744  -0.195388  0  3.954082  0
C  C116  1  0.40409669  0.45347585  0.85698109  1  0.2527  0  0.078148  0.028181  0  3.935407  0
C  C117  1  0.34307093  0.30301394  0.89887755  1  0.050542  0  -0.086019  -0.130218  0  3.959249  0
C  C118  1  0.33560738  0.49710507  0.84015514  1  -0.050244  0  -0.005835  -0.150733  0  3.903932  0
C  C119  1  0.41227876  0.26040726  0.91436728  1  -0.154949  0  -0.02298  -0.120507  0  3.972289  0
C  C120  1  0.34077334  0.37316717  0.87747614  1  -0.202638  0  -0.01741  -0.005485  0  4.064513  0
C  C121  1  0.40822272  0.38205944  0.87745426  1  -0.130932  0  -0.015789  -0.067882  0  4.083154  0
C  C122  1  0.94863468  0.79216047  0.85044067  1  0.279366  0  0.079136  0.030803  0  3.935268  0
C  C123  1  0.80460992  0.95453701  0.89894348  1  0.037193  0  -0.086151  -0.131088  0  3.957684  0
C  C124  1  0.99440178  0.83135998  0.83591045  1  -0.08137  0  -0.007163  -0.151235  0  3.908074  0
C  C125  1  0.76017309  0.91434336  0.91250863  1  -0.163298  0  -0.021816  -0.120405  0  3.972735  0
C  C126  1  0.87280367  0.91003557  0.87560768  1  -0.129027  0  -0.01817  -0.005237  0  4.069438  0
C  C127  1  0.87847302  0.83715270  0.87227092  1  -0.146155  0  -0.015414  -0.068035  0  4.079587  0
S  S128  1  0.29813924  0.32867138  0.39785106  1  0.319092  0  0.122127  0.178137  0  2.741793  0
S  S129  1  0.45241626  0.42648499  0.35427988  1  0.336182  0  0.111145  0.173044  0  2.794899  0
S  S130  1  0.66616271  0.63329646  0.56304681  1  0.33175  0  0.128961  0.189497  0  2.737348  0
S  S131  1  0.59123314  0.61833978  0.68879330  1  0.346036  0  0.116642  0.181062  0  2.793175  0
S  S132  1  0.13404199  0.16131285  0.56137988  1  0.319577  0  0.118062  0.172746  0  2.73841  0
S  S133  1  0.11227905  0.09039823  0.68737593  1  0.351128  0  0.114947  0.17741  0  2.788784  0
S  S134  1  0.97028724  0.80054224  0.39917179  1  0.335844  0  0.13192  0.191739  0  2.736424  0
S  S135  1  0.77123412  0.94683037  0.34651555  1  0.33414  0  0.10762  0.167802  0  2.799642  0
S  S136  1  0.61514279  0.58643064  0.18667794  1  0.30964  0  0.122871  0.180191  0  2.739058  0
S  S137  1  0.64022152  0.65836886  0.06093386  1  0.342704  0  0.117217  0.181664  0  2.786013  0
S  S138  1  0.01451345  0.17898161  0.11420494  1  0.38043  0  0.130948  0.191446  0  2.738727  0
S  S139  1  0.24104159  0.06545845  0.13923574  1  0.37644  0  0.111679  0.174799  0  2.794141  0
S  S140  1  0.27514230  0.45150466  0.85104527  1  0.342584  0  0.135374  0.197647  0  2.729236  0
S  S141  1  0.47492199  0.30434206  0.90298133  1  0.347398  0  0.110619  0.172916  0  2.797653  0
S  S142  1  0.95226707  0.92261769  0.85038470  1  0.320909  0  0.124913  0.182406  0  2.737431  0
S  S143  1  0.79976396  0.82351475  0.89681774  1  0.353128  0  0.115864  0.179753  0  2.788459  0
N  N144  1  0.29492996  0.52746479  0.41466017  1  0.368415  0  0.058687  0.527206  0  4.221908  0
N  N145  1  0.78129153  0.55222431  0.66197402  1  0.404339  0  0.061524  0.530735  0  4.216418  0
N  N146  1  0.02541962  0.27995916  0.65770859  1  0.364335  0  0.059916  0.52888  0  4.218786  0
N  N147  1  0.76774408  0.79101186  0.40819827  1  0.379233  0  0.059164  0.530786  0  4.217512  0
N  N148  1  0.70871794  0.46843460  0.08912885  1  0.375749  0  0.05904  0.528129  0  4.220675  0
N  N149  1  0.10501534  0.08143498  0.22026717  1  0.374732  0  0.058469  0.529862  0  4.217044  0
N  N150  1  0.46554696  0.47584089  0.85733052  1  0.381721  0  0.059501  0.529773  0  4.21592  0
N  N151  1  0.96844487  0.71220984  0.84768304  1  0.361872  0  0.059541  0.529317  0  4.217236  0
O  O152  1  0.00042250  0.49993470  0.49942709  1  -1.234169  0  -0.573745  -1.04552  0  2.526652  0
O  O153  1  0.06533238  0.31531363  0.52096200  1  -1.159524  0  -0.3153  -0.541212  0  2.300405  0
O  O154  1  0.02202814  0.54395039  0.58365736  1  -1.156673  0  -0.308052  -0.536195  0  2.325383  0
O  O155  1  0.14083190  0.51302736  0.43949276  1  -1.164844  0  -0.308886  -0.528946  0  2.344934  0
O  O156  1  0.05200768  0.37474834  0.57633486  1  -1.158299  0  -0.309148  -0.531547  0  2.34284  0
O  O157  1  0.15887671  0.38821492  0.45166157  1  -1.155804  0  -0.315494  -0.542148  0  2.305507  0
O  O158  1  0.09484135  0.57664708  0.52871322  1  -1.143367  0  -0.306429  -0.533775  0  2.35372  0
O  O159  1  0.99318636  0.66634085  0.45665360  1  -1.160481  0  -0.311657  -0.53538  0  2.309557  0
O  O160  1  0.88039136  0.48791563  0.45044929  1  -1.155054  0  -0.308871  -0.535847  0  2.349723  0
O  O161  1  0.90230976  0.64005244  0.43785081  1  -1.155134  0  -0.307785  -0.526792  0  2.344069  0
O  O162  1  0.99919209  0.39405071  0.43617755  1  -1.170963  0  -0.314029  -0.545299  0  2.310425  0
O  O163  1  0.87853061  0.50700572  0.57766078  1  -1.153762  0  -0.303571  -0.52279  0  2.350836  0
O  O164  1  0.81906661  0.59168859  0.52458387  1  -1.157324  0  -0.311725  -0.534856  0  2.316296  0
O  O165  1  0.74973159  0.25028708  0.24999759  1  -1.227811  0  -0.572822  -1.0399  0  2.527718  0
O  O166  1  0.60035126  0.35503913  0.30688264  1  -1.153648  0  -0.317309  -0.544633  0  2.326394  0
O  O167  1  0.66438191  0.16668788  0.21729118  1  -1.164744  0  -0.31373  -0.544532  0  2.333091  0
O  O168  1  0.74760842  0.37397977  0.17363149  1  -1.16329  0  -0.310338  -0.532543  0  2.347004  0
O  O169  1  0.59179884  0.24572837  0.29941702  1  -1.168619  0  -0.313402  -0.534772  0  2.309743  0
O  O170  1  0.66186823  0.43320248  0.22637505  1  -1.16571  0  -0.314644  -0.53943  0  2.310606  0
O  O171  1  0.71265356  0.22997415  0.16381333  1  -1.150308  0  -0.305511  -0.531315  0  2.351503  0
O  O172  1  0.87965533  0.20466467  0.17068801  1  -1.163557  0  -0.312734  -0.538521  0  2.310638  0
O  O173  1  0.85248506  0.24845270  0.31497877  1  -1.160489  0  -0.308969  -0.536421  0  2.359811  0
O  O174  1  0.93183603  0.19057093  0.22895130  1  -1.148204  0  -0.307128  -0.526592  0  2.343594  0
O  O175  1  0.75773487  0.36788664  0.30398492  1  -1.169932  0  -0.313508  -0.544109  0  2.313298  0
O  O176  1  0.74412163  0.09332342  0.29817690  1  -1.167712  0  -0.318546  -0.545316  0  2.337768  0
O  O177  1  0.86130055  0.09166545  0.29855552  1  -1.165133  0  -0.308896  -0.526174  0  2.313762  0
O  O178  1  0.25075036  0.74964974  0.74885865  1  -1.219453  0  -0.571792  -1.03897  0  2.525442  0
O  O179  1  0.37676747  0.72120354  0.66706298  1  -1.168245  0  -0.315526  -0.538589  0  2.305542  0
O  O180  1  0.35912987  0.74951414  0.81147659  1  -1.165144  0  -0.30851  -0.535102  0  2.322272  0
O  O181  1  0.16724069  0.93340187  0.72575759  1  -1.147955  0  -0.31608  -0.541831  0  2.330007  0
O  O182  1  0.43461853  0.68136228  0.72594906  1  -1.136913  0  -0.315486  -0.540972  0  2.335058  0
O  O183  1  0.22615482  0.87537600  0.66748526  1  -1.17183  0  -0.313402  -0.534189  0  2.309714  0
O  O184  1  0.25779409  0.86523248  0.80315351  1  -1.153874  0  -0.309162  -0.536514  0  2.358991  0
O  O185  1  0.10227808  0.85263211  0.80769326  1  -1.147633  0  -0.314124  -0.538552  0  2.312087  0
O  O186  1  0.18245268  0.64855911  0.71837012  1  -1.15915  0  -0.309141  -0.538332  0  2.348401  0
O  O187  1  0.08806882  0.75510951  0.78790136  1  -1.162799  0  -0.307542  -0.527388  0  2.344735  0
O  O188  1  0.21535618  0.72182894  0.66380520  1  -1.165068  0  -0.313224  -0.543367  0  2.326141  0
O  O189  1  0.36149307  0.59157784  0.79370432  1  -1.1584  0  -0.307857  -0.528464  0  2.353279  0
O  O190  1  0.23915228  0.60230814  0.80845184  1  -1.142868  0  -0.309166  -0.531738  0  2.30631  0
O  O191  1  0.50070979  0.99973102  0.99923185  1  -1.223235  0  -0.570316  -1.032857  0  2.526283  0
O  O192  1  0.50443873  0.15601745  0.94911152  1  -1.17676  0  -0.317954  -0.545093  0  2.338466  0
O  O193  1  0.38925269  0.99314433  0.94093781  1  -1.17326  0  -0.314861  -0.546095  0  2.328019  0
O  O194  1  0.65360056  0.89389788  0.94489071  1  -1.156183  0  -0.315144  -0.539527  0  2.336984  0
O  O195  1  0.39057396  0.15301120  0.94556973  1  -1.162401  0  -0.314474  -0.536171  0  2.307656  0
O  O196  1  0.65935714  0.00548939  0.95049356  1  -1.166303  0  -0.313987  -0.535858  0  2.306658  0
O  O197  1  0.49781601  0.88266817  0.94380564  1  -1.156592  0  -0.307053  -0.53275  0  2.363418  0
O  O198  1  0.58362032  0.81529110  0.02280915  1  -1.174853  0  -0.314775  -0.539771  0  2.335758  0
O  O199  1  0.53469345  0.02684127  0.08468584  1  -1.149917  0  -0.309375  -0.536985  0  2.364103  0
O  O200  1  0.52311050  0.87301926  0.08097350  1  -1.165538  0  -0.313146  -0.532761  0  2.309425  0
O  O201  1  0.58267491  0.08939508  0.03072729  1  -1.163715  0  -0.312307  -0.54185  0  2.32552  0
O  O202  1  0.31500760  0.07635655  0.02116174  1  -1.166609  0  -0.312974  -0.534407  0  2.304017  0
O  O203  1  0.37476211  0.02909917  0.07946723  1  -1.174098  0  -0.316137  -0.542259  0  2.339968  0
O  O204  1  0.32640720  0.56354712  0.38943066  1  -0.4571  0  -0.144288  -0.340001  0  1.864688  0
O  O205  1  0.25929244  0.54657945  0.44833031  1  -0.413619  0  -0.121773  -0.304733  0  1.895767  0
O  O206  1  0.75785807  0.52579962  0.69589083  1  -0.456475  0  -0.136254  -0.329961  0  1.86551  0
O  O207  1  0.84213363  0.55900738  0.65370470  1  -0.432097  0  -0.125193  -0.310371  0  1.888841  0
O  O208  1  0.04533015  0.26023990  0.69294773  1  -0.439748  0  -0.139177  -0.332962  0  1.857061  0
O  O209  1  0.96967491  0.33816354  0.64696251  1  -0.41531  0  -0.120891  -0.303533  0  1.893696  0
O  O210  1  0.72292547  0.82028242  0.38147871  1  -0.446387  0  -0.146138  -0.34214  0  1.861575  0
O  O211  1  0.75627341  0.75586466  0.44170474  1  -0.428733  0  -0.128682  -0.31431  0  1.891297  0
O  O212  1  0.73994153  0.49051589  0.05645872  1  -0.451278  0  -0.140854  -0.335302  0  1.85995  0
O  O213  1  0.70135527  0.40790390  0.09641152  1  -0.421471  0  -0.123543  -0.307594  0  1.893852  0
O  O214  1  0.16784352  0.07467148  0.22746164  1  -0.450631  0  -0.144143  -0.339467  0  1.859325  0
O  O215  1  0.06147578  0.05825096  0.24427456  1  -0.426336  0  -0.128543  -0.313826  0  1.886041  0
O  O216  1  0.53010247  0.42205005  0.85965935  1  -0.452762  0  -0.140851  -0.335363  0  1.862286  0
O  O217  1  0.45014938  0.54400186  0.85716072  1  -0.423686  0  -0.128019  -0.31279  0  1.887469  0
O  O218  1  0.91342527  0.69692496  0.84733366  1  -0.442642  0  -0.138075  -0.331561  0  1.85831  0
O  O219  1  0.03588925  0.66546506  0.84782278  1  -0.413481  0  -0.126838  -0.312635  0  1.891624  0
F  F220  1  0.78074523  0.51741060  0.39872901  1  -0.620687  0  -0.095278  -0.129016  0  1.347196  0
F  F221  1  0.96741115  0.23547500  0.35067674  1  -0.620354  0  -0.096021  -0.129801  0  1.347088  0
F  F222  1  0.16140475  0.66107006  0.54134221  1  -0.619983  0  -0.095489  -0.128556  0  1.349561  0
F  F223  1  0.09238405  0.58827550  0.70586165  1  -0.626868  0  -0.093463  -0.127034  0  1.348408  0
F  F224  1  0.70529369  0.21123416  0.08841441  1  -0.625395  0  -0.092006  -0.124323  0  1.352158  0
F  F225  1  0.54067947  0.04698680  0.15967194  1  -0.628863  0  -0.099002  -0.133275  0  1.346613  0
F  F226  1  0.23416658  0.96634888  0.85226645  1  -0.621536  0  -0.098825  -0.133262  0  1.346543  0
F  F227  1  0.51562809  0.77617709  0.89990395  1  -0.620349  0  -0.093923  -0.127063  0  1.349469  0
