# generated using pymatgen
data_CdH14C6(IN)2
_symmetry_space_group_name_H-M   'P 1'
_cell_length_a   9.50184530
_cell_length_b   10.94443094
_cell_length_c   12.01682663
_cell_angle_alpha   89.99994337
_cell_angle_beta   89.99995503
_cell_angle_gamma   109.24809918
_symmetry_Int_Tables_number   1
_chemical_formula_structural   CdH14C6(IN)2
_chemical_formula_sum   'Cd4 H56 C24 I8 N8'
_cell_volume   1179.80141843
_cell_formula_units_Z   4
loop_
 _symmetry_equiv_pos_site_id
 _symmetry_equiv_pos_as_xyz
  1  'x, y, z'
loop_
 _atom_site_type_symbol
 _atom_site_label
 _atom_site_symmetry_multiplicity
 _atom_site_fract_x
 _atom_site_fract_y
 _atom_site_fract_z
 _atom_site_occupancy
 _atom_site_pbe_bader_spin_density
 _atom_site_pbe_cm5_charge
 _atom_site_pbe_ddec_charge
 _atom_site_pbe_ddec_spin_density
 _atom_site_pbe_ddec_sum_bond_order
 _atom_site_pbe_magmom
Cd  Cd0  1  0.73156329  0.49978323  0.85582782  1  0  0.64757  0.723447  0  2.244524  0
Cd  Cd1  1  0.26843910  0.50021616  0.35582824  1  0  0.647574  0.723446  0  2.244533  0
Cd  Cd2  1  0.70484841  0.45572130  0.48885160  1  0  0.325725  0.433935  0  2.830339  0
Cd  Cd3  1  0.29515698  0.54428078  0.98885307  1  0  0.325722  0.433936  0  2.83033  0
H  H4  1  0.73460617  0.80366611  0.87208905  1  0  0.097511  0.053801  0  0.977527  0
H  H5  1  0.26539162  0.19633228  0.37208808  1  0  0.097517  0.053798  0  0.977513  0
H  H6  1  0.63496658  0.89413387  0.71816737  1  0  0.081441  0.079411  0  1.028691  0
H  H7  1  0.36503287  0.10586573  0.21816725  1  0  0.081446  0.079416  0  1.028686  0
H  H8  1  0.75694813  0.85825498  0.62213451  1  0  0.073004  0.076652  0  1.05555  0
H  H9  1  0.24305325  0.14174670  0.12213277  1  0  0.072988  0.076639  0  1.055509  0
H  H10  1  0.85119180  0.09154108  0.66371402  1  0  0.077048  0.078938  0  1.00918  0
H  H11  1  0.14880599  0.90845957  0.16371415  1  0  0.077042  0.07895  0  1.009145  0
H  H12  1  0.85159722  0.06205417  0.80773542  1  0  0.076411  0.066311  0  1.025168  0
H  H13  1  0.14840071  0.93794722  0.30773552  1  0  0.07642  0.066339  0  1.025155  0
H  H14  1  0.04085189  0.97894572  0.63584462  1  0  0.082568  0.079579  0  0.99969  0
H  H15  1  0.95914842  0.02105594  0.13584338  1  0  0.082553  0.079578  0  0.999708  0
H  H16  1  0.10720790  0.10924110  0.73101987  1  0  0.074147  0.077128  0  1.029262  0
H  H17  1  0.89279053  0.89076138  0.23101705  1  0  0.074144  0.07713  0  1.029246  0
H  H18  1  0.02563642  0.95525258  0.89083292  1  0  0.083868  0.086194  0  0.988253  0
H  H19  1  0.97435750  0.04474675  0.39083248  1  0  0.08387  0.086212  0  0.988238  0
H  H20  1  0.15374830  0.91192757  0.80611253  1  0  0.083147  0.085306  0  1.023468  0
H  H21  1  0.84625174  0.08807383  0.30611046  1  0  0.083132  0.085293  0  1.023536  0
H  H22  1  0.95062438  0.74494013  0.71065038  1  0  0.096996  0.053997  0  0.983851  0
H  H23  1  0.04937581  0.25506142  0.21064866  1  0  0.096979  0.053986  0  0.983874  0
H  H24  1  0.66760683  0.17806167  0.82692768  1  0  0.101642  0.06046  0  0.970437  0
H  H25  1  0.33239313  0.82193680  0.32692694  1  0  0.101633  0.060436  0  0.970445  0
H  H26  1  0.38206419  0.09734328  0.96738419  1  0  0.084521  0.086926  0  1.005762  0
H  H27  1  0.61793591  0.90265593  0.46738486  1  0  0.084514  0.086903  0  1.005757  0
H  H28  1  0.40253522  0.03645221  0.83455380  1  0  0.087893  0.088349  0  1.007949  0
H  H29  1  0.59746546  0.96354818  0.33455360  1  0  0.087892  0.088339  0  1.007943  0
H  H30  1  0.57703201  0.93197462  0.90783392  1  0  0.079615  0.074452  0  1.018078  0
H  H31  1  0.42296677  0.06802372  0.40783297  1  0  0.079637  0.074452  0  1.018102  0
H  H32  1  0.41271058  0.88307958  0.98697219  1  0  0.072925  0.069422  0  1.031123  0
H  H33  1  0.58728881  0.11692058  0.48697192  1  0  0.072954  0.069452  0  1.031066  0
H  H34  1  0.53476145  0.03877540  0.13708343  1  0  0.081302  0.0762  0  1.010139  0
H  H35  1  0.46523775  0.96122336  0.63708276  1  0  0.081309  0.076211  0  1.010132  0
H  H36  1  0.64543382  0.94102101  0.10586427  1  0  0.081116  0.078053  0  1.004866  0
H  H37  1  0.35456612  0.05897682  0.60586364  1  0  0.081129  0.078076  0  1.004869  0
H  H38  1  0.81071525  0.11602497  0.98568422  1  0  0.080431  0.077146  0  1.02608  0
H  H39  1  0.18928446  0.88397325  0.48568434  1  0  0.080441  0.077138  0  1.026084  0
H  H40  1  0.80104712  0.17640732  0.12062470  1  0  0.079253  0.088497  0  1.031751  0
H  H41  1  0.19895174  0.82359049  0.62062432  1  0  0.07927  0.08854  0  1.03174  0
H  H42  1  0.60821951  0.26987183  0.05654207  1  0  0.093875  0.056843  0  0.982285  0
H  H43  1  0.39178087  0.73012705  0.55654249  1  0  0.093848  0.056827  0  0.982287  0
H  H44  1  0.67540510  0.64241542  0.67109681  1  0  0.262951  0.246822  0  1.022918  0
H  H45  1  0.32459653  0.35758425  0.17109649  1  0  0.262974  0.24684  0  1.022917  0
H  H46  1  0.55688804  0.64792578  0.76870830  1  0  0.251928  0.249508  0  1.050482  0
H  H47  1  0.44311165  0.35207180  0.26870958  1  0  0.251922  0.249522  0  1.050451  0
H  H48  1  0.93661888  0.72826017  0.95511427  1  0  0.283988  0.27607  0  0.953963  0
H  H49  1  0.06338230  0.27173906  0.45511336  1  0  0.283997  0.276102  0  0.953937  0
H  H50  1  0.03758713  0.67370956  0.86916592  1  0  0.252928  0.24954  0  1.053435  0
H  H51  1  0.96241387  0.32629174  0.36916690  1  0  0.25292  0.249554  0  1.053432  0
H  H52  1  0.44437191  0.30105681  0.88117662  1  0  0.257565  0.250786  0  1.03846  0
H  H53  1  0.55562870  0.69894351  0.38117669  1  0  0.257585  0.250837  0  1.038474  0
H  H54  1  0.51274007  0.28285385  0.75961790  1  0  0.272596  0.267023  0  0.992941  0
H  H55  1  0.48726179  0.71714665  0.25961799  1  0  0.272641  0.267065  0  0.992943  0
H  H56  1  0.89714753  0.34421368  0.94366717  1  0  0.262541  0.259944  0  1.01105  0
H  H57  1  0.10285224  0.65578460  0.44366755  1  0  0.262526  0.259949  0  1.011024  0
H  H58  1  0.84420650  0.41145428  0.05030485  1  0  0.266512  0.264069  0  1.004724  0
H  H59  1  0.15579458  0.58854364  0.55030554  1  0  0.26651  0.264077  0  1.004759  0
C  C60  1  0.76653608  0.78581197  0.78671959  1  0  -0.006073  0.136108  0  3.796232  0
C  C61  1  0.23346221  0.21418753  0.28671862  1  0  -0.006101  0.136101  0  3.796217  0
C  C62  1  0.74851369  0.89000713  0.70819299  1  0  -0.175276  -0.20928  0  3.918961  0
C  C63  1  0.25148614  0.10999345  0.20819294  1  0  -0.175263  -0.209267  0  3.919005  0
C  C64  1  0.86604183  0.02274463  0.72558729  1  0  -0.173796  -0.134803  0  3.949921  0
C  C65  1  0.13395939  0.97725689  0.22558653  1  0  -0.173841  -0.134907  0  3.949933  0
C  C66  1  0.02280221  0.01350372  0.71913660  1  0  -0.174179  -0.142565  0  3.941518  0
C  C67  1  0.97719587  0.98649782  0.21913448  1  0  -0.174131  -0.142531  0  3.941407  0
C  C68  1  0.04094892  0.91915142  0.80731255  1  0  -0.170512  -0.202398  0  3.918592  0
C  C69  1  0.95904833  0.08085094  0.30730958  1  0  -0.170499  -0.202405  0  3.918605  0
C  C70  1  0.92758110  0.78385834  0.79095693  1  0  -0.006951  0.132018  0  3.816036  0
C  C71  1  0.07241828  0.21614405  0.29095523  1  0  -0.006934  0.132045  0  3.816001  0
C  C72  1  0.59192981  0.19704606  0.88918373  1  0  -0.004602  0.135046  0  3.798332  0
C  C73  1  0.40807078  0.80295424  0.38918296  1  0  -0.004596  0.135098  0  3.798287  0
C  C74  1  0.46198433  0.07244071  0.91278740  1  0  -0.167829  -0.198186  0  3.900527  0
C  C75  1  0.53801623  0.92755955  0.41278726  1  0  -0.167853  -0.198177  0  3.90056  0
C  C76  1  0.51122597  0.96705347  0.96767834  1  0  -0.174805  -0.142618  0  3.958886  0
C  C77  1  0.48877271  0.03294477  0.46767821  1  0  -0.174819  -0.142622  0  3.95897  0
C  C78  1  0.60440550  0.01646416  0.07191979  1  0  -0.171329  -0.136693  0  3.948182  0
C  C79  1  0.39559344  0.98353373  0.57191915  1  0  -0.171359  -0.136729  0  3.94828  0
C  C80  1  0.73471044  0.13841827  0.04567649  1  0  -0.175183  -0.21135  0  3.931978  0
C  C81  1  0.26528891  0.86158063  0.54567604  1  0  -0.175209  -0.211393  0  3.932034  0
C  C82  1  0.68216442  0.24492191  0.99623773  1  0  -0.007584  0.137091  0  3.805785  0
C  C83  1  0.31783632  0.75507629  0.49623789  1  0  -0.007569  0.137086  0  3.805765  0
I  I84  1  0.88203578  0.39745690  0.65580247  1  0  -0.208717  -0.375574  0  1.454537  0
I  I85  1  0.11796692  0.60254279  0.15580206  1  0  -0.208712  -0.375566  0  1.454526  0
I  I86  1  0.41049597  0.40197087  0.56843512  1  0  -0.210858  -0.377014  0  1.436772  0
I  I87  1  0.58950940  0.59803283  0.06843525  1  0  -0.210858  -0.377013  0  1.436762  0
I  I88  1  0.83900246  0.71901746  0.44013059  1  0  -0.202524  -0.393829  0  1.457005  0
I  I89  1  0.16099916  0.28098566  0.94012906  1  0  -0.202515  -0.393822  0  1.457035  0
I  I90  1  0.70437031  0.32329002  0.29205261  1  0  -0.18037  -0.372894  0  1.605213  0
I  I91  1  0.29563186  0.67671140  0.79205397  1  0  -0.180369  -0.372878  0  1.605194  0
N  N92  1  0.66633730  0.65527206  0.75507488  1  0  -0.638027  -0.585227  0  3.374116  0
N  N93  1  0.33366277  0.34472651  0.25507540  1  0  -0.638033  -0.58524  0  3.374009  0
N  N94  1  0.93787773  0.69076462  0.87716026  1  0  -0.635524  -0.596006  0  3.360956  0
N  N95  1  0.06212362  0.30923763  0.37716015  1  0  -0.635506  -0.596035  0  3.360916  0
N  N96  1  0.54028196  0.29985565  0.84192164  1  0  -0.632347  -0.588401  0  3.364275  0
N  N97  1  0.45971976  0.70014473  0.34192176  1  0  -0.632412  -0.588533  0  3.36442  0
N  N98  1  0.80771718  0.36540718  0.97617993  1  0  -0.636532  -0.588244  0  3.346216  0
N  N99  1  0.19228254  0.63459105  0.47618028  1  0  -0.636508  -0.588244  0  3.346155  0
