# generated using pymatgen
data_Rb2H12C16Cl4O7
_symmetry_space_group_name_H-M   'P 1'
_cell_length_a   4.24061303
_cell_length_b   12.90164405
_cell_length_c   19.95254794
_cell_angle_alpha   98.09849526
_cell_angle_beta   96.09019135
_cell_angle_gamma   89.95359074
_symmetry_Int_Tables_number   1
_chemical_formula_structural   Rb2H12C16Cl4O7
_chemical_formula_sum   'Rb4 H24 C32 Cl8 O14'
_cell_volume   1074.52476867
_cell_formula_units_Z   2
loop_
 _symmetry_equiv_pos_site_id
 _symmetry_equiv_pos_as_xyz
  1  'x, y, z'
loop_
 _atom_site_type_symbol
 _atom_site_label
 _atom_site_symmetry_multiplicity
 _atom_site_fract_x
 _atom_site_fract_y
 _atom_site_fract_z
 _atom_site_occupancy
 _atom_site_hle17_bader_spin_density
 _atom_site_hle17_ddec_charge
 _atom_site_hle17_ddec_spin_density
 _atom_site_hle17_ddec_sum_bond_order
 _atom_site_hle17_magmom
 _atom_site_hse06_10hf_bader_spin_density
 _atom_site_hse06_10hf_ddec_charge
 _atom_site_hse06_10hf_ddec_spin_density
 _atom_site_hse06_10hf_ddec_sum_bond_order
 _atom_site_hse06_10hf_magmom
 _atom_site_hse06_bader_spin_density
 _atom_site_hse06_ddec_charge
 _atom_site_hse06_ddec_spin_density
 _atom_site_hse06_ddec_sum_bond_order
 _atom_site_hse06_magmom
 _atom_site_pbe_bader_spin_density
 _atom_site_pbe_cm5_charge
 _atom_site_pbe_ddec_charge
 _atom_site_pbe_ddec_spin_density
 _atom_site_pbe_ddec_sum_bond_order
 _atom_site_pbe_magmom
Rb  Rb0  1  0.24178475  0.41040481  0.06502771  1  0  0.934671  0  0.549856  0  0  0.885272  0  0.764511  0  0  0.901184  0  0.739762  0  0  0.834047  0.87349  0  0.782015  0
Rb  Rb1  1  0.17716399  0.08970358  0.93491248  1  0  0.93492  0  0.548615  0  0  0.885431  0  0.76308  0  0  0.901257  0  0.738489  0  0  0.833287  0.873641  0  0.78059  0
Rb  Rb2  1  0.75821412  0.58959510  0.93497111  1  0  0.934674  0  0.549846  0  0  0.88528  0  0.764496  0  0  0.901193  0  0.739746  0  0  0.834042  0.873502  0  0.782004  0
Rb  Rb3  1  0.82282786  0.91029868  0.06508890  1  0  0.934919  0  0.548614  0  0  0.885445  0  0.763069  0  0  0.901277  0  0.738468  0  0  0.833295  0.873653  0  0.780576  0
H  H4  1  0.63212380  0.26690310  0.96193895  1  0  0.400657  0  0.919127  0  0  0.368176  0  0.988082  0  0  0.380171  0  0.970344  0  0  0.276264  0.359698  0  1.000574  0
H  H5  1  0.66967359  0.23315249  0.03809278  1  0  0.399234  0  0.920493  0  0  0.367005  0  0.989029  0  0  0.378977  0  0.97136  0  0  0.275747  0.358544  0  1.001487  0
H  H6  1  0.36787271  0.73309759  0.03806239  1  0  0.400662  0  0.919134  0  0  0.36817  0  0.988108  0  0  0.380165  0  0.970371  0  0  0.276259  0.359688  0  1.000609  0
H  H7  1  0.33032530  0.76684820  0.96190812  1  0  0.399147  0  0.920589  0  0  0.366941  0  0.989104  0  0  0.378914  0  0.971432  0  0  0.275702  0.358481  0  1.00156  0
H  H8  1  0.46034378  0.39038736  0.21844588  1  0  0.126285  0  0.953638  0  0  0.131565  0  1.02551  0  0  0.137118  0  1.020554  0  0  0.110603  0.127518  0  1.02925  0
H  H9  1  0.24067795  0.10957530  0.78131644  1  0  0.125599  0  0.953702  0  0  0.130865  0  1.025593  0  0  0.136418  0  1.020608  0  0  0.110599  0.126827  0  1.02935  0
H  H10  1  0.53966925  0.60961099  0.78155312  1  0  0.126299  0  0.953593  0  0  0.131584  0  1.025464  0  0  0.137139  0  1.020505  0  0  0.110608  0.127537  0  1.029203  0
H  H11  1  0.75932333  0.89042540  0.21868301  1  0  0.125628  0  0.953658  0  0  0.130885  0  1.025564  0  0  0.13644  0  1.020578  0  0  0.110604  0.126847  0  1.029319  0
H  H12  1  0.57976670  0.46288291  0.43773001  1  0  0.122169  0  0.973438  0  0  0.127878  0  1.043811  0  0  0.131842  0  1.041057  0  0  0.093411  0.124991  0  1.045941  0
H  H13  1  0.14028276  0.03704492  0.56203938  1  0  0.121801  0  0.972975  0  0  0.127454  0  1.043711  0  0  0.131439  0  1.040943  0  0  0.093382  0.124551  0  1.045832  0
H  H14  1  0.42023936  0.53711856  0.56226912  1  0  0.122195  0  0.973473  0  0  0.127899  0  1.04382  0  0  0.131875  0  1.041056  0  0  0.093419  0.125013  0  1.045944  0
H  H15  1  0.85971615  0.96295577  0.43796001  1  0  0.121833  0  0.973008  0  0  0.127431  0  1.043808  0  0  0.131419  0  1.041036  0  0  0.093373  0.124531  0  1.045926  0
H  H16  1  0.00267685  0.66136939  0.31940851  1  0  0.112315  0  1.007061  0  0  0.11551  0  1.084376  0  0  0.119269  0  1.082207  0  0  0.091258  0.112792  0  1.086084  0
H  H17  1  0.68228067  0.83878832  0.68051832  1  0  0.11231  0  1.006243  0  0  0.115855  0  1.083271  0  0  0.119681  0  1.081065  0  0  0.091417  0.113105  0  1.084963  0
H  H18  1  0.99733149  0.33862974  0.68058945  1  0  0.112372  0  1.00699  0  0  0.115596  0  1.084277  0  0  0.119356  0  1.082107  0  0  0.091284  0.112881  0  1.085989  0
H  H19  1  0.31771825  0.16121315  0.31948365  1  0  0.112332  0  1.006325  0  0  0.11589  0  1.083323  0  0  0.119709  0  1.081135  0  0  0.09141  0.113139  0  1.085011  0
H  H20  1  0.07364065  0.70879902  0.20594631  1  0  0.08713  0  0.924617  0  0  0.096305  0  0.992652  0  0  0.097983  0  0.990885  0  0  0.109223  0.095115  0  0.993959  0
H  H21  1  0.86871946  0.79126509  0.79401288  1  0  0.086987  0  0.925552  0  0  0.096153  0  0.993722  0  0  0.097825  0  0.991981  0  0  0.109071  0.094961  0  0.995034  0
H  H22  1  0.92636042  0.29119697  0.79405270  1  0  0.087146  0  0.924543  0  0  0.096337  0  0.992618  0  0  0.098018  0  0.990846  0  0  0.10923  0.095151  0  0.993925  0
H  H23  1  0.13127487  0.20873952  0.20598827  1  0  0.086958  0  0.925557  0  0  0.096119  0  0.993718  0  0  0.09779  0  0.991978  0  0  0.109067  0.09493  0  0.995028  0
H  H24  1  0.73040231  0.64553363  0.22681835  1  0  0.079053  0  0.959996  0  0  0.087703  0  1.031622  0  0  0.088634  0  1.031116  0  0  0.103876  0.087003  0  1.032136  0
H  H25  1  0.50407541  0.85449105  0.77331420  1  0  0.078533  0  0.959017  0  0  0.087169  0  1.030867  0  0  0.088107  0  1.030322  0  0  0.103455  0.086491  0  1.031399  0
H  H26  1  0.26960113  0.35446236  0.77318072  1  0  0.078971  0  0.960029  0  0  0.087669  0  1.031664  0  0  0.088598  0  1.031161  0  0  0.103854  0.086962  0  1.032188  0
H  H27  1  0.49591644  0.14551121  0.22668668  1  0  0.078561  0  0.959043  0  0  0.087212  0  1.030867  0  0  0.088141  0  1.030329  0  0  0.103485  0.086535  0  1.031399  0
C  C28  1  0.21783456  0.52932489  0.26091299  1  0  0.30452  0  3.799186  0  0  0.300961  0  4.059478  0  0  0.313132  0  4.074435  0  0  0.083911  0.29254  0  4.04938  0
C  C29  1  0.95600833  0.97072961  0.73894216  1  0  0.304337  0  3.797051  0  0  0.302001  0  4.056039  0  0  0.314123  0  4.07089  0  0  0.084122  0.293621  0  4.046  0
C  C30  1  0.78217131  0.47067189  0.73908470  1  0  0.304423  0  3.799161  0  0  0.30094  0  4.05937  0  0  0.313121  0  4.074308  0  0  0.083818  0.292516  0  4.049288  0
C  C31  1  0.04398830  0.02927343  0.26105890  1  0  0.304518  0  3.796918  0  0  0.302034  0  4.056032  0  0  0.314168  0  4.070873  0  0  0.084159  0.293656  0  4.045999  0
C  C32  1  0.41136092  0.44147013  0.26440296  1  0  -0.261712  0  3.719365  0  0  -0.299362  0  3.981493  0  0  -0.304735  0  3.996679  0  0  -0.115235  -0.295774  0  3.971531  0
C  C33  1  0.14561672  0.05855275  0.73537200  1  0  -0.261196  0  3.718141  0  0  -0.298894  0  3.979704  0  0  -0.304395  0  3.995186  0  0  -0.115198  -0.295228  0  3.969546  0
C  C34  1  0.58864738  0.55852822  0.73559593  1  0  -0.261729  0  3.71942  0  0  -0.299402  0  3.981556  0  0  -0.304778  0  3.996735  0  0  -0.115239  -0.295812  0  3.971592  0
C  C35  1  0.85438463  0.94144950  0.26462859  1  0  -0.261313  0  3.718107  0  0  -0.298985  0  3.979751  0  0  -0.304489  0  3.99523  0  0  -0.115246  -0.295316  0  3.96959  0
C  C36  1  0.53728893  0.41997621  0.32816424  1  0  0.177107  0  3.824982  0  0  0.190521  0  4.09207  0  0  0.195965  0  4.113465  0  0  0.013133  0.186778  0  4.077586  0
C  C37  1  0.20744850  0.08001946  0.67159085  1  0  0.176598  0  3.826203  0  0  0.190288  0  4.092892  0  0  0.195685  0  4.114344  0  0  0.013167  0.186557  0  4.078395  0
C  C38  1  0.46271702  0.58002291  0.67183568  1  0  0.177101  0  3.824986  0  0  0.190476  0  4.092137  0  0  0.195918  0  4.113535  0  0  0.013128  0.186731  0  4.077648  0
C  C39  1  0.79255517  0.91998201  0.32840972  1  0  0.176593  0  3.826305  0  0  0.190248  0  4.093016  0  0  0.195646  0  4.11447  0  0  0.013155  0.186521  0  4.078516  0
C  C40  1  0.47911065  0.48201394  0.38865925  1  0  -0.224392  0  3.75215  0  0  -0.260308  0  4.004964  0  0  -0.265934  0  4.024883  0  0  -0.119033  -0.256516  0  3.991677  0
C  C41  1  0.08873662  0.01796977  0.61112670  1  0  -0.224397  0  3.75105  0  0  -0.260861  0  4.004348  0  0  -0.266456  0  4.024081  0  0  -0.119938  -0.257074  0  3.991179  0
C  C42  1  0.52089056  0.51798519  0.61134005  1  0  -0.224488  0  3.752345  0  0  -0.260384  0  4.00521  0  0  -0.266023  0  4.02512  0  0  -0.11909  -0.256583  0  3.991908  0
C  C43  1  0.91126217  0.98202857  0.38887398  1  0  -0.224414  0  3.751287  0  0  -0.260824  0  4.004597  0  0  -0.266419  0  4.024327  0  0  -0.1199  -0.257048  0  3.991434  0
C  C44  1  0.28551024  0.56824765  0.38318792  1  0  0.186652  0  3.805874  0  0  0.201487  0  4.069705  0  0  0.206912  0  4.090611  0  0  0.012688  0.197708  0  4.055611  0
C  C45  1  0.90083873  0.93180668  0.61665991  1  0  0.186254  0  3.807302  0  0  0.201442  0  4.070976  0  0  0.206933  0  4.091829  0  0  0.012494  0.197632  0  4.056901  0
C  C46  1  0.71449336  0.43175148  0.61681044  1  0  0.186791  0  3.805969  0  0  0.20161  0  4.069826  0  0  0.207036  0  4.090734  0  0  0.012779  0.197833  0  4.055731  0
C  C47  1  0.09915772  0.06819244  0.38334078  1  0  0.186285  0  3.807261  0  0  0.201469  0  4.070926  0  0  0.206959  0  4.091778  0  0  0.012513  0.197663  0  4.056844  0
C  C48  1  0.15488965  0.59375218  0.32043431  1  0  -0.27505  0  3.739504  0  0  -0.305696  0  3.992864  0  0  -0.312933  0  4.012777  0  0  -0.127141  -0.30082  0  3.979672  0
C  C49  1  0.83327734  0.90635507  0.67944401  1  0  -0.274586  0  3.740229  0  0  -0.306126  0  3.992888  0  0  -0.313488  0  4.012739  0  0  -0.126803  -0.301179  0  3.979745  0
C  C50  1  0.84511628  0.40624617  0.67956402  1  0  -0.275096  0  3.739547  0  0  -0.305743  0  3.992798  0  0  -0.312985  0  4.012709  0  0  -0.127113  -0.30087  0  3.979614  0
C  C51  1  0.16672156  0.09364562  0.32055588  1  0  -0.274668  0  3.740296  0  0  -0.306157  0  3.992937  0  0  -0.313519  0  4.012778  0  0  -0.126809  -0.301209  0  3.979788  0
C  C52  1  0.91583416  0.63963080  0.19187722  1  0  -0.063669  0  3.602099  0  0  -0.120337  0  3.863943  0  0  -0.116157  0  3.8639  0  0  -0.068805  -0.123255  0  3.863932  0
C  C53  1  0.72469016  0.86041840  0.80814551  1  0  -0.06296  0  3.60252  0  0  -0.119536  0  3.864399  0  0  -0.115447  0  3.864343  0  0  -0.06836  -0.122448  0  3.864453  0
C  C54  1  0.08416457  0.36036598  0.80812181  1  0  -0.063463  0  3.601998  0  0  -0.120341  0  3.864108  0  0  -0.116164  0  3.864072  0  0  -0.068774  -0.123255  0  3.864107  0
C  C55  1  0.27530643  0.13958385  0.19185598  1  0  -0.062965  0  3.602624  0  0  -0.11958  0  3.864515  0  0  -0.115481  0  3.864468  0  0  -0.068357  -0.122489  0  3.864577  0
C  C56  1  0.74950326  0.64060146  0.12015599  1  0  0.700541  0  3.903975  0  0  0.654852  0  4.207267  0  0  0.687631  0  4.198168  0  0  0.199292  0.632547  0  4.212774  0
C  C57  1  0.63072549  0.85948505  0.87992785  1  0  0.700121  0  3.901898  0  0  0.654433  0  4.205579  0  0  0.687182  0  4.196484  0  0  0.198282  0.632158  0  4.211072  0
C  C58  1  0.25049791  0.35939688  0.87984324  1  0  0.700436  0  3.904086  0  0  0.654819  0  4.207333  0  0  0.687598  0  4.198234  0  0  0.19929  0.63252  0  4.212831  0
C  C59  1  0.36926872  0.14051720  0.12007358  1  0  0.700217  0  3.901689  0  0  0.654499  0  4.205401  0  0  0.687251  0  4.196302  0  0  0.198301  0.63222  0  4.210905  0
Cl  Cl60  1  0.77101700  0.31036115  0.33325587  1  0  -0.08129  0  1.411283  0  0  -0.060493  0  1.660341  0  0  -0.065039  0  1.656896  0  0  0.02042  -0.05717  0  1.662849  0
Cl  Cl61  1  0.43580718  0.18952335  0.66642776  1  0  -0.080706  0  1.41347  0  0  -0.060092  0  1.662582  0  0  -0.064603  0  1.659113  0  0  0.020481  -0.056788  0  1.66511  0
Cl  Cl62  1  0.22899372  0.68963876  0.66674422  1  0  -0.081239  0  1.411226  0  0  -0.060431  0  1.660292  0  0  -0.064978  0  1.656845  0  0  0.020455  -0.057108  0  1.662801  0
Cl  Cl63  1  0.56419869  0.81047421  0.33357200  1  0  -0.080731  0  1.41339  0  0  -0.060078  0  1.662495  0  0  -0.064589  0  1.659027  0  0  0.020458  -0.056779  0  1.665017  0
Cl  Cl64  1  0.19676523  0.64669812  0.45642656  1  0  -0.093397  0  1.374253  0  0  -0.079142  0  1.608924  0  0  -0.082425  0  1.603497  0  0  -0.000195  -0.076589  0  1.612651  0
Cl  Cl65  1  0.73899896  0.85336952  0.54345652  1  0  -0.093142  0  1.374565  0  0  -0.078857  0  1.609235  0  0  -0.082168  0  1.603804  0  0  2.4e-05  -0.076289  0  1.612947  0
Cl  Cl66  1  0.80324082  0.35330257  0.54357149  1  0  -0.093412  0  1.37427  0  0  -0.079155  0  1.608948  0  0  -0.082437  0  1.603515  0  0  -0.000196  -0.076599  0  1.612678  0
Cl  Cl67  1  0.26099512  0.14662961  0.45654412  1  0  -0.093123  0  1.374541  0  0  -0.078844  0  1.609225  0  0  -0.082154  0  1.603792  0  0  3.7e-05  -0.076285  0  1.612937  0
O  O68  1  0.78747850  0.25011044  0.00008199  1  0  -0.948109  0  1.803923  0  0  -0.900872  0  1.978702  0  0  -0.920786  0  1.945516  0  0  -0.749046  -0.886702  0  2.001957  0
O  O69  1  0.21252041  0.74989103  0.99991998  1  0  -0.948031  0  1.804034  0  0  -0.900815  0  1.97877  0  0  -0.920727  0  1.945586  0  0  -0.748979  -0.886639  0  2.002017  0
O  O70  1  0.09537789  0.54587551  0.19687220  1  0  -0.297511  0  2.341171  0  0  -0.227067  0  2.574946  0  0  -0.244641  0  2.577015  0  0  -0.213767  -0.214642  0  2.573144  0
O  O71  1  0.89846322  0.95418621  0.80303504  1  0  -0.296894  0  2.342626  0  0  -0.227093  0  2.576356  0  0  -0.244419  0  2.578243  0  0  -0.213407  -0.21481  0  2.574672  0
O  O72  1  0.90462556  0.45412049  0.80312636  1  0  -0.297557  0  2.341127  0  0  -0.227077  0  2.574937  0  0  -0.244654  0  2.577003  0  0  -0.213779  -0.214655  0  2.573143  0
O  O73  1  0.10152871  0.04581762  0.19696549  1  0  -0.296939  0  2.342669  0  0  -0.227019  0  2.576361  0  0  -0.244357  0  2.578252  0  0  -0.213419  -0.214743  0  2.574683  0
O  O74  1  0.75218100  0.56010187  0.07609071  1  0  -0.762588  0  1.983935  0  0  -0.716865  0  2.232839  0  0  -0.740471  0  2.221274  0  0  -0.530373  -0.700278  0  2.240345  0
O  O75  1  0.67745046  0.93998555  0.92397976  1  0  -0.762812  0  1.981193  0  0  -0.717007  0  2.230055  0  0  -0.740561  0  2.218452  0  0  -0.530047  -0.700423  0  2.237564  0
O  O76  1  0.24781552  0.43989805  0.92390756  1  0  -0.762615  0  1.983928  0  0  -0.716898  0  2.232795  0  0  -0.740503  0  2.221229  0  0  -0.530404  -0.700309  0  2.2403  0
O  O77  1  0.32254368  0.06001514  0.07602202  1  0  -0.762902  0  1.98108  0  0  -0.717098  0  2.229969  0  0  -0.740655  0  2.218363  0  0  -0.530113  -0.700512  0  2.237485  0
O  O78  1  0.61097557  0.72631358  0.11229542  1  0  -0.696997  0  1.928138  0  0  -0.640145  0  2.152829  0  0  -0.666689  0  2.142354  0  0  -0.398379  -0.621435  0  2.159443  0
O  O79  1  0.50048375  0.77379659  0.88783980  1  0  -0.69638  0  1.92864  0  0  -0.639579  0  2.153265  0  0  -0.666138  0  2.142901  0  0  -0.397942  -0.620861  0  2.159802  0
O  O80  1  0.38902563  0.27368554  0.88770488  1  0  -0.69698  0  1.928271  0  0  -0.640129  0  2.152925  0  0  -0.666672  0  2.142448  0  0  -0.398371  -0.621418  0  2.159533  0
O  O81  1  0.49951277  0.22620411  0.11216054  1  0  -0.696399  0  1.928628  0  0  -0.639588  0  2.153276  0  0  -0.666136  0  2.142893  0  0  -0.397921  -0.620866  0  2.159815  0
