# generated using pymatgen
data_ZnH6C27N6(Cl2O7)2
_symmetry_space_group_name_H-M   'P 1'
_cell_length_a   9.55670362
_cell_length_b   10.78923658
_cell_length_c   28.01157675
_cell_angle_alpha   89.51921291
_cell_angle_beta   88.78616000
_cell_angle_gamma   93.54321571
_symmetry_Int_Tables_number   1
_chemical_formula_structural   ZnH6C27N6(Cl2O7)2
_chemical_formula_sum   'Zn2 H12 C54 N12 Cl8 O28'
_cell_volume   2881.95660296
_cell_formula_units_Z   2
loop_
 _symmetry_equiv_pos_site_id
 _symmetry_equiv_pos_as_xyz
  1  'x, y, z'
loop_
 _atom_site_type_symbol
 _atom_site_label
 _atom_site_symmetry_multiplicity
 _atom_site_fract_x
 _atom_site_fract_y
 _atom_site_fract_z
 _atom_site_occupancy
 _atom_site_pbe_bader_charge
 _atom_site_pbe_bader_spin_density
 _atom_site_pbe_cm5_charge
 _atom_site_pbe_ddec_charge
 _atom_site_pbe_ddec_spin_density
 _atom_site_pbe_ddec_sum_bond_order
 _atom_site_pbe_magmom
Zn  Zn0  1  0.35720508  0.49007552  0.50146922  1  1.283821  0  0.678843  0.831823  0  2.400354  0
Zn  Zn1  1  0.65352431  0.50622686  0.49976601  1  1.284615  0  0.673161  0.820623  0  2.424049  0
H  H2  1  0.72658941  0.53095822  0.64891642  1  0.147247  0  0.117581  0.136834  0  0.986044  0
H  H3  1  0.72871177  0.51476463  0.34865485  1  0.141719  0  0.117893  0.137012  0  0.985712  0
H  H4  1  0.62973693  0.80152424  0.87497172  1  0.186577  0  0.137246  0.162634  0  0.95724  0
H  H5  1  0.63709594  0.21763519  0.12512719  1  0.169378  0  0.137144  0.161471  0  0.958331  0
H  H6  1  0.28461244  0.50585502  0.26002987  1  0.142984  0  0.129669  0.151785  0  0.953859  0
H  H7  1  0.28694630  0.45089022  0.74495863  1  0.110842  0  0.129719  0.151135  0  0.953183  0
H  H8  1  0.26040280  0.06012153  0.50955645  1  0.155149  0  0.121455  0.143957  0  0.960556  0
H  H9  1  0.74551506  0.93688763  0.48403752  1  0.149677  0  0.121626  0.143086  0  0.954774  0
H  H10  1  0.91509270  0.52223554  0.42086653  1  0.160013  0  0.131645  0.130763  0  0.953614  0
H  H11  1  0.09446898  0.47119333  0.58036644  1  0.17634  0  0.123591  0.122454  0  1.01339  0
H  H12  1  0.13086761  0.67924853  0.46546545  1  0.185241  0  0.128627  0.135203  0  0.972643  0
H  H13  1  0.87998997  0.31400569  0.53544022  1  0.174362  0  0.127912  0.132615  0  0.967883  0
C  C14  1  0.50508913  0.73555004  0.49615297  1  1.641719  0  0.215429  0.605483  0  4.193746  0
C  C15  1  0.50127676  0.26098339  0.50098546  1  1.609873  0  0.214318  0.600855  0  4.190732  0
C  C16  1  0.50569064  0.49512171  0.59299128  1  1.593641  0  0.219796  0.600337  0  4.17752  0
C  C17  1  0.50993484  0.50128701  0.40820325  1  1.632318  0  0.21796  0.596891  0  4.186443  0
C  C18  1  0.54309498  0.61170512  0.81990816  1  1.338026  0  0.242496  0.431676  0  4.113815  0
C  C19  1  0.55095112  0.39787808  0.18130172  1  1.304237  0  0.244068  0.435291  0  4.10892  0
C  C20  1  0.48512024  0.38118887  0.82255538  1  1.365375  0  0.249328  0.448809  0  4.078936  0
C  C21  1  0.47866877  0.61812993  0.17908735  1  1.411938  0  0.248921  0.447016  0  4.084638  0
C  C22  1  0.38386687  0.46862401  0.72423088  1  0.150839  0  -0.063015  -0.170545  0  3.919925  0
C  C23  1  0.38262372  0.50863103  0.27919614  1  0.054075  0  -0.06143  -0.168775  0  3.913927  0
C  C24  1  0.38303552  0.46346085  0.67472953  1  0.157387  0  0.091201  0.074561  0  3.908891  0
C  C25  1  0.38071705  0.51161536  0.32880102  1  0.220201  0  0.094458  0.082225  0  3.877749  0
C  C26  1  0.63086319  0.51228604  0.67018346  1  -0.004305  0  -0.069113  -0.120694  0  3.90432  0
C  C27  1  0.63186692  0.51472912  0.32894914  1  0.062527  0  -0.071126  -0.126757  0  3.917355  0
C  C28  1  0.63501431  0.51282078  0.71992390  1  0.118098  0  0.031505  0.094226  0  4.011652  0
C  C29  1  0.63586268  0.51662307  0.27922406  1  0.049805  0  0.031802  0.096028  0  4.018904  0
C  C30  1  0.51038399  0.49326366  0.74708933  1  0.378274  0  0.095851  0.149065  0  4.003951  0
C  C31  1  0.51011102  0.51113470  0.25422792  1  0.354806  0  0.095868  0.149434  0  4.006729  0
C  C32  1  0.52906395  0.49766897  0.89903545  1  -0.051721  0  0.010363  0.044035  0  3.988907  0
C  C33  1  0.52861316  0.50757783  0.10219472  1  0.072263  0  0.012131  0.046919  0  3.989844  0
C  C34  1  0.55634319  0.60893135  0.87243202  1  0.007093  0  0.001783  -0.039295  0  3.966972  0
C  C35  1  0.56004092  0.40065651  0.12852612  1  0.047001  0  0.001591  -0.039816  0  3.969337  0
C  C36  1  0.59981999  0.71738192  0.89548223  1  0.124837  0  -0.050793  -0.104382  0  3.892955  0
C  C37  1  0.60468715  0.29733189  0.10492209  1  0.125089  0  -0.050782  -0.103149  0  3.896761  0
C  C38  1  0.49199087  0.38507235  0.87539214  1  0.041088  0  0.005438  -0.087671  0  3.946628  0
C  C39  1  0.48796301  0.61533059  0.12619809  1  -0.033169  0  0.00422  -0.091514  0  3.949313  0
C  C40  1  0.50497492  0.48753118  0.64668917  1  0.116726  0  0.006933  -0.036545  0  3.901612  0
C  C41  1  0.50497720  0.51207756  0.35467835  1  0.083002  0  0.007512  -0.034236  0  3.89588  0
C  C42  1  0.52147415  0.61750725  0.02457299  1  0.057503  0  0.008239  0.006031  0  3.953154  0
C  C43  1  0.52379730  0.38632836  0.97674901  1  0.063137  0  0.007977  0.002032  0  3.950782  0
C  C44  1  0.55857940  0.39203848  0.02720762  1  -0.001045  0  0.016963  0.018106  0  3.926219  0
C  C45  1  0.55688551  0.61593969  0.97368764  1  0.028254  0  0.015707  0.015508  0  3.932595  0
C  C46  1  0.53617464  0.50571593  0.05127472  1  0.009722  0  0.014093  0.025404  0  3.903216  0
C  C47  1  0.53662556  0.49987787  0.94986426  1  0.101555  0  0.014039  0.026854  0  3.904141  0
C  C48  1  0.46753212  0.71850192  0.04872196  1  0.158356  0  0.03565  0.060846  0  3.987733  0
C  C49  1  0.47206293  0.27904587  0.95313791  1  0.114533  0  0.036365  0.063949  0  3.983389  0
C  C50  1  0.45293586  0.71639812  0.09895607  1  0.219455  0  0.099535  0.037767  0  3.886311  0
C  C51  1  0.45875142  0.27963486  0.90303229  1  0.27841  0  0.098518  0.034419  0  3.886063  0
C  C52  1  0.60376535  0.71892743  0.94524374  1  0.135627  0  0.085759  0.033626  0  3.904568  0
C  C53  1  0.60673699  0.29494731  0.05510659  1  0.187352  0  0.084692  0.031012  0  3.905698  0
C  C54  1  0.42039882  0.95500175  0.46134562  1  0.279971  0  0.091317  0.036798  0  3.614162  0
C  C55  1  0.58543191  0.04144736  0.53183675  1  0.274978  0  0.093763  0.03701  0  3.610937  0
C  C56  1  0.55532215  0.04680654  0.45455158  1  0.177031  0  0.03575  0.113036  0  3.69711  0
C  C57  1  0.45050113  0.95034886  0.53875656  1  0.172245  0  0.039198  0.120564  0  3.689116  0
C  C58  1  0.49837543  0.12290983  0.49798911  1  0.045705  0  0.007407  -0.053982  0  3.627281  0
C  C59  1  0.50681915  0.87371819  0.49497576  1  0.001659  0  0.005653  -0.062224  0  3.637771  0
C  C60  1  0.36685589  0.03116210  0.50398829  1  -0.004278  0  -0.069347  -0.130831  0  3.621037  0
C  C61  1  0.63878437  0.96544510  0.48928528  1  -0.032714  0  -0.067701  -0.125118  0  3.619197  0
C  C62  1  0.96119260  0.51153491  0.45583013  1  0.195893  0  0.028717  0.005457  0  3.549147  0
C  C63  1  0.04940756  0.48215889  0.54525360  1  0.190414  0  0.027257  0.011194  0  3.529539  0
C  C64  1  0.03707791  0.39887905  0.47507760  1  0.387714  0  0.118963  0.200254  0  3.718093  0
C  C65  1  0.97369280  0.59452261  0.52611128  1  0.374308  0  0.116947  0.201822  0  3.71595  0
C  C66  1  0.06923899  0.59945389  0.48063451  1  0.185713  0  0.026904  0.004471  0  3.539185  0
C  C67  1  0.94107907  0.39447482  0.52043964  1  0.17759  0  0.029787  0.012175  0  3.523339  0
N  N68  1  0.51259433  0.49539095  0.79828314  1  -1.186634  0  -0.231457  -0.22412  0  3.618898  0
N  N69  1  0.51219899  0.50885700  0.20303112  1  -1.173296  0  -0.23216  -0.22392  0  3.621818  0
N  N70  1  0.14569767  0.48805460  0.50016507  1  -0.810556  0  -0.302847  -0.196916  0  3.026914  0
N  N71  1  0.86495575  0.50598549  0.50091062  1  -0.823033  0  -0.30485  -0.200561  0  3.039881  0
N  N72  1  0.33868933  0.90286935  0.42173361  1  0.377039  0  0.054929  0.522302  0  4.220722  0
N  N73  1  0.66899566  0.09855183  0.56999845  1  0.371781  0  0.05652  0.519185  0  4.218716  0
N  N74  1  0.24055627  0.51790056  0.35173690  1  0.398679  0  0.061748  0.523655  0  4.208933  0
N  N75  1  0.24836065  0.42523701  0.65295940  1  0.412842  0  0.059939  0.519862  0  4.221748  0
N  N76  1  0.39851840  0.82871909  0.12143194  1  0.417865  0  0.055318  0.49961  0  4.302032  0
N  N77  1  0.40662098  0.16106040  0.88108943  1  0.420245  0  0.056472  0.50287  0  4.300579  0
N  N78  1  0.67547682  0.83091345  0.96635866  1  0.404319  0  0.051378  0.495159  0  4.252861  0
N  N79  1  0.67839367  0.19020331  0.03329720  1  0.411171  0  0.050629  0.493561  0  4.257137  0
Cl  Cl80  1  0.08880775  0.27367218  0.44358301  1  -0.135372  0  0.034847  -0.025221  0  1.457986  0
Cl  Cl81  1  0.92249728  0.71832051  0.55876656  1  -0.142464  0  0.029107  -0.036432  0  1.425745  0
Cl  Cl82  1  0.79370804  0.53578348  0.74722517  1  -0.167344  0  0.013438  -0.043605  0  1.463296  0
Cl  Cl83  1  0.79501442  0.52611273  0.24928122  1  -0.172498  0  0.012214  -0.046093  0  1.454989  0
Cl  Cl84  1  0.40905837  0.84354643  0.01860210  1  -0.129618  0  0.052897  0.007694  0  1.661636  0
Cl  Cl85  1  0.41418043  0.14711161  0.98390092  1  -0.127431  0  0.053272  0.007757  0  1.663536  0
Cl  Cl86  1  0.61712239  0.11025085  0.40097931  1  -0.165572  0  -0.00233  -0.052539  0  1.41791  0
Cl  Cl87  1  0.38841896  0.88484602  0.59191203  1  -0.164203  0  0.00245  -0.048663  0  1.413181  0
O  O88  1  0.38853665  0.67806711  0.48764510  1  -1.157474  0  -0.306825  -0.53162  0  2.322058  0
O  O89  1  0.61935756  0.31716792  0.49134270  1  -1.165802  0  -0.313461  -0.541631  0  2.326  0
O  O90  1  0.61895335  0.69002330  0.50732988  1  -1.14947  0  -0.309479  -0.533702  0  2.357907  0
O  O91  1  0.38732164  0.30723953  0.51280081  1  -1.142943  0  -0.303457  -0.515721  0  2.335871  0
O  O92  1  0.39299958  0.52290685  0.57333414  1  -1.160245  0  -0.315161  -0.553562  0  2.338213  0
O  O93  1  0.62657423  0.53279346  0.42708666  1  -1.155717  0  -0.312149  -0.536642  0  2.29929  0
O  O94  1  0.62145501  0.47639687  0.57209333  1  -1.155866  0  -0.310028  -0.533466  0  2.324231  0
O  O95  1  0.39945084  0.45850918  0.42985669  1  -1.1632  0  -0.31412  -0.553604  0  2.383887  0
O  O96  1  0.55721720  0.70725571  0.79595931  1  -1.059684  0  -0.254713  -0.398886  0  2.071864  0
O  O97  1  0.57502753  0.30670246  0.20538365  1  -1.074165  0  -0.256065  -0.401743  0  2.068916  0
O  O98  1  0.44361031  0.70895649  0.20131836  1  -1.067828  0  -0.248919  -0.388342  0  2.086854  0
O  O99  1  0.45673683  0.28525462  0.80071587  1  -1.064042  0  -0.248507  -0.389214  0  2.090363  0
O  O100  1  0.20967256  0.91061124  0.42340409  1  -0.428842  0  -0.140723  -0.338369  0  1.859577  0
O  O101  1  0.40729672  0.85591149  0.38942590  1  -0.428113  0  -0.123612  -0.316277  0  1.896834  0
O  O102  1  0.79861011  0.09650985  0.56638545  1  -0.42515  0  -0.139254  -0.342892  0  1.870523  0
O  O103  1  0.60227457  0.14634855  0.60260554  1  -0.4184  0  -0.122053  -0.311181  0  1.875091  0
O  O104  1  0.14838460  0.43985117  0.33900709  1  -0.453582  0  -0.140375  -0.35273  0  1.8925  0
O  O105  1  0.22275754  0.60285833  0.38008573  1  -0.43109  0  -0.113621  -0.307608  0  1.961929  0
O  O106  1  0.14676947  0.48760996  0.66281115  1  -0.462809  0  -0.139283  -0.349678  0  1.886631  0
O  O107  1  0.24491881  0.33232289  0.62745730  1  -0.430233  0  -0.1136  -0.299215  0  1.894616  0
O  O108  1  0.48526952  0.91422990  0.12975427  1  -0.380008  0  -0.095995  -0.269126  0  1.902887  0
O  O109  1  0.27002267  0.82777411  0.12663634  1  -0.390028  0  -0.113512  -0.295427  0  1.86995  0
O  O110  1  0.49415270  0.08499758  0.87256098  1  -0.384839  0  -0.095707  -0.2703  0  1.905283  0
O  O111  1  0.27857164  0.14796927  0.87641576  1  -0.386956  0  -0.113745  -0.295991  0  1.87016  0
O  O112  1  0.67120381  0.92999377  0.94425063  1  -0.41531  0  -0.113762  -0.302941  0  1.94823  0
O  O113  1  0.74043425  0.81453842  0.00346580  1  -0.433181  0  -0.127689  -0.315145  0  1.899959  0
O  O114  1  0.67295555  0.09090117  0.05566159  1  -0.414354  0  -0.113391  -0.301624  0  1.944213  0
O  O115  1  0.74447001  0.21295423  0.99539827  1  -0.434687  0  -0.127281  -0.313994  0  1.900034  0
