# generated using pymatgen
data_LiH2(CO)2
_symmetry_space_group_name_H-M   'P 1'
_cell_length_a   7.79756231
_cell_length_b   7.79751213
_cell_length_c   7.79748655
_cell_angle_alpha   100.95033129
_cell_angle_beta   100.94946202
_cell_angle_gamma   100.94976141
_symmetry_Int_Tables_number   1
_chemical_formula_structural   LiH2(CO)2
_chemical_formula_sum   'Li6 H12 C12 O12'
_cell_volume   444.25181450
_cell_formula_units_Z   6
loop_
 _symmetry_equiv_pos_site_id
 _symmetry_equiv_pos_as_xyz
  1  'x, y, z'
loop_
 _atom_site_type_symbol
 _atom_site_label
 _atom_site_symmetry_multiplicity
 _atom_site_fract_x
 _atom_site_fract_y
 _atom_site_fract_z
 _atom_site_occupancy
 _atom_site_hle17_bader_spin_density
 _atom_site_hle17_ddec_charge
 _atom_site_hle17_ddec_spin_density
 _atom_site_hle17_ddec_sum_bond_order
 _atom_site_hle17_magmom
 _atom_site_hse06_10hf_bader_spin_density
 _atom_site_hse06_10hf_ddec_charge
 _atom_site_hse06_10hf_ddec_spin_density
 _atom_site_hse06_10hf_ddec_sum_bond_order
 _atom_site_hse06_10hf_magmom
 _atom_site_hse06_bader_spin_density
 _atom_site_hse06_ddec_charge
 _atom_site_hse06_ddec_spin_density
 _atom_site_hse06_ddec_sum_bond_order
 _atom_site_hse06_magmom
 _atom_site_pbe_bader_spin_density
 _atom_site_pbe_cm5_charge
 _atom_site_pbe_ddec_charge
 _atom_site_pbe_ddec_spin_density
 _atom_site_pbe_ddec_sum_bond_order
 _atom_site_pbe_magmom
Li  Li0  1  0.01461114  0.10354136  0.67197300  1  0  0.858161  0  0.400867  0  0  0.819708  0  0.504446  0  0  0.829185  0  0.487656  0  0  0.528951  0.81282  0  0.516558  0
Li  Li1  1  0.67197270  0.01460498  0.10354179  1  0  0.858187  0  0.400797  0  0  0.819707  0  0.504431  0  0  0.829183  0  0.487636  0  0  0.528931  0.812819  0  0.516543  0
Li  Li2  1  0.10353783  0.67197529  0.01460976  1  0  0.85817  0  0.400872  0  0  0.819714  0  0.504463  0  0  0.82919  0  0.487672  0  0  0.528952  0.812826  0  0.516575  0
Li  Li3  1  0.98538908  0.89645903  0.32802840  1  0  0.858165  0  0.400862  0  0  0.81972  0  0.504434  0  0  0.829193  0  0.487646  0  0  0.528966  0.812832  0  0.516546  0
Li  Li4  1  0.32802687  0.98539272  0.89645897  1  0  0.858166  0  0.400836  0  0  0.819697  0  0.504453  0  0  0.829172  0  0.48766  0  0  0.528927  0.812807  0  0.516565  0
Li  Li5  1  0.89646338  0.32802376  0.98539029  1  0  0.858169  0  0.400865  0  0  0.819714  0  0.504454  0  0  0.829189  0  0.487664  0  0  0.528951  0.812826  0  0.516565  0
H  H6  1  0.65735167  0.91917187  0.45755901  1  0  0.105053  0  0.948461  0  0  0.113433  0  1.019131  0  0  0.116878  0  1.01701  0  0  0.12183  0.110947  0  1.02077  0
H  H7  1  0.45757479  0.65735585  0.91917222  1  0  0.105106  0  0.948517  0  0  0.113475  0  1.019155  0  0  0.116921  0  1.017033  0  0  0.121862  0.110989  0  1.020791  0
H  H8  1  0.91917426  0.45756389  0.65735496  1  0  0.105085  0  0.94845  0  0  0.113438  0  1.019148  0  0  0.11689  0  1.017019  0  0  0.121847  0.110952  0  1.020785  0
H  H9  1  0.34264562  0.08082718  0.54244157  1  0  0.105069  0  0.948463  0  0  0.113432  0  1.019183  0  0  0.116882  0  1.017055  0  0  0.121837  0.110946  0  1.020819  0
H  H10  1  0.54242705  0.34264587  0.08082974  1  0  0.105081  0  0.948519  0  0  0.11343  0  1.019161  0  0  0.116875  0  1.017039  0  0  0.121844  0.110944  0  1.020798  0
H  H11  1  0.08082565  0.54243516  0.34264227  1  0  0.105068  0  0.948458  0  0  0.113449  0  1.019113  0  0  0.116899  0  1.016986  0  0  0.121837  0.110963  0  1.02075  0
H  H12  1  0.47091578  0.80835369  0.53019317  1  0  0.102079  0  0.917319  0  0  0.119819  0  0.969647  0  0  0.122006  0  0.968925  0  0  0.109574  0.118245  0  0.970216  0
H  H13  1  0.53020111  0.47091340  0.80835577  1  0  0.102139  0  0.917273  0  0  0.119857  0  0.969608  0  0  0.122043  0  0.968889  0  0  0.109591  0.118283  0  0.970177  0
H  H14  1  0.80835798  0.53019717  0.47091948  1  0  0.102093  0  0.917263  0  0  0.119828  0  0.969594  0  0  0.122017  0  0.968873  0  0  0.10957  0.118254  0  0.970164  0
H  H15  1  0.52908150  0.19164536  0.46980741  1  0  0.102054  0  0.917289  0  0  0.119812  0  0.969628  0  0  0.122  0  0.968906  0  0  0.109575  0.118237  0  0.970198  0
H  H16  1  0.46980040  0.52908698  0.19164716  1  0  0.102106  0  0.917338  0  0  0.11981  0  0.969665  0  0  0.121995  0  0.968946  0  0  0.109579  0.118236  0  0.970236  0
H  H17  1  0.19164192  0.46980189  0.52907648  1  0  0.102123  0  0.917241  0  0  0.119854  0  0.969574  0  0  0.122044  0  0.968853  0  0  0.109589  0.11828  0  0.970142  0
C  C18  1  0.65142315  0.02919026  0.73138003  1  0  0.77871  0  3.817896  0  0  0.745317  0  4.100705  0  0  0.777163  0  4.091379  0  0  0.249557  0.723731  0  4.106393  0
C  C19  1  0.73138243  0.65142158  0.02919010  1  0  0.778907  0  3.817554  0  0  0.745387  0  4.100539  0  0  0.777231  0  4.091216  0  0  0.249607  0.723802  0  4.106226  0
C  C20  1  0.02919155  0.73137970  0.65142200  1  0  0.778673  0  3.818062  0  0  0.745279  0  4.100871  0  0  0.777131  0  4.091542  0  0  0.249524  0.723693  0  4.106559  0
C  C21  1  0.34857413  0.97080879  0.26862055  1  0  0.778683  0  3.817879  0  0  0.7453  0  4.100716  0  0  0.777152  0  4.091386  0  0  0.249563  0.723712  0  4.106404  0
C  C22  1  0.26861974  0.34858150  0.97080834  1  0  0.778884  0  3.817706  0  0  0.745313  0  4.100721  0  0  0.777156  0  4.0914  0  0  0.249563  0.72376  0  4.106362  0
C  C23  1  0.97080868  0.26862070  0.34857555  1  0  0.778718  0  3.817907  0  0  0.745301  0  4.100756  0  0  0.777149  0  4.091433  0  0  0.249525  0.723715  0  4.106443  0
C  C24  1  0.55801243  0.93937158  0.53735073  1  0  -0.250894  0  3.649045  0  0  -0.291085  0  3.897593  0  0  -0.296695  0  3.904975  0  0  -0.141895  -0.28719  0  3.892513  0
C  C25  1  0.53735352  0.55801162  0.93937477  1  0  -0.251008  0  3.649161  0  0  -0.291154  0  3.89764  0  0  -0.296765  0  3.905014  0  0  -0.141919  -0.287257  0  3.89256  0
C  C26  1  0.93937502  0.53735069  0.55801345  1  0  -0.250864  0  3.649032  0  0  -0.29105  0  3.89754  0  0  -0.296663  0  3.904915  0  0  -0.141892  -0.287158  0  3.892462  0
C  C27  1  0.44198453  0.06062613  0.46265081  1  0  -0.250766  0  3.648955  0  0  -0.291042  0  3.897595  0  0  -0.296653  0  3.904967  0  0  -0.141895  -0.287145  0  3.892511  0
C  C28  1  0.46264799  0.44198876  0.06062944  1  0  -0.250976  0  3.649213  0  0  -0.29102  0  3.897627  0  0  -0.296624  0  3.904993  0  0  -0.141908  -0.287138  0  3.892541  0
C  C29  1  0.06062488  0.46264837  0.44198379  1  0  -0.250907  0  3.64901  0  0  -0.291099  0  3.897529  0  0  -0.296714  0  3.90491  0  0  -0.141874  -0.287202  0  3.892443  0
O  O30  1  0.80599611  0.13565577  0.76581052  1  0  -0.797464  0  1.924798  0  0  -0.755937  0  2.160746  0  0  -0.775947  0  2.144951  0  0  -0.434252  -0.742093  0  2.171381  0
O  O31  1  0.76581580  0.80598779  0.13566106  1  0  -0.797475  0  1.92467  0  0  -0.755899  0  2.160673  0  0  -0.775906  0  2.14488  0  0  -0.434204  -0.742055  0  2.171305  0
O  O32  1  0.13565892  0.76580904  0.80599349  1  0  -0.797476  0  1.924897  0  0  -0.755945  0  2.160836  0  0  -0.775957  0  2.145042  0  0  -0.434231  -0.742097  0  2.171466  0
O  O33  1  0.19400117  0.86434328  0.23419006  1  0  -0.797447  0  1.92479  0  0  -0.755915  0  2.16074  0  0  -0.775926  0  2.144943  0  0  -0.434238  -0.74207  0  2.171372  0
O  O34  1  0.23418635  0.19401528  0.86434122  1  0  -0.797483  0  1.924769  0  0  -0.755883  0  2.160757  0  0  -0.775893  0  2.144966  0  0  -0.434181  -0.742051  0  2.171374  0
O  O35  1  0.86433870  0.23419136  0.19400357  1  0  -0.797486  0  1.924829  0  0  -0.755937  0  2.160768  0  0  -0.775948  0  2.144974  0  0  -0.434226  -0.742092  0  2.1714  0
O  O36  1  0.56684522  0.00024236  0.85120364  1  0  -0.795692  0  1.962297  0  0  -0.751272  0  2.201541  0  0  -0.77261  0  2.187359  0  0  -0.433766  -0.736478  0  2.21098  0
O  O37  1  0.85120046  0.56683474  0.00023973  1  0  -0.795812  0  1.962212  0  0  -0.75136  0  2.201512  0  0  -0.772697  0  2.187328  0  0  -0.43387  -0.736565  0  2.210951  0
O  O38  1  0.00024570  0.85120348  0.56684641  1  0  -0.795667  0  1.962339  0  0  -0.75126  0  2.20158  0  0  -0.7726  0  2.187398  0  0  -0.433771  -0.736466  0  2.211021  0
O  O39  1  0.43315499  0.99975803  0.14879776  1  0  -0.795733  0  1.962284  0  0  -0.75131  0  2.201528  0  0  -0.772651  0  2.187344  0  0  -0.43379  -0.736516  0  2.210967  0
O  O40  1  0.14880268  0.43316699  0.99976120  1  0  -0.795788  0  1.962233  0  0  -0.751334  0  2.201568  0  0  -0.772666  0  2.187374  0  0  -0.433854  -0.73655  0  2.210991  0
O  O41  1  0.99975519  0.14879423  0.43315076  1  0  -0.795711  0  1.962259  0  0  -0.751292  0  2.201497  0  0  -0.772631  0  2.187318  0  0  -0.433787  -0.736497  0  2.210938  0
