# generated using pymatgen
data_CuH6C8NO2
_symmetry_space_group_name_H-M   'P 1'
_cell_length_a   5.21817101
_cell_length_b   15.31717157
_cell_length_c   20.14900000
_cell_angle_alpha   90.00000000
_cell_angle_beta   90.00000000
_cell_angle_gamma   90.00000000
_symmetry_Int_Tables_number   1
_chemical_formula_structural   CuH6C8NO2
_chemical_formula_sum   'Cu8 H48 C64 N8 O16'
_cell_volume   1610.46162832
_cell_formula_units_Z   8
loop_
 _symmetry_equiv_pos_site_id
 _symmetry_equiv_pos_as_xyz
  1  'x, y, z'
loop_
 _atom_site_type_symbol
 _atom_site_label
 _atom_site_symmetry_multiplicity
 _atom_site_fract_x
 _atom_site_fract_y
 _atom_site_fract_z
 _atom_site_occupancy
 _atom_site_pbe_bader_charge
 _atom_site_pbe_bader_spin_density
 _atom_site_pbe_cm5_charge
 _atom_site_pbe_ddec_charge
 _atom_site_pbe_ddec_spin_density
 _atom_site_pbe_ddec_sum_bond_order
 _atom_site_pbe_magmom
Cu  Cu0  1  0.20517342  0.61944596  0.48230185  1  0.83363  0  0.609941  0.623828  0  2.344508  0
Cu  Cu1  1  0.29482361  0.11944699  0.01769914  1  0.833679  0  0.609913  0.623775  0  2.344429  0
Cu  Cu2  1  0.29483127  0.38055459  0.98231178  1  0.833522  0  0.609967  0.623951  0  2.344354  0
Cu  Cu3  1  0.20517151  0.88055422  0.51768872  1  0.833574  0  0.610017  0.623993  0  2.344342  0
Cu  Cu4  1  0.79483022  0.38055525  0.51768922  1  0.833474  0  0.609972  0.623953  0  2.344304  0
Cu  Cu5  1  0.70516853  0.88055487  0.98231078  1  0.833523  0  0.610012  0.623986  0  2.344351  0
Cu  Cu6  1  0.70517812  0.61944596  0.01769815  1  0.833662  0  0.609935  0.62378  0  2.344459  0
Cu  Cu7  1  0.79482447  0.11944699  0.48230135  1  0.833664  0  0.609914  0.623774  0  2.344454  0
H  H8  1  0.48220727  0.72645984  0.54909375  1  0.127941  0  0.106853  0.124674  0  1.034109  0
H  H9  1  0.01779359  0.22646087  0.95090575  1  0.127867  0  0.106859  0.124668  0  1.034114  0
H  H10  1  0.01779551  0.27354006  0.04910566  1  0.128687  0  0.106842  0.124715  0  1.033882  0
H  H11  1  0.48220535  0.77354099  0.45089533  1  0.128661  0  0.106855  0.124727  0  1.033945  0
H  H12  1  0.51779637  0.27354071  0.45089483  1  0.128686  0  0.106841  0.124693  0  1.033938  0
H  H13  1  0.98220047  0.77354099  0.04910467  1  0.128675  0  0.106859  0.124711  0  1.03401  0
H  H14  1  0.98221005  0.72645984  0.95090625  1  0.127939  0  0.106854  0.124662  0  1.034099  0
H  H15  1  0.51779445  0.22646152  0.54909474  1  0.127872  0  0.106867  0.124683  0  1.034093  0
H  H16  1  0.26972669  0.54672953  0.59488461  1  0.071147  0  0.102434  0.127529  0  1.021389  0
H  H17  1  0.23026650  0.04673121  0.90511638  1  0.071186  0  0.102425  0.127524  0  1.021424  0
H  H18  1  0.23027417  0.45327363  0.09489503  1  0.070941  0  0.102439  0.127578  0  1.021233  0
H  H19  1  0.26972861  0.95327325  0.40510695  1  0.07099  0  0.102429  0.127523  0  1.021248  0
H  H20  1  0.73028078  0.45327363  0.40510546  1  0.070934  0  0.102454  0.127581  0  1.021213  0
H  H21  1  0.76972564  0.95327391  0.09489354  1  0.070973  0  0.102419  0.127502  0  1.021277  0
H  H22  1  0.76972755  0.54672888  0.90511440  1  0.071148  0  0.102408  0.127506  0  1.021366  0
H  H23  1  0.73026545  0.04673056  0.59488411  1  0.071196  0  0.102433  0.127523  0  1.021425  0
H  H24  1  0.02709378  0.60583378  0.65988387  1  0.065179  0  0.109458  0.121606  0  0.991569  0
H  H25  1  0.47290708  0.10583155  0.84011812  1  0.065105  0  0.109459  0.121589  0  0.99155  0
H  H26  1  0.47292624  0.39416677  0.15989230  1  0.065499  0  0.109447  0.121509  0  0.991664  0
H  H27  1  0.02708420  0.89416704  0.34010621  1  0.065483  0  0.109464  0.121573  0  0.991582  0
H  H28  1  0.97291560  0.39416611  0.34010621  1  0.065494  0  0.109465  0.121563  0  0.991597  0
H  H29  1  0.52707357  0.89416835  0.15989181  1  0.065498  0  0.109452  0.121523  0  0.991628  0
H  H30  1  0.52709656  0.60583117  0.84011762  1  0.065141  0  0.109442  0.121556  0  0.991548  0
H  H31  1  0.97290602  0.10583351  0.65988387  1  0.065179  0  0.109441  0.121564  0  0.991578  0
H  H32  1  0.67914984  0.67877023  0.72342895  1  0.077446  0  0.102704  0.095071  0  1.01654  0
H  H33  1  0.82085275  0.17876734  0.77657253  1  0.077435  0  0.102652  0.09508  0  1.016557  0
H  H34  1  0.82087766  0.32123228  0.22343441  1  0.077167  0  0.102747  0.095094  0  1.01663  0
H  H35  1  0.67913451  0.82123125  0.27656459  1  0.077191  0  0.10273  0.095067  0  1.016621  0
H  H36  1  0.32086722  0.32123032  0.27656410  1  0.077093  0  0.102747  0.095102  0  1.016637  0
H  H37  1  0.17912790  0.82123125  0.22343441  1  0.077187  0  0.102763  0.095114  0  1.016644  0
H  H38  1  0.17914898  0.67876566  0.77657154  1  0.077423  0  0.102667  0.095066  0  1.016509  0
H  H39  1  0.32084997  0.17876930  0.72342846  1  0.077435  0  0.102678  0.095061  0  1.016593  0
H  H40  1  0.58438675  0.83757696  0.70044965  1  0.09928  0  0.107064  0.112965  0  1.000603  0
H  H41  1  0.91561392  0.33757473  0.79954936  1  0.099286  0  0.107075  0.112984  0  1.000591  0
H  H42  1  0.91563308  0.16242359  0.20045610  1  0.099172  0  0.107074  0.113015  0  1.000684  0
H  H43  1  0.58437142  0.66242452  0.29954340  1  0.099181  0  0.107056  0.112988  0  1.000584  0
H  H44  1  0.41563030  0.16242359  0.29954340  1  0.099158  0  0.107074  0.113024  0  1.000618  0
H  H45  1  0.08437247  0.66242321  0.20045610  1  0.099182  0  0.107092  0.113053  0  1.000615  0
H  H46  1  0.08438589  0.83757370  0.79954936  1  0.099304  0  0.107078  0.113011  0  1.000556  0
H  H47  1  0.41561689  0.33757668  0.70044965  1  0.099309  0  0.107069  0.112995  0  1.000579  0
H  H48  1  0.84200958  0.91331549  0.61300462  1  0.108564  0  0.117702  0.090607  0  1.019387  0
H  H49  1  0.65799300  0.41331391  0.88699439  1  0.108584  0  0.117734  0.090651  0  1.019462  0
H  H50  1  0.65798917  0.08668506  0.11301553  1  0.108777  0  0.1177  0.09065  0  1.019321  0
H  H51  1  0.84201150  0.58668599  0.38698546  1  0.10879  0  0.117686  0.090614  0  1.019386  0
H  H52  1  0.15799022  0.08668506  0.38698496  1  0.108774  0  0.1177  0.090647  0  1.019303  0
H  H53  1  0.34201639  0.58668469  0.11301504  1  0.108761  0  0.117682  0.090598  0  1.019399  0
H  H54  1  0.34200297  0.91331287  0.88699489  1  0.108621  0  0.117714  0.090627  0  1.019326  0
H  H55  1  0.15799022  0.41331521  0.61300561  1  0.108572  0  0.117737  0.090651  0  1.019483  0
C  C56  1  0.33334285  0.68153444  0.56608318  1  -0.197448  0  -0.15425  -0.25134  0  4.114234  0
C  C57  1  0.16665418  0.18153286  0.93391781  1  -0.197157  0  -0.15423  -0.25133  0  4.113991  0
C  C58  1  0.16666376  0.31847068  0.06609559  1  -0.197365  0  -0.154249  -0.251301  0  4.113859  0
C  C59  1  0.33333902  0.81846965  0.43390590  1  -0.197614  0  -0.154313  -0.251409  0  4.114067  0
C  C60  1  0.66666462  0.31847068  0.43390491  1  -0.197333  0  -0.154246  -0.251285  0  4.113879  0
C  C61  1  0.83333605  0.81846965  0.06609311  1  -0.197599  0  -0.154303  -0.251396  0  4.114029  0
C  C62  1  0.83334180  0.68153379  0.93391732  1  -0.197487  0  -0.154241  -0.251312  0  4.114095  0
C  C63  1  0.66665504  0.18153286  0.56608268  1  -0.197267  0  -0.154261  -0.251343  0  4.11405  0
C  C64  1  0.12218074  0.72108744  0.60318825  1  0.534109  0  0.117868  0.265945  0  3.983021  0
C  C65  1  0.37781246  0.22108912  0.89681076  1  0.53404  0  0.117897  0.266026  0  3.982829  0
C  C66  1  0.37781820  0.27891246  0.10319966  1  0.534569  0  0.117868  0.265737  0  3.983228  0
C  C67  1  0.12218266  0.77891339  0.39680133  1  0.534578  0  0.117876  0.265864  0  3.983141  0
C  C68  1  0.87781907  0.27891115  0.39680034  1  0.534586  0  0.117839  0.265738  0  3.983213  0
C  C69  1  0.62217777  0.77891208  0.10319768  1  0.534605  0  0.11793  0.265943  0  3.982973  0
C  C70  1  0.62217777  0.72108744  0.89681126  1  0.534104  0  0.117866  0.265955  0  3.982971  0
C  C71  1  0.87781715  0.22108912  0.60318974  1  0.534165  0  0.117932  0.266044  0  3.982788  0
C  C72  1  0.39111597  0.59231627  0.56770807  1  -0.109103  0  -0.166261  -0.298145  0  3.99814  0
C  C73  1  0.10887148  0.09231404  0.93229292  1  -0.109313  0  -0.16633  -0.298244  0  3.99824  0
C  C74  1  0.10887531  0.40768623  0.06771651  1  -0.109065  0  -0.166319  -0.298383  0  3.998106  0
C  C75  1  0.39112747  0.90768520  0.43228398  1  -0.108859  0  -0.166311  -0.298295  0  3.998079  0
C  C76  1  0.60887809  0.40768754  0.43228448  1  -0.109119  0  -0.166323  -0.298403  0  3.998069  0
C  C77  1  0.89112641  0.90768520  0.06771602  1  -0.108852  0  -0.166266  -0.298227  0  3.998007  0
C  C78  1  0.89112258  0.59231562  0.93229193  1  -0.109032  0  -0.166274  -0.298153  0  3.998177  0
C  C79  1  0.60887234  0.09231535  0.56770708  1  -0.109318  0  -0.166327  -0.298213  0  3.998289  0
C  C80  1  0.98261632  0.67432097  0.65116681  1  -0.014945  0  -0.083797  -0.15839  0  3.910663  0
C  C81  1  0.51738435  0.17432135  0.84883369  1  -0.014881  0  -0.083798  -0.158386  0  3.910585  0
C  C82  1  0.51739968  0.32568023  0.15117773  1  -0.015466  0  -0.083773  -0.158134  0  3.910722  0
C  C83  1  0.98260866  0.82567920  0.34882178  1  -0.014776  0  -0.08379  -0.15825  0  3.910703  0
C  C84  1  0.01739307  0.32567893  0.34882079  1  -0.014766  0  -0.083764  -0.158198  0  3.910734  0
C  C85  1  0.48260013  0.82567985  0.15117673  1  -0.015445  0  -0.083791  -0.158188  0  3.910644  0
C  C86  1  0.48261738  0.67431966  0.84883369  1  -0.014973  0  -0.083775  -0.158339  0  3.910571  0
C  C87  1  0.01738732  0.17432135  0.65116830  1  -0.014915  0  -0.083774  -0.158339  0  3.910685  0
C  C88  1  0.87891715  0.84553143  0.62592089  1  0.482001  0  0.048362  0.110636  0  3.922385  0
C  C89  1  0.62108543  0.34553116  0.87407911  1  0.482007  0  0.048326  0.110566  0  3.922364  0
C  C90  1  0.62109310  0.15446912  0.12593032  1  0.484772  0  0.048466  0.110729  0  3.922524  0
C  C91  1  0.87890949  0.65446939  0.37407018  1  0.484743  0  0.048433  0.110692  0  3.922649  0
C  C92  1  0.12109224  0.15446912  0.37406968  1  0.484735  0  0.048441  0.110704  0  3.922471  0
C  C93  1  0.37890862  0.65446939  0.12592982  1  0.48439  0  0.048435  0.110721  0  3.922612  0
C  C94  1  0.37891437  0.84552882  0.87407961  1  0.482003  0  0.048348  0.110647  0  3.922249  0
C  C95  1  0.12108457  0.34553181  0.62592188  1  0.481998  0  0.048332  0.110608  0  3.922457  0
C  C96  1  0.78825703  0.71498775  0.68646533  1  -0.075865  0  -0.071948  -0.024191  0  3.990695  0
C  C97  1  0.71173980  0.21498617  0.81353516  1  -0.075874  0  -0.071906  -0.024202  0  3.990671  0
C  C98  1  0.71176471  0.28501280  0.18647377  1  -0.075805  0  -0.072039  -0.024365  0  3.990635  0
C  C99  1  0.78824362  0.78501308  0.31352474  1  -0.076518  0  -0.072002  -0.024325  0  3.990707  0
C  C100  1  0.21175810  0.28501215  0.31352424  1  -0.076435  0  -0.072053  -0.024372  0  3.990734  0
C  C101  1  0.28823701  0.78501308  0.18647377  1  -0.075794  0  -0.072043  -0.024422  0  3.990713  0
C  C102  1  0.28826000  0.71498644  0.81353516  1  -0.075866  0  -0.071894  -0.02412  0  3.990542  0
C  C103  1  0.21174277  0.21498747  0.68646583  1  -0.075914  0  -0.071919  -0.024181  0  3.99084  0
C  C104  1  0.73574438  0.80291456  0.67419574  1  -0.019771  0  -0.089168  -0.138396  0  3.980175  0
C  C105  1  0.76425820  0.30291363  0.82580376  1  -0.019764  0  -0.089169  -0.138412  0  3.980047  0
C  C106  1  0.76427162  0.19708665  0.17420418  1  -0.019977  0  -0.089181  -0.138453  0  3.980369  0
C  C107  1  0.73573480  0.69708692  0.32579582  1  -0.01989  0  -0.08914  -0.138336  0  3.980291  0
C  C108  1  0.26426692  0.19708599  0.32579532  1  -0.019911  0  -0.089163  -0.138419  0  3.980348  0
C  C109  1  0.23573394  0.69708627  0.17420319  1  -0.019923  0  -0.089169  -0.138405  0  3.980356  0
C  C110  1  0.23574160  0.80291194  0.82580376  1  -0.019737  0  -0.089174  -0.138511  0  3.980128  0
C  C111  1  0.26425734  0.30291428  0.67419624  1  -0.019821  0  -0.089178  -0.138453  0  3.98012  0
C  C112  1  0.65030448  0.55816245  0.54914834  1  1.577148  0  0.187738  0.624545  0  4.223986  0
C  C113  1  0.84968660  0.05815956  0.95085166  1  1.577236  0  0.187686  0.624498  0  4.224135  0
C  C114  1  0.84970002  0.44183941  0.04916075  1  1.576885  0  0.187624  0.624519  0  4.224028  0
C  C115  1  0.65030448  0.94183838  0.45084173  1  1.576468  0  0.187616  0.624499  0  4.223969  0
C  C116  1  0.34970682  0.44183745  0.45083974  1  1.576832  0  0.187745  0.624635  0  4.223792  0
C  C117  1  0.15030171  0.94183772  0.04915827  1  1.576433  0  0.187596  0.62445  0  4.223965  0
C  C118  1  0.15030171  0.55816180  0.95085166  1  1.577555  0  0.187745  0.624543  0  4.224052  0
C  C119  1  0.34968383  0.05815956  0.54914785  1  1.577286  0  0.187737  0.624598  0  4.224256  0
N  N120  1  0.06673603  0.80631205  0.59095290  1  -1.204196  0  -0.347597  -0.261502  0  3.530689  0
N  N121  1  0.43326675  0.30631243  0.90904760  1  -1.204194  0  -0.34763  -0.261507  0  3.5306  0
N  N122  1  0.43326483  0.19368785  0.09096481  1  -1.206851  0  -0.347608  -0.261386  0  3.530812  0
N  N123  1  0.06673603  0.69368878  0.40903618  1  -1.206827  0  -0.347623  -0.261492  0  3.530888  0
N  N124  1  0.93326378  0.19368720  0.40903568  1  -1.20686  0  -0.347616  -0.261419  0  3.530787  0
N  N125  1  0.56673689  0.69368943  0.09096332  1  -1.206513  0  -0.347669  -0.261543  0  3.530831  0
N  N126  1  0.56673114  0.80631074  0.90904760  1  -1.204165  0  -0.347612  -0.261506  0  3.530607  0
N  N127  1  0.93326378  0.30631308  0.59095389  1  -1.204143  0  -0.347626  -0.261538  0  3.530705  0
O  O128  1  0.70591784  0.48263153  0.57364882  1  -1.171494  0  -0.368972  -0.590154  0  2.336413  0
O  O129  1  0.79407516  0.98263246  0.92635416  1  -1.171587  0  -0.368918  -0.590115  0  2.336566  0
O  O130  1  0.79405983  0.51736314  0.07365477  1  -1.171774  0  -0.368871  -0.590007  0  2.336662  0
O  O131  1  0.70593892  0.01736352  0.42634374  1  -1.171282  0  -0.368879  -0.590035  0  2.336426  0
O  O132  1  0.29406664  0.51736445  0.42634771  1  -1.171656  0  -0.369017  -0.590176  0  2.336523  0
O  O133  1  0.20593806  0.01736352  0.07365676  1  -1.171266  0  -0.368887  -0.590055  0  2.336398  0
O  O134  1  0.20591889  0.48262957  0.92635118  1  -1.171946  0  -0.368997  -0.590188  0  2.336402  0
O  O135  1  0.29407239  0.98263311  0.57364485  1  -1.171564  0  -0.368943  -0.590178  0  2.336696  0
O  O136  1  0.78975181  0.60387520  0.51186957  1  -1.183787  0  -0.328112  -0.575278  0  2.330264  0
O  O137  1  0.71024311  0.10387753  0.98813092  1  -1.183834  0  -0.328082  -0.575238  0  2.330285  0
O  O138  1  0.71024886  0.39612013  0.01187801  1  -1.183603  0  -0.328124  -0.575401  0  2.329929  0
O  O139  1  0.78975564  0.89612106  0.48812199  1  -1.183694  0  -0.328112  -0.575382  0  2.330101  0
O  O140  1  0.21025183  0.39611752  0.48812100  1  -1.183593  0  -0.328112  -0.575359  0  2.329908  0
O  O141  1  0.28975095  0.89612106  0.01187801  1  -1.183658  0  -0.32809  -0.575337  0  2.330167  0
O  O142  1  0.28975287  0.60387389  0.98813092  1  -1.183774  0  -0.328077  -0.575237  0  2.330249  0
O  O143  1  0.21024608  0.10387753  0.51186858  1  -1.18386  0  -0.328111  -0.575295  0  2.330355  0
