# generated using pymatgen
data_CdH8C8NClO3
_symmetry_space_group_name_H-M   'P 1'
_cell_length_a   6.87245953
_cell_length_b   16.01379110
_cell_length_c   20.54548856
_cell_angle_alpha   90.00019968
_cell_angle_beta   89.99977510
_cell_angle_gamma   90.00022115
_symmetry_Int_Tables_number   1
_chemical_formula_structural   CdH8C8NClO3
_chemical_formula_sum   'Cd8 H64 C64 N8 Cl8 O24'
_cell_volume   2261.11589621
_cell_formula_units_Z   8
loop_
 _symmetry_equiv_pos_site_id
 _symmetry_equiv_pos_as_xyz
  1  'x, y, z'
loop_
 _atom_site_type_symbol
 _atom_site_label
 _atom_site_symmetry_multiplicity
 _atom_site_fract_x
 _atom_site_fract_y
 _atom_site_fract_z
 _atom_site_occupancy
 _atom_site_pbe_bader_charge
 _atom_site_pbe_bader_spin_density
 _atom_site_pbe_cm5_charge
 _atom_site_pbe_ddec_charge
 _atom_site_pbe_ddec_spin_density
 _atom_site_pbe_ddec_sum_bond_order
 _atom_site_pbe_magmom
Cd  Cd0  1  0.86490431  0.90430794  0.46670941  1  1.218998  0  0.677113  0.868669  0  2.290006  0
Cd  Cd1  1  0.36488708  0.09569665  0.03328845  1  1.218957  0  0.67711  0.868637  0  2.290021  0
Cd  Cd2  1  0.13510177  0.59569508  0.96671123  1  1.218971  0  0.677099  0.868627  0  2.289946  0
Cd  Cd3  1  0.63509026  0.40430574  0.53328847  1  1.218925  0  0.677128  0.868697  0  2.290057  0
Cd  Cd4  1  0.13509176  0.09569321  0.53328597  1  1.218955  0  0.677133  0.868638  0  2.290114  0
Cd  Cd5  1  0.63509881  0.90430637  0.96671228  1  1.218924  0  0.677106  0.868658  0  2.289985  0
Cd  Cd6  1  0.86491322  0.40430669  0.03329047  1  1.218905  0  0.67713  0.868701  0  2.290025  0
Cd  Cd7  1  0.36490000  0.59569790  0.46670934  1  1.218944  0  0.677087  0.868584  0  2.289867  0
H  H8  1  0.52844823  0.81667246  0.41864544  1  0.666178  0  0.278743  0.378232  0  0.970513  0
H  H9  1  0.02844870  0.18332407  0.08135823  1  0.6662  0  0.278736  0.3782  0  0.970547  0
H  H10  1  0.47155112  0.68332535  0.91864266  1  0.666193  0  0.278713  0.378168  0  0.9706  0
H  H11  1  0.97154702  0.31667354  0.58135609  1  0.666225  0  0.278702  0.378114  0  0.970671  0
H  H12  1  0.47154639  0.18332119  0.58135772  1  0.666292  0  0.278729  0.378174  0  0.970555  0
H  H13  1  0.97154738  0.81667520  0.91864200  1  0.666218  0  0.278736  0.378197  0  0.97054  0
H  H14  1  0.52845514  0.31666955  0.08135174  1  0.666156  0  0.278698  0.378123  0  0.970655  0
H  H15  1  0.02845051  0.68332260  0.41864317  1  0.666237  0  0.278695  0.37818  0  0.970563  0
H  H16  1  0.45906576  0.90667550  0.44285628  1  0.616043  0  0.260029  0.369247  0  0.971189  0
H  H17  1  0.95905413  0.09332612  0.05714291  1  0.616015  0  0.260021  0.36927  0  0.971163  0
H  H18  1  0.54094059  0.59332741  0.94285754  1  0.616055  0  0.260021  0.369278  0  0.971177  0
H  H19  1  0.04093313  0.40667326  0.55714327  1  0.616067  0  0.260002  0.369228  0  0.971235  0
H  H20  1  0.54093322  0.09332377  0.55714250  1  0.615967  0  0.260027  0.36924  0  0.971224  0
H  H21  1  0.04093904  0.90667315  0.94285928  1  0.61602  0  0.260016  0.369249  0  0.971214  0
H  H22  1  0.45907149  0.40666936  0.05713637  1  0.616624  0  0.260124  0.36934  0  0.971054  0
H  H23  1  0.95906149  0.59332414  0.44285648  1  0.615984  0  0.260042  0.369275  0  0.971171  0
H  H24  1  0.12720080  0.55430822  0.12141710  1  0.11542  0  0.114911  0.093083  0  1.00827  0
H  H25  1  0.62718583  0.44569471  0.37857768  1  0.115496  0  0.114924  0.093073  0  1.008222  0
H  H26  1  0.87279747  0.94568950  0.62142274  1  0.115459  0  0.114929  0.09306  0  1.008323  0
H  H27  1  0.37278914  0.05430611  0.87858637  1  0.115365  0  0.11493  0.093112  0  1.008256  0
H  H28  1  0.87280110  0.44569729  0.87858363  1  0.115389  0  0.114886  0.093054  0  1.008312  0
H  H29  1  0.37280006  0.55431080  0.62141964  1  0.115209  0  0.114928  0.093079  0  1.008277  0
H  H30  1  0.12718988  0.05431352  0.37857701  1  0.115239  0  0.114933  0.093084  0  1.008352  0
H  H31  1  0.62718947  0.94569566  0.12142117  1  0.115481  0  0.114898  0.093051  0  1.008212  0
H  H32  1  0.08212498  0.62794557  0.22623635  1  0.108978  0  0.117399  0.130318  0  0.976908  0
H  H33  1  0.58209306  0.37205292  0.27376093  1  0.110076  0  0.117473  0.130465  0  0.976641  0
H  H34  1  0.91786485  0.87205262  0.72623783  1  0.108971  0  0.117435  0.13034  0  0.976884  0
H  H35  1  0.41788162  0.12794493  0.77377024  1  0.109076  0  0.117378  0.130371  0  0.976961  0
H  H36  1  0.91790020  0.37205557  0.77376389  1  0.109836  0  0.117415  0.13042  0  0.976753  0
H  H37  1  0.41789429  0.62795385  0.72623639  1  0.109137  0  0.117407  0.130382  0  0.976848  0
H  H38  1  0.08209485  0.12795727  0.27376533  1  0.109128  0  0.117464  0.130485  0  0.976789  0
H  H39  1  0.58209991  0.87205059  0.22623925  1  0.109834  0  0.117414  0.130384  0  0.976778  0
H  H40  1  0.13690175  0.86138542  0.12085242  1  0.125342  0  0.105391  0.12238  0  1.00288  0
H  H41  1  0.63689132  0.13861566  0.37914770  1  0.125209  0  0.105382  0.122315  0  1.003114  0
H  H42  1  0.86308925  0.63861105  0.62084508  1  0.125344  0  0.105405  0.122376  0  1.002795  0
H  H43  1  0.36309674  0.36138953  0.87914847  1  0.125195  0  0.1054  0.122364  0  1.002792  0
H  H44  1  0.86308269  0.13861635  0.87914928  1  0.125427  0  0.10541  0.122428  0  1.002884  0
H  H45  1  0.36311057  0.86139048  0.62084718  1  0.125082  0  0.105439  0.122419  0  1.003018  0
H  H46  1  0.13689955  0.36139447  0.37915419  1  0.12519  0  0.105421  0.122395  0  1.002782  0
H  H47  1  0.63690225  0.63861723  0.12084739  1  0.12539  0  0.105374  0.122347  0  1.003016  0
H  H48  1  0.18410919  0.77793779  0.02061469  1  0.126835  0  0.111363  0.092931  0  1.012679  0
H  H49  1  0.68409695  0.22206524  0.47938049  1  0.126826  0  0.111372  0.092999  0  1.012678  0
H  H50  1  0.81587709  0.72206760  0.52061592  1  0.126743  0  0.111382  0.092901  0  1.012806  0
H  H51  1  0.31589001  0.27793915  0.97938694  1  0.126769  0  0.11137  0.092919  0  1.01274  0
H  H52  1  0.81587670  0.22206460  0.97938311  1  0.126766  0  0.111356  0.092846  0  1.012807  0
H  H53  1  0.31589331  0.77793777  0.52061683  1  0.126755  0  0.111348  0.092967  0  1.012697  0
H  H54  1  0.18410443  0.27793979  0.47938724  1  0.126729  0  0.111389  0.092956  0  1.012735  0
H  H55  1  0.68411626  0.72206636  0.02061622  1  0.126771  0  0.111412  0.092917  0  1.012787  0
H  H56  1  0.05490430  0.86866996  0.23597897  1  0.06623  0  0.110539  0.114929  0  0.981371  0
H  H57  1  0.55487471  0.13132599  0.26402320  1  0.065852  0  0.110544  0.114925  0  0.981483  0
H  H58  1  0.94508542  0.63131704  0.73597053  1  0.066425  0  0.110531  0.114962  0  0.981572  0
H  H59  1  0.44508698  0.36866807  0.76403215  1  0.066142  0  0.110568  0.114977  0  0.981359  0
H  H60  1  0.94508159  0.13133493  0.76401786  1  0.066291  0  0.110506  0.114969  0  0.981451  0
H  H61  1  0.44511409  0.86867765  0.73598142  1  0.066106  0  0.110541  0.115005  0  0.981437  0
H  H62  1  0.05488592  0.36867786  0.26402144  1  0.065857  0  0.110535  0.114998  0  0.981363  0
H  H63  1  0.55489746  0.63133057  0.23598171  1  0.066236  0  0.110531  0.114975  0  0.981351  0
H  H64  1  0.07484215  0.70282310  0.31197985  1  0.079494  0  0.109266  0.127744  0  1.01133  0
H  H65  1  0.57485416  0.29716789  0.18802084  1  0.079571  0  0.109301  0.12779  0  1.011299  0
H  H66  1  0.92516274  0.79716611  0.81197236  1  0.079353  0  0.109248  0.127725  0  1.011311  0
H  H67  1  0.42520149  0.20282458  0.68802548  1  0.079672  0  0.109204  0.127733  0  1.011143  0
H  H68  1  0.92517867  0.29717867  0.68801844  1  0.079517  0  0.109243  0.127788  0  1.011188  0
H  H69  1  0.42518266  0.70282576  0.81197356  1  0.079568  0  0.10928  0.127783  0  1.011358  0
H  H70  1  0.07485370  0.20282504  0.18802398  1  0.079516  0  0.109225  0.127691  0  1.011153  0
H  H71  1  0.57483387  0.79718281  0.31198012  1  0.079426  0  0.1092  0.127713  0  1.011246  0
C  C72  1  0.13106724  0.62244013  0.12354709  1  0.482171  0  0.045204  0.091304  0  3.959385  0
C  C73  1  0.63106188  0.37755282  0.37645498  1  0.501684  0  0.045243  0.091213  0  3.959275  0
C  C74  1  0.86893391  0.87755885  0.62354866  1  0.482164  0  0.045304  0.091417  0  3.959569  0
C  C75  1  0.36893057  0.12243675  0.87645656  1  0.482234  0  0.04527  0.091413  0  3.959444  0
C  C76  1  0.86893320  0.37755852  0.87645655  1  0.501635  0  0.04539  0.091464  0  3.959288  0
C  C77  1  0.36893856  0.62244832  0.62354234  1  0.501982  0  0.045322  0.091436  0  3.959284  0
C  C78  1  0.13106508  0.12244791  0.37645206  1  0.501832  0  0.045192  0.091219  0  3.959465  0
C  C79  1  0.63106696  0.87755316  0.12354466  1  0.501698  0  0.045299  0.091399  0  3.959222  0
C  C80  1  0.10579377  0.66423984  0.18210504  1  0.022566  0  -0.075068  -0.160981  0  3.902031  0
C  C81  1  0.60576831  0.33574745  0.31789318  1  0.002518  0  -0.075126  -0.16118  0  3.901607  0
C  C82  1  0.89420383  0.83575878  0.68210695  1  0.022533  0  -0.075108  -0.161051  0  3.901975  0
C  C83  1  0.39420879  0.16423498  0.81789970  1  0.022322  0  -0.075013  -0.161015  0  3.902202  0
C  C84  1  0.89422123  0.33575256  0.81789618  1  0.002734  0  -0.075064  -0.161226  0  3.901729  0
C  C85  1  0.39423068  0.66425057  0.68210171  1  0.003557  0  -0.075098  -0.161321  0  3.901782  0
C  C86  1  0.10577770  0.16424923  0.31789427  1  0.00326  0  -0.075036  -0.161135  0  3.901844  0
C  C87  1  0.60578001  0.83575117  0.18210541  1  0.002682  0  -0.074977  -0.161112  0  3.901762  0
C  C88  1  0.10535326  0.75224086  0.18320223  1  -0.072162  0  0.009502  0.141282  0  4.014528  0
C  C89  1  0.60534158  0.24774768  0.31680036  1  -0.071817  0  0.009653  0.141697  0  4.013702  0
C  C90  1  0.89465305  0.74775839  0.68320147  1  -0.071661  0  0.009667  0.1415  0  4.014124  0
C  C91  1  0.39465444  0.25223413  0.81679933  1  -0.071992  0  0.009594  0.141155  0  4.014703  0
C  C92  1  0.89465009  0.24775154  0.81679947  1  -0.071951  0  0.009545  0.141585  0  4.014316  0
C  C93  1  0.39466322  0.75225284  0.68319696  1  -0.071738  0  0.009682  0.141861  0  4.013601  0
C  C94  1  0.10534593  0.25224838  0.31680023  1  -0.071898  0  0.009542  0.141544  0  4.014053  0
C  C95  1  0.60535910  0.74775015  0.18319507  1  -0.071715  0  0.009533  0.14157  0  4.014105  0
C  C96  1  0.13479010  0.79341027  0.12368701  1  -0.083812  0  -0.081071  -0.17024  0  3.922479  0
C  C97  1  0.63478031  0.20658706  0.37632333  1  -0.083144  0  -0.081216  -0.170479  0  3.922889  0
C  C98  1  0.86521396  0.70659184  0.62367888  1  -0.083851  0  -0.081242  -0.17045  0  3.922439  0
C  C99  1  0.36520487  0.29340813  0.87631515  1  -0.083523  0  -0.081156  -0.170215  0  3.922552  0
C  C100  1  0.86520597  0.20659025  0.87631761  1  -0.084042  0  -0.081193  -0.170571  0  3.922898  0
C  C101  1  0.36521867  0.79341783  0.62367594  1  -0.083155  0  -0.081251  -0.170534  0  3.922821  0
C  C102  1  0.13479231  0.29341555  0.37631795  1  -0.083125  0  -0.081141  -0.170364  0  3.922435  0
C  C103  1  0.63479412  0.70658552  0.12367681  1  -0.083475  0  -0.081145  -0.170324  0  3.922926  0
C  C104  1  0.16103555  0.74706261  0.06722149  1  0.543877  0  0.042992  0.100423  0  3.950255  0
C  C105  1  0.66102845  0.25293164  0.43278151  1  0.542943  0  0.042992  0.100427  0  3.950811  0
C  C106  1  0.83897059  0.75293861  0.56721596  1  0.54396  0  0.042992  0.100498  0  3.950648  0
C  C107  1  0.33896483  0.24706255  0.93278152  1  0.543803  0  0.043031  0.100435  0  3.950332  0
C  C108  1  0.83895616  0.25293603  0.93277972  1  0.543985  0  0.043002  0.100621  0  3.950637  0
C  C109  1  0.33896617  0.74707075  0.56721776  1  0.542964  0  0.043008  0.100355  0  3.950996  0
C  C110  1  0.16103858  0.24706940  0.43278088  1  0.543116  0  0.042873  0.10022  0  3.950679  0
C  C111  1  0.66104725  0.75293047  0.06721872  1  0.542953  0  0.042942  0.100422  0  3.951061  0
C  C112  1  0.07215107  0.80119939  0.24202351  1  0.005205  0  -0.071052  -0.081074  0  3.956997  0
C  C113  1  0.57212360  0.19879159  0.25797378  1  0.004786  0  -0.071076  -0.081096  0  3.956662  0
C  C114  1  0.92785314  0.69878763  0.74202305  1  0.004069  0  -0.071163  -0.081271  0  3.956989  0
C  C115  1  0.42785562  0.30119995  0.75797819  1  0.005051  0  -0.071194  -0.081122  0  3.957041  0
C  C116  1  0.92785519  0.19880050  0.75797430  1  0.004676  0  -0.071121  -0.081209  0  3.957201  0
C  C117  1  0.42787248  0.80120893  0.74202695  1  0.004662  0  -0.071176  -0.08138  0  3.95679  0
C  C118  1  0.07213129  0.30120664  0.25797621  1  0.004783  0  -0.07118  -0.081328  0  3.957038  0
C  C119  1  0.57214337  0.69879995  0.24202643  1  0.004734  0  -0.071112  -0.081249  0  3.956819  0
C  C120  1  0.05828656  0.76947936  0.30249466  1  -0.020649  0  -0.085366  -0.208007  0  3.891042  0
C  C121  1  0.55827459  0.23051222  0.19750265  1  -0.020489  0  -0.085325  -0.208011  0  3.890927  0
C  C122  1  0.94172571  0.73051106  0.80249281  1  -0.019986  0  -0.085207  -0.207731  0  3.890815  0
C  C123  1  0.44174603  0.26948716  0.69751182  1  -0.020617  0  -0.08521  -0.207976  0  3.890972  0
C  C124  1  0.94173134  0.23051991  0.69750802  1  -0.020593  0  -0.085207  -0.207926  0  3.89099  0
C  C125  1  0.44173894  0.76948018  0.80249516  1  -0.020668  0  -0.085287  -0.207934  0  3.89104  0
C  C126  1  0.05826891  0.26948571  0.19751181  1  -0.020443  0  -0.085187  -0.207792  0  3.890846  0
C  C127  1  0.55827332  0.73052148  0.30249572  1  -0.02054  0  -0.085237  -0.207882  0  3.890976  0
C  C128  1  0.00816904  0.82130477  0.35983922  1  1.513481  0  0.189891  0.605188  0  4.196001  0
C  C129  1  0.50815579  0.17868797  0.14015864  1  1.513607  0  0.189727  0.605061  0  4.196075  0
C  C130  1  0.99184841  0.67868777  0.85984106  1  1.513771  0  0.189688  0.604845  0  4.196269  0
C  C131  1  0.49185382  0.32130740  0.64016594  1  1.513422  0  0.189804  0.60523  0  4.196115  0
C  C132  1  0.99183867  0.17869075  0.64015858  1  1.513659  0  0.189807  0.605064  0  4.196033  0
C  C133  1  0.49185192  0.82130755  0.85983868  1  1.513457  0  0.189771  0.605023  0  4.196033  0
C  C134  1  0.00816076  0.32130712  0.14016015  1  1.513603  0  0.189817  0.605051  0  4.195898  0
C  C135  1  0.50815535  0.67869249  0.35984112  1  1.51326  0  0.18977  0.604923  0  4.195983  0
N  N136  1  0.15764192  0.66304565  0.06666846  1  -1.298767  0  -0.33573  -0.260791  0  3.543855  0
N  N137  1  0.65763411  0.33694610  0.43332773  1  -1.29873  0  -0.33577  -0.260707  0  3.544053  0
N  N138  1  0.84236859  0.83695370  0.56667288  1  -1.298764  0  -0.33582  -0.260819  0  3.544201  0
N  N139  1  0.34235335  0.16304498  0.93332994  1  -1.29886  0  -0.335849  -0.260833  0  3.543984  0
N  N140  1  0.84235852  0.33695237  0.93333226  1  -1.298846  0  -0.335818  -0.260875  0  3.544046  0
N  N141  1  0.34236342  0.66305754  0.56667105  1  -1.298769  0  -0.335815  -0.260745  0  3.544139  0
N  N142  1  0.15763767  0.16305119  0.43332784  1  -1.298522  0  -0.335717  -0.260596  0  3.543962  0
N  N143  1  0.65764127  0.83694430  0.06666981  1  -1.298691  0  -0.335808  -0.260839  0  3.544171  0
Cl  Cl144  1  0.76885907  0.05331080  0.49363200  1  -0.634389  0  -0.264864  -0.500523  0  1.323433  0
Cl  Cl145  1  0.26886134  0.94669362  0.00636940  1  -0.63432  0  -0.264876  -0.500539  0  1.323473  0
Cl  Cl146  1  0.23114664  0.44669116  0.99363026  1  -0.634386  0  -0.264866  -0.500542  0  1.323398  0
Cl  Cl147  1  0.73112801  0.55330608  0.50636785  1  -0.634359  0  -0.264868  -0.500522  0  1.323445  0
Cl  Cl148  1  0.23113700  0.94669034  0.50636630  1  -0.634393  0  -0.264858  -0.500513  0  1.323463  0
Cl  Cl149  1  0.73113619  0.05330815  0.99363327  1  -0.634392  0  -0.264872  -0.500542  0  1.323405  0
Cl  Cl150  1  0.76886690  0.55330874  0.00636560  1  -0.634373  0  -0.264838  -0.500507  0  1.323435  0
Cl  Cl151  1  0.26886224  0.44669818  0.49363677  1  -0.634391  0  -0.264874  -0.500514  0  1.323459  0
O  O152  1  0.56550800  0.87774298  0.41994992  1  -1.275621  0  -0.598881  -0.753265  0  2.087747  0
O  O153  1  0.06549630  0.12225361  0.08005273  1  -1.275626  0  -0.598879  -0.753227  0  2.087767  0
O  O154  1  0.43449860  0.62225546  0.91994897  1  -1.275657  0  -0.598855  -0.753234  0  2.087762  0
O  O155  1  0.93448924  0.37774212  0.58004934  1  -1.275637  0  -0.598836  -0.753166  0  2.087866  0
O  O156  1  0.43448807  0.12225379  0.58005032  1  -1.275587  0  -0.59889  -0.753218  0  2.087915  0
O  O157  1  0.93449395  0.87774504  0.91994994  1  -1.275656  0  -0.598885  -0.753252  0  2.087794  0
O  O158  1  0.56551348  0.37773881  0.08004348  1  -1.27611  0  -0.598977  -0.753273  0  2.08796  0
O  O159  1  0.06550101  0.62225340  0.41994700  1  -1.275563  0  -0.598851  -0.753219  0  2.087754  0
O  O160  1  0.98750294  0.89966117  0.35571463  1  -1.148451  0  -0.332176  -0.543357  0  2.119685  0
O  O161  1  0.48748451  0.10033050  0.14428597  1  -1.148541  0  -0.332039  -0.543314  0  2.119484  0
O  O162  1  0.01251602  0.60032886  0.85571616  1  -1.148592  0  -0.332042  -0.543217  0  2.119514  0
O  O163  1  0.51252069  0.39966427  0.64428907  1  -1.148482  0  -0.332045  -0.543347  0  2.119696  0
O  O164  1  0.01249605  0.10033248  0.64428707  1  -1.148641  0  -0.33213  -0.543318  0  2.119553  0
O  O165  1  0.51251302  0.89966627  0.85571135  1  -1.148415  0  -0.332064  -0.543287  0  2.119551  0
O  O166  1  0.98750043  0.39966666  0.14428895  1  -1.148436  0  -0.332128  -0.543343  0  2.119491  0
O  O167  1  0.48749284  0.60033313  0.35570630  1  -1.148442  0  -0.332089  -0.543255  0  2.119404  0
O  O168  1  0.97874540  0.78155934  0.41391558  1  -1.156983  0  -0.32813  -0.557496  0  2.221875  0
O  O169  1  0.47874467  0.21844418  0.08608553  1  -1.157083  0  -0.32818  -0.557493  0  2.221956  0
O  O170  1  0.02125836  0.71845156  0.91391254  1  -1.157086  0  -0.328108  -0.557399  0  2.221943  0
O  O171  1  0.52126845  0.28156781  0.58608927  1  -1.15681  0  -0.328206  -0.55755  0  2.221887  0
O  O172  1  0.02126086  0.21843868  0.58608174  1  -1.157024  0  -0.32814  -0.557461  0  2.221998  0
O  O173  1  0.52126304  0.78155321  0.91391374  1  -1.156928  0  -0.328153  -0.557427  0  2.22174  0
O  O174  1  0.97875809  0.28155458  0.08608527  1  -1.157005  0  -0.328134  -0.557424  0  2.22187  0
O  O175  1  0.47874654  0.71845082  0.41391584  1  -1.156811  0  -0.328125  -0.557363  0  2.22184  0
