# generated using pymatgen
data_EuP3H33C18(NO5)3
_symmetry_space_group_name_H-M   'P 1'
_cell_length_a   12.34245779
_cell_length_b   12.34239930
_cell_length_c   18.77890999
_cell_angle_alpha   90.00088633
_cell_angle_beta   90.00083209
_cell_angle_gamma   89.99942236
_symmetry_Int_Tables_number   1
_chemical_formula_structural   EuP3H33C18(NO5)3
_chemical_formula_sum   'Eu4 P12 H132 C72 N12 O60'
_cell_volume   2860.69543932
_cell_formula_units_Z   4
loop_
 _symmetry_equiv_pos_site_id
 _symmetry_equiv_pos_as_xyz
  1  'x, y, z'
loop_
 _atom_site_type_symbol
 _atom_site_label
 _atom_site_symmetry_multiplicity
 _atom_site_fract_x
 _atom_site_fract_y
 _atom_site_fract_z
 _atom_site_occupancy
 _atom_site_pbe_bader_charge
 _atom_site_pbe_bader_spin_density
 _atom_site_pbe_cm5_charge
 _atom_site_pbe_ddec_charge
 _atom_site_pbe_ddec_spin_density
 _atom_site_pbe_ddec_sum_bond_order
 _atom_site_pbe_magmom
Eu  Eu0  1  0.92959822  0.96321067  0.19625555  1  2.216456  0  1.580142  2.314028  0  2.076836  0
Eu  Eu1  1  0.07040029  0.03678999  0.69625499  1  2.216565  0  1.580148  2.314014  0  2.076616  0
Eu  Eu2  1  0.03679923  0.92960957  0.44625444  1  2.216238  0  1.580141  2.314131  0  2.076537  0
Eu  Eu3  1  0.96320075  0.07038968  0.94625530  1  2.21629  0  1.580092  2.314147  0  2.076655  0
P  P4  1  0.92599889  0.81228983  0.02062103  1  3.411697  0  0.368271  1.369865  0  5.387493  0
P  P5  1  0.07399979  0.18770832  0.52062364  1  3.411638  0  0.368251  1.369806  0  5.38766  0
P  P6  1  0.18771782  0.92601182  0.27063260  1  3.411705  0  0.368381  1.369788  0  5.387467  0
P  P7  1  0.81228477  0.07398978  0.77062619  1  3.411721  0  0.368232  1.369612  0  5.387642  0
P  P8  1  0.73195913  0.07476215  0.06807279  1  3.426347  0  0.36768  1.381345  0  5.364673  0
P  P9  1  0.26803899  0.92523873  0.56807463  1  3.426403  0  0.36765  1.381252  0  5.364938  0
P  P10  1  0.92523450  0.73197750  0.31805961  1  3.425944  0  0.367654  1.381012  0  5.365163  0
P  P11  1  0.07476751  0.26801954  0.81805186  1  3.426086  0  0.367811  1.381294  0  5.365161  0
P  P12  1  0.79752986  0.03023271  0.37021288  1  3.414454  0  0.378192  1.376624  0  5.342124  0
P  P13  1  0.20246845  0.96976718  0.87020443  1  3.414671  0  0.37819  1.376583  0  5.342277  0
P  P14  1  0.96978861  0.79751834  0.62020496  1  3.413838  0  0.37793  1.376168  0  5.342371  0
P  P15  1  0.03021228  0.20248377  0.12020464  1  3.413847  0  0.377939  1.37616  0  5.342373  0
H  H16  1  0.80975736  0.67488890  0.05935366  1  0.653916  0  0.292696  0.375693  0  0.982438  0
H  H17  1  0.19024299  0.32511178  0.55935398  1  0.653905  0  0.292684  0.375649  0  0.982504  0
H  H18  1  0.32514203  0.80977648  0.30933938  1  0.653386  0  0.292719  0.375565  0  0.98265  0
H  H19  1  0.67485817  0.19022279  0.80934030  1  0.653349  0  0.29272  0.375571  0  0.982639  0
H  H20  1  0.60807225  0.18423087  0.12896287  1  0.655902  0  0.294272  0.375875  0  0.982271  0
H  H21  1  0.39192883  0.81576740  0.62896372  1  0.655919  0  0.294286  0.375936  0  0.982198  0
H  H22  1  0.81578839  0.60810010  0.37895124  1  0.656172  0  0.294313  0.375876  0  0.982261  0
H  H23  1  0.18421173  0.39189918  0.87895165  1  0.65618  0  0.294325  0.375907  0  0.982221  0
H  H24  1  0.69518479  0.15431352  0.42917118  1  0.661105  0  0.29567  0.375908  0  0.976742  0
H  H25  1  0.30481563  0.84568614  0.92917150  1  0.661194  0  0.295675  0.375921  0  0.976719  0
H  H26  1  0.84571238  0.69518299  0.67916893  1  0.661064  0  0.29558  0.375663  0  0.977101  0
H  H27  1  0.15428738  0.30481727  0.17916923  1  0.661056  0  0.295585  0.375648  0  0.977124  0
H  H28  1  0.02935563  0.61106655  0.06299732  1  0.520273  0  0.313341  0.256829  0  0.954249  0
H  H29  1  0.97064562  0.38893341  0.56299882  1  0.520269  0  0.313371  0.256826  0  0.954253  0
H  H30  1  0.38893314  0.02936230  0.31299461  1  0.520117  0  0.313363  0.256729  0  0.954246  0
H  H31  1  0.61106715  0.97063705  0.81299487  1  0.520146  0  0.31337  0.256743  0  0.954259  0
H  H32  1  0.54028274  0.96971703  0.12644669  1  0.530325  0  0.310969  0.257119  0  0.966607  0
H  H33  1  0.45971829  0.03028361  0.62644659  1  0.530345  0  0.310963  0.2571  0  0.966644  0
H  H34  1  0.03028552  0.54029955  0.37644487  1  0.530561  0  0.310953  0.256953  0  0.966639  0
H  H35  1  0.96971455  0.45970049  0.87644548  1  0.530557  0  0.310951  0.25695  0  0.966662  0
H  H36  1  0.61543605  0.94234902  0.45594899  1  0.540147  0  0.311767  0.256514  0  0.973293  0
H  H37  1  0.38456415  0.05764964  0.95594952  1  0.540153  0  0.311757  0.256508  0  0.973296  0
H  H38  1  0.05766258  0.61542402  0.70594906  1  0.540042  0  0.311747  0.256543  0  0.973317  0
H  H39  1  0.94233858  0.38457606  0.20595078  1  0.540142  0  0.31174  0.256566  0  0.973357  0
H  H40  1  0.23585043  0.65042285  0.98568518  1  0.1321  0  0.127999  0.111176  0  0.966097  0
H  H41  1  0.76414881  0.34957733  0.48568484  1  0.132084  0  0.128027  0.11119  0  0.966121  0
H  H42  1  0.34955173  0.23586844  0.23569386  1  0.131698  0  0.128033  0.111081  0  0.966248  0
H  H43  1  0.65044766  0.76413071  0.73569452  1  0.131696  0  0.12806  0.111127  0  0.966225  0
H  H44  1  0.22864189  0.45833860  0.08388475  1  0.09598  0  0.099668  0.108677  0  1.003751  0
H  H45  1  0.77135819  0.54166185  0.58388537  1  0.095974  0  0.099672  0.108665  0  1.003769  0
H  H46  1  0.54165235  0.22863908  0.33388042  1  0.096076  0  0.099666  0.108764  0  1.003753  0
H  H47  1  0.45834758  0.77136158  0.83387985  1  0.096054  0  0.099657  0.108744  0  1.003751  0
H  H48  1  0.33231023  0.55538711  0.06969802  1  0.024123  0  0.098963  0.099936  0  0.984593  0
H  H49  1  0.66768954  0.44461300  0.56969772  1  0.024126  0  0.098964  0.099926  0  0.984571  0
H  H50  1  0.44460536  0.33231859  0.31970448  1  0.023924  0  0.099004  0.099961  0  0.984618  0
H  H51  1  0.55539345  0.66768173  0.81970431  1  0.023927  0  0.098967  0.099918  0  0.984567  0
H  H52  1  0.14621228  0.55774456  0.17291080  1  0.042408  0  0.093634  0.087814  0  1.037681  0
H  H53  1  0.85378896  0.44225636  0.67291173  1  0.042621  0  0.093633  0.087789  0  1.037677  0
H  H54  1  0.44226593  0.14621095  0.42291025  1  0.042177  0  0.093623  0.087767  0  1.037688  0
H  H55  1  0.55773597  0.85378937  0.92291041  1  0.042327  0  0.093621  0.087784  0  1.037672  0
H  H56  1  0.26764159  0.63436122  0.17996543  1  0.041366  0  0.09949  0.102831  0  0.998  0
H  H57  1  0.73236061  0.36563986  0.67996442  1  0.041429  0  0.099482  0.102792  0  0.998065  0
H  H58  1  0.36564613  0.26763838  0.42997375  1  0.041303  0  0.099527  0.10289  0  0.997912  0
H  H59  1  0.63435512  0.73236292  0.92997393  1  0.041329  0  0.099519  0.102851  0  0.99798  0
H  H60  1  0.08001113  0.74016454  0.14674429  1  0.103944  0  0.122921  0.118703  0  1.001119  0
H  H61  1  0.91999035  0.25983657  0.64674506  1  0.103902  0  0.122918  0.118681  0  1.001148  0
H  H62  1  0.25984445  0.08001292  0.39675204  1  0.104113  0  0.122964  0.118667  0  1.001201  0
H  H63  1  0.74015607  0.91998759  0.89675302  1  0.104084  0  0.122963  0.118673  0  1.001201  0
H  H64  1  0.19878741  0.77171071  0.09719795  1  0.087557  0  0.118944  0.110231  0  0.954771  0
H  H65  1  0.80121297  0.22828924  0.59719726  1  0.087543  0  0.118966  0.110228  0  0.954823  0
H  H66  1  0.22829205  0.19879005  0.34721395  1  0.08754  0  0.118967  0.110193  0  0.954712  0
H  H67  1  0.77170737  0.80120930  0.84721508  1  0.087544  0  0.118955  0.11018  0  0.95476  0
H  H68  1  0.03770278  0.70459921  0.94458734  1  0.118055  0  0.129616  0.157991  0  0.975211  0
H  H69  1  0.96229636  0.29540000  0.44458781  1  0.118088  0  0.129634  0.158014  0  0.975196  0
H  H70  1  0.29537263  0.03772766  0.19459170  1  0.118196  0  0.129594  0.157968  0  0.975112  0
H  H71  1  0.70462504  0.96227134  0.69459117  1  0.118177  0  0.129563  0.15792  0  0.975121  0
H  H72  1  0.11468012  0.80719366  0.98878196  1  0.10876  0  0.1298  0.156176  0  0.999631  0
H  H73  1  0.88531918  0.19280659  0.48878118  1  0.108757  0  0.129785  0.156147  0  0.999656  0
H  H74  1  0.19279267  0.11469996  0.23879651  1  0.108393  0  0.129811  0.156128  0  0.999724  0
H  H75  1  0.80720759  0.88529927  0.73879671  1  0.108389  0  0.129824  0.156134  0  0.999687  0
H  H76  1  0.55379636  0.76515445  0.04232848  1  0.092319  0  0.125396  0.099506  0  0.953231  0
H  H77  1  0.44620200  0.23484583  0.54232820  1  0.092306  0  0.125406  0.099521  0  0.953235  0
H  H78  1  0.23484912  0.55378923  0.29232921  1  0.092354  0  0.125398  0.099513  0  0.953257  0
H  H79  1  0.76514908  0.44620882  0.79232827  1  0.092308  0  0.125384  0.099492  0  0.953243  0
H  H80  1  0.43364823  0.68840683  0.13064734  1  0.061446  0  0.102043  0.105943  0  0.992958  0
H  H81  1  0.56635208  0.31159471  0.63064845  1  0.061477  0  0.102051  0.105954  0  0.992856  0
H  H82  1  0.31157043  0.43362848  0.38065891  1  0.061625  0  0.102087  0.106056  0  0.992657  0
H  H83  1  0.68842973  0.56637165  0.88065898  1  0.061633  0  0.102094  0.106057  0  0.992652  0
H  H84  1  0.40039771  0.81732644  0.16635757  1  0.080925  0  0.099197  0.112609  0  0.999234  0
H  H85  1  0.59960258  0.18267433  0.66635823  1  0.080919  0  0.099194  0.112585  0  0.999228  0
H  H86  1  0.18264043  0.40041316  0.41636467  1  0.080941  0  0.09913  0.11257  0  0.999163  0
H  H87  1  0.81736051  0.59958701  0.91636525  1  0.080925  0  0.09914  0.11259  0  0.999216  0
H  H88  1  0.54366437  0.78661301  0.24568858  1  0.05857  0  0.094014  0.09362  0  1.014826  0
H  H89  1  0.45633686  0.21338881  0.74568872  1  0.058581  0  0.094012  0.093616  0  1.01477  0
H  H90  1  0.21339216  0.54368835  0.49568804  1  0.058406  0  0.094024  0.093587  0  1.014897  0
H  H91  1  0.78660892  0.45631206  0.99568793  1  0.058413  0  0.094014  0.09357  0  1.014893  0
H  H92  1  0.60481255  0.68659828  0.19094185  1  0.065121  0  0.099635  0.10499  0  0.988031  0
H  H93  1  0.39518747  0.31340307  0.69094188  1  0.065104  0  0.099638  0.104978  0  0.988052  0
H  H94  1  0.31340780  0.60481389  0.44092739  1  0.064956  0  0.099598  0.104916  0  0.98814  0
H  H95  1  0.68659208  0.39518523  0.94092625  1  0.064952  0  0.099575  0.104909  0  0.988117  0
H  H96  1  0.67145056  0.91221947  0.19761196  1  0.081688  0  0.119163  0.091813  0  1.017159  0
H  H97  1  0.32855042  0.08778203  0.69761066  1  0.081732  0  0.119188  0.091885  0  1.017114  0
H  H98  1  0.08778148  0.67146746  0.44760223  1  0.081814  0  0.119177  0.091848  0  1.017081  0
H  H99  1  0.91221935  0.32853263  0.94760256  1  0.081818  0  0.119172  0.091856  0  1.017057  0
H  H100  1  0.71712849  0.81128676  0.13611183  1  0.08606  0  0.121197  0.099671  0  1.001881  0
H  H101  1  0.28287113  0.18871329  0.63611058  1  0.086031  0  0.121199  0.099667  0  1.00189  0
H  H102  1  0.18871266  0.71714374  0.38610257  1  0.08579  0  0.121255  0.099805  0  1.001819  0
H  H103  1  0.81128600  0.28285572  0.88610094  1  0.085744  0  0.121258  0.099749  0  1.001923  0
H  H104  1  0.59900350  0.97929970  0.99960899  1  0.125624  0  0.123135  0.146709  0  1.021864  0
H  H105  1  0.40099524  0.02069919  0.49960929  1  0.125645  0  0.123127  0.146692  0  1.021879  0
H  H106  1  0.02069902  0.59900873  0.24960496  1  0.126113  0  0.123159  0.146705  0  1.021942  0
H  H107  1  0.97929987  0.40098994  0.74960507  1  0.126128  0  0.123168  0.146732  0  1.021877  0
H  H108  1  0.70878167  0.89181278  0.02413232  1  0.116387  0  0.126206  0.144363  0  1.018846  0
H  H109  1  0.29121872  0.10818626  0.52413247  1  0.116389  0  0.126188  0.144302  0  1.018936  0
H  H110  1  0.10818536  0.70879031  0.27411960  1  0.116308  0  0.126145  0.144269  0  1.018871  0
H  H111  1  0.89181406  0.29120813  0.77411829  1  0.116258  0  0.126156  0.144282  0  1.018854  0
H  H112  1  0.60340210  0.73718379  0.37308046  1  0.080193  0  0.126252  0.099087  0  0.951245  0
H  H113  1  0.39659789  0.26281455  0.87308000  1  0.080223  0  0.126246  0.09906  0  0.951261  0
H  H114  1  0.26283561  0.60337492  0.62308841  1  0.080331  0  0.126316  0.099212  0  0.950987  0
H  H115  1  0.73716453  0.39662483  0.12308776  1  0.080321  0  0.126302  0.09922  0  0.950995  0
H  H116  1  0.46928028  0.75507802  0.50674050  1  0.104151  0  0.09565  0.113282  0  1.028279  0
H  H117  1  0.53072052  0.24492223  0.00674166  1  0.10409  0  0.095671  0.113283  0  1.028245  0
H  H118  1  0.24491021  0.46925922  0.75675248  1  0.103633  0  0.09577  0.113423  0  1.028497  0
H  H119  1  0.75508883  0.53074124  0.25675390  1  0.103627  0  0.095773  0.113421  0  1.028477  0
H  H120  1  0.54483754  0.64398862  0.47248750  1  0.054969  0  0.097455  0.100724  0  0.979538  0
H  H121  1  0.45516222  0.35601124  0.97248801  1  0.054979  0  0.097456  0.100736  0  0.979541  0
H  H122  1  0.35601455  0.54478733  0.72250327  1  0.054956  0  0.09737  0.10071  0  0.9795  0
H  H123  1  0.64398616  0.45521151  0.22250286  1  0.054955  0  0.097352  0.10071  0  0.979547  0
H  H124  1  0.68196325  0.69405455  0.55621638  1  0.082643  0  0.097967  0.10335  0  1.008913  0
H  H125  1  0.31803703  0.30594525  0.05621667  1  0.082641  0  0.09798  0.103391  0  1.008868  0
H  H126  1  0.30596884  0.68194829  0.80621359  1  0.082468  0  0.098015  0.10342  0  1.008934  0
H  H127  1  0.69403210  0.31805253  0.30621173  1  0.08251  0  0.097989  0.103357  0  1.008942  0
H  H128  1  0.61545580  0.81867348  0.57326774  1  0.043636  0  0.092418  0.094076  0  0.999895  0
H  H129  1  0.38454486  0.18132753  0.07326739  1  0.043653  0  0.092399  0.094043  0  0.999985  0
H  H130  1  0.18135075  0.61545556  0.82327808  1  0.043889  0  0.092415  0.094094  0  0.999925  0
H  H131  1  0.81865057  0.38454485  0.32327915  1  0.04387  0  0.092382  0.094014  0  0.999972  0
H  H132  1  0.77622905  0.76572370  0.45380337  1  0.104977  0  0.116683  0.107971  0  0.991769  0
H  H133  1  0.22377030  0.23427654  0.95380256  1  0.104979  0  0.116694  0.107966  0  0.991739  0
H  H134  1  0.23429593  0.77620869  0.70379991  1  0.104852  0  0.116713  0.107909  0  0.991709  0
H  H135  1  0.76570356  0.22379133  0.20379937  1  0.104861  0  0.116713  0.107919  0  0.991677  0
H  H136  1  0.77269248  0.88334087  0.50853982  1  0.116395  0  0.12097  0.116895  0  0.993405  0
H  H137  1  0.22730837  0.11665942  0.00853891  1  0.116436  0  0.120987  0.116954  0  0.993355  0
H  H138  1  0.11667979  0.77268469  0.75853520  1  0.116805  0  0.121047  0.117026  0  0.993104  0
H  H139  1  0.88332172  0.22731582  0.25853529  1  0.11681  0  0.121043  0.11702  0  0.993103  0
H  H140  1  0.63875251  0.94248350  0.32632018  1  0.125048  0  0.12455  0.145166  0  1.001709  0
H  H141  1  0.36124483  0.05751536  0.82632154  1  0.125063  0  0.12454  0.145114  0  1.001864  0
H  H142  1  0.05754760  0.63873562  0.57631759  1  0.124931  0  0.124473  0.144956  0  1.001891  0
H  H143  1  0.94245151  0.36126383  0.07631854  1  0.12496  0  0.124487  0.144979  0  1.001894  0
H  H144  1  0.74657685  0.84754693  0.33774100  1  0.106871  0  0.126728  0.137902  0  1.040141  0
H  H145  1  0.25342236  0.15245139  0.83774124  1  0.106869  0  0.126728  0.137887  0  1.040151  0
H  H146  1  0.15247803  0.74655953  0.58774364  1  0.107027  0  0.126743  0.137893  0  1.04008  0
H  H147  1  0.84752133  0.25344019  0.08774312  1  0.107061  0  0.126742  0.137882  0  1.040118  0
C  C148  1  0.18311305  0.59328503  0.01431143  1  0.182521  0  0.013043  -0.041516  0  3.725129  0
C  C149  1  0.81688712  0.40671540  0.51431111  1  0.182524  0  0.013041  -0.041365  0  3.724904  0
C  C150  1  0.40670138  0.18312753  0.26431161  1  0.182666  0  0.013075  -0.041504  0  3.725253  0
C  C151  1  0.59329864  0.81687149  0.76431226  1  0.182539  0  0.013067  -0.041495  0  3.725317  0
C  C152  1  0.24503683  0.54521216  0.07828644  1  -0.019376  0  -0.153605  -0.176948  0  3.854349  0
C  C153  1  0.75496394  0.45478816  0.57828602  1  -0.019366  0  -0.153607  -0.176999  0  3.854283  0
C  C154  1  0.45478134  0.24504388  0.32828871  1  -0.019422  0  -0.153595  -0.177046  0  3.854439  0
C  C155  1  0.54521766  0.75495665  0.82828721  1  -0.019241  0  -0.153563  -0.176964  0  3.854404  0
C  C156  1  0.20334213  0.60873725  0.14347991  1  -0.022924  0  -0.162157  -0.174873  0  3.907209  0
C  C157  1  0.79665927  0.39126298  0.64347924  1  -0.023165  0  -0.162149  -0.174749  0  3.90718  0
C  C158  1  0.39126980  0.20334400  0.39348314  1  -0.022619  0  -0.16215  -0.174872  0  3.90712  0
C  C159  1  0.60873145  0.79665644  0.89348320  1  -0.022755  0  -0.162133  -0.174876  0  3.907186  0
C  C160  1  0.14369516  0.70628792  0.11315408  1  0.215211  0  -0.056876  -0.058082  0  3.731958  0
C  C161  1  0.85630638  0.29371241  0.61315352  1  0.215223  0  -0.056924  -0.058141  0  3.732015  0
C  C162  1  0.29371869  0.14369690  0.36316219  1  0.215131  0  -0.056974  -0.058041  0  3.731992  0
C  C163  1  0.70628189  0.85630364  0.86316272  1  0.215131  0  -0.056956  -0.057985  0  3.731983  0
C  C164  1  0.05229100  0.74465030  0.99585097  1  -0.284996  0  -0.064884  -0.389562  0  3.781985  0
C  C165  1  0.94770846  0.25535011  0.49585089  1  -0.284989  0  -0.064889  -0.389549  0  3.782042  0
C  C166  1  0.25533571  0.05230910  0.24585920  1  -0.285047  0  -0.064771  -0.389383  0  3.781945  0
C  C167  1  0.74466309  0.94769029  0.74585997  1  -0.285012  0  -0.064754  -0.3893  0  3.781861  0
C  C168  1  0.14050518  0.51069008  0.96103828  1  1.624668  0  0.219823  0.572741  0  4.201483  0
C  C169  1  0.85949432  0.48930952  0.46103867  1  1.624657  0  0.219833  0.572675  0  4.201318  0
C  C170  1  0.48929477  0.14052699  0.21104033  1  1.624237  0  0.219708  0.572637  0  4.201979  0
C  C171  1  0.51070407  0.85947240  0.71104009  1  1.624472  0  0.219686  0.572539  0  4.202091  0
C  C172  1  0.50586593  0.82302468  0.07378032  1  0.218825  0  0.01084  -0.035438  0  3.751883  0
C  C173  1  0.49413312  0.17697553  0.57378044  1  0.218834  0  0.010842  -0.035465  0  3.75194  0
C  C174  1  0.17696983  0.50586890  0.32377940  1  0.219808  0  0.010915  -0.035648  0  3.751778  0
C  C175  1  0.82302988  0.49413151  0.82377949  1  0.218929  0  0.010895  -0.0356  0  3.751794  0
C  C176  1  0.46565292  0.76927520  0.14217573  1  -0.039766  0  -0.155179  -0.181651  0  3.869131  0
C  C177  1  0.53434764  0.23072662  0.64217678  1  -0.039825  0  -0.155169  -0.181604  0  3.868932  0
C  C178  1  0.23070806  0.46565360  0.39218118  1  -0.039965  0  -0.155206  -0.181695  0  3.868554  0
C  C179  1  0.76929316  0.53434600  0.89218011  1  -0.039773  0  -0.155207  -0.1817  0  3.868604  0
C  C180  1  0.56629064  0.76662667  0.19087338  1  -0.054772  0  -0.15644  -0.149856  0  3.847206  0
C  C181  1  0.43371100  0.23337467  0.69087349  1  -0.054656  0  -0.156475  -0.14984  0  3.84708  0
C  C182  1  0.23337369  0.56630233  0.44087037  1  -0.054517  0  -0.156327  -0.149715  0  3.847224  0
C  C183  1  0.76662618  0.43369760  0.94086931  1  -0.054769  0  -0.156307  -0.149695  0  3.84705  0
C  C184  1  0.64583643  0.85007321  0.15975949  1  0.215362  0  -0.053594  -0.067864  0  3.731315  0
C  C185  1  0.35416371  0.14992740  0.65975906  1  0.215147  0  -0.053597  -0.067963  0  3.731223  0
C  C186  1  0.14992846  0.64585256  0.40975196  1  0.215359  0  -0.053722  -0.06825  0  3.730994  0
C  C187  1  0.85007153  0.35414745  0.90975142  1  0.215527  0  -0.053688  -0.068187  0  3.73098  0
C  C188  1  0.65317675  0.95494120  0.04300727  1  -0.317688  0  -0.069456  -0.392206  0  3.7641  0
C  C189  1  0.34682243  0.04505828  0.54300678  1  -0.31773  0  -0.069422  -0.392076  0  3.764056  0
C  C190  1  0.04505661  0.65319064  0.29299871  1  -0.318031  0  -0.069304  -0.392071  0  3.76395  0
C  C191  1  0.95494242  0.34680986  0.79299910  1  -0.318065  0  -0.069362  -0.392103  0  3.763843  0
C  C192  1  0.41793372  0.87202071  0.02623425  1  1.558578  0  0.21251  0.565854  0  4.231517  0
C  C193  1  0.58206590  0.12798000  0.52623472  1  1.558557  0  0.212464  0.56576  0  4.231627  0
C  C194  1  0.12796492  0.41794241  0.27623283  1  1.558826  0  0.212317  0.565642  0  4.232266  0
C  C195  1  0.87203374  0.58205770  0.77623215  1  1.559694  0  0.212304  0.565547  0  4.232328  0
C  C196  1  0.56584167  0.79200117  0.41213927  1  0.223812  0  0.013336  -0.031926  0  3.731334  0
C  C197  1  0.43415838  0.20799809  0.91213967  1  0.223794  0  0.013368  -0.031817  0  3.731439  0
C  C198  1  0.20801328  0.56581488  0.66214400  1  0.223626  0  0.013189  -0.032027  0  3.730885  0
C  C199  1  0.79198773  0.43418659  0.16214426  1  0.223871  0  0.013236  -0.032042  0  3.730793  0
C  C200  1  0.54671042  0.73136478  0.48285065  1  -0.068316  0  -0.158922  -0.18721  0  3.848706  0
C  C201  1  0.45328875  0.26863614  0.98285131  1  -0.068279  0  -0.158971  -0.187275  0  3.848827  0
C  C202  1  0.26863822  0.54668380  0.73286183  1  -0.068055  0  -0.158829  -0.187135  0  3.848759  0
C  C203  1  0.73136191  0.45331610  0.23286116  1  -0.068108  0  -0.158831  -0.187121  0  3.848676  0
C  C204  1  0.64299794  0.76376051  0.53105961  1  -0.023549  0  -0.160344  -0.155943  0  3.880448  0
C  C205  1  0.35700341  0.23623951  0.03106009  1  -0.02357  0  -0.160343  -0.155972  0  3.880511  0
C  C206  1  0.23625574  0.64298671  0.78106464  1  -0.023551  0  -0.160364  -0.156067  0  3.880705  0
C  C207  1  0.76374546  0.35701351  0.28106437  1  -0.023656  0  -0.16036  -0.156003  0  3.88064  0
C  C208  1  0.72312701  0.82179120  0.48251167  1  0.173679  0  -0.059421  -0.064464  0  3.729137  0
C  C209  1  0.27687296  0.17820891  0.98251080  1  0.17366  0  -0.059405  -0.064469  0  3.729221  0
C  C210  1  0.17822908  0.72311348  0.73251243  1  0.173833  0  -0.059597  -0.064426  0  3.729021  0
C  C211  1  0.82177186  0.27688722  0.23251243  1  0.173587  0  -0.059593  -0.064346  0  3.72897  0
C  C212  1  0.70371741  0.91581131  0.36222659  1  -0.300943  0  -0.068435  -0.399779  0  3.801956  0
C  C213  1  0.29628153  0.08418759  0.86222601  1  -0.301017  0  -0.068429  -0.399748  0  3.802234  0
C  C214  1  0.08421254  0.70369897  0.61222535  1  -0.30086  0  -0.068291  -0.399152  0  3.801835  0
C  C215  1  0.91578655  0.29630052  0.11222485  1  -0.300905  0  -0.068325  -0.399171  0  3.801932  0
C  C216  1  0.46513663  0.84111976  0.37771798  1  1.589938  0  0.218553  0.572274  0  4.195005  0
C  C217  1  0.53486347  0.15887950  0.87771937  1  1.589922  0  0.218587  0.572289  0  4.195135  0
C  C218  1  0.15889920  0.46511551  0.62772433  1  1.590777  0  0.218505  0.572009  0  4.195064  0
C  C219  1  0.84110185  0.53488516  0.12772501  1  1.5906  0  0.218528  0.572119  0  4.195068  0
N  N220  1  0.09386584  0.66145088  0.04630256  1  -0.999095  0  -0.339815  0.021454  0  3.570457  0
N  N221  1  0.90613422  0.33854868  0.54630346  1  -0.999117  0  -0.339835  0.021407  0  3.570432  0
N  N222  1  0.33854153  0.09387494  0.29630790  1  -0.998746  0  -0.34004  0.02161  0  3.570204  0
N  N223  1  0.66145838  0.90612483  0.79630798  1  -0.998828  0  -0.340044  0.021524  0  3.570377  0
N  N224  1  0.58474312  0.90710469  0.10073476  1  -0.993862  0  -0.335899  0.019031  0  3.537806  0
N  N225  1  0.41525896  0.09289534  0.60073434  1  -0.993765  0  -0.335914  0.019047  0  3.537794  0
N  N226  1  0.09289490  0.58475625  0.35072931  1  -0.994356  0  -0.335968  0.019603  0  3.537355  0
N  N227  1  0.90710378  0.41524318  0.85072887  1  -0.994348  0  -0.335974  0.019564  0  3.5374  0
N  N228  1  0.65077508  0.87604294  0.42847545  1  -1.019094  0  -0.341448  0.019912  0  3.563823  0
N  N229  1  0.34922533  0.12395832  0.92847578  1  -1.019082  0  -0.341481  0.019858  0  3.563997  0
N  N230  1  0.12397142  0.65075847  0.67847672  1  -1.01927  0  -0.341464  0.01934  0  3.56386  0
N  N231  1  0.87602913  0.34924258  0.17847691  1  -1.019024  0  -0.341448  0.019207  0  3.563916  0
O  O232  1  0.93657355  0.85874758  0.09538977  1  -1.483321  0  -0.474204  -0.921053  0  2.294383  0
O  O233  1  0.06342678  0.14125394  0.59538702  1  -1.483381  0  -0.474099  -0.920969  0  2.294637  0
O  O234  1  0.14129429  0.93656194  0.34540354  1  -1.483687  0  -0.474202  -0.921036  0  2.294892  0
O  O235  1  0.85870752  0.06343818  0.84540759  1  -1.483667  0  -0.474214  -0.921049  0  2.294723  0
O  O236  1  0.91137808  0.89506932  0.96164139  1  -1.457299  0  -0.479282  -0.88433  0  2.285817  0
O  O237  1  0.08862144  0.10493029  0.46164010  1  -1.457275  0  -0.479315  -0.884304  0  2.285635  0
O  O238  1  0.10491607  0.91138716  0.21165799  1  -1.457524  0  -0.479394  -0.884323  0  2.285559  0
O  O239  1  0.89507874  0.08861143  0.71166264  1  -1.457618  0  -0.479255  -0.88417  0  2.285755  0
O  O240  1  0.83189320  0.72826929  0.01454206  1  -1.447828  0  -0.381382  -0.688514  0  2.251757  0
O  O241  1  0.16810617  0.27173033  0.51454217  1  -1.447746  0  -0.381402  -0.688488  0  2.251702  0
O  O242  1  0.27175822  0.83192022  0.26453100  1  -1.446773  0  -0.381439  -0.688401  0  2.251658  0
O  O243  1  0.72824019  0.16807962  0.76453220  1  -1.446794  0  -0.381426  -0.688368  0  2.251715  0
O  O244  1  0.21467439  0.44987384  0.93553099  1  -1.1777  0  -0.316523  -0.520153  0  2.208765  0
O  O245  1  0.78532455  0.55012435  0.43552969  1  -1.1777  0  -0.316545  -0.520169  0  2.208706  0
O  O246  1  0.55010291  0.21470402  0.18553365  1  -1.177478  0  -0.316449  -0.520117  0  2.208964  0
O  O247  1  0.44989537  0.78529477  0.68553315  1  -1.177517  0  -0.316403  -0.520059  0  2.209017  0
O  O248  1  0.04103131  0.50983562  0.94600977  1  -1.193144  0  -0.315278  -0.542058  0  2.184888  0
O  O249  1  0.95896867  0.49016443  0.44601112  1  -1.193132  0  -0.315294  -0.542043  0  2.184816  0
O  O250  1  0.49016770  0.04105344  0.19601872  1  -1.192578  0  -0.31524  -0.541963  0  2.184903  0
O  O251  1  0.50983081  0.95894478  0.69601895  1  -1.192779  0  -0.315248  -0.541925  0  2.18496  0
O  O252  1  0.79081135  0.04731096  0.13707534  1  -1.48186  0  -0.480999  -0.928928  0  2.326659  0
O  O253  1  0.20919153  0.95268831  0.63707317  1  -1.481899  0  -0.480936  -0.928883  0  2.326884  0
O  O254  1  0.95268817  0.79083950  0.38705499  1  -1.481748  0  -0.480963  -0.928786  0  2.326805  0
O  O255  1  0.04731132  0.20915754  0.88705650  1  -1.481597  0  -0.481073  -0.929039  0  2.326609  0
O  O256  1  0.80285341  0.10142685  0.00431131  1  -1.466598  0  -0.47743  -0.889846  0  2.248007  0
O  O257  1  0.19714654  0.89857172  0.50431007  1  -1.466618  0  -0.47744  -0.889825  0  2.248014  0
O  O258  1  0.89856533  0.80286343  0.25429256  1  -1.466173  0  -0.477406  -0.889714  0  2.248023  0
O  O259  1  0.10143284  0.19714021  0.75429500  1  -1.466361  0  -0.477439  -0.889792  0  2.248485  0
O  O260  1  0.65149990  0.17069946  0.07834345  1  -1.450215  0  -0.37988  -0.683931  0  2.256375  0
O  O261  1  0.34850006  0.82930005  0.57834296  1  -1.450209  0  -0.379914  -0.684008  0  2.256328  0
O  O262  1  0.82928898  0.65152779  0.32833197  1  -1.450296  0  -0.379906  -0.683826  0  2.256709  0
O  O263  1  0.17071164  0.34847112  0.82833235  1  -1.45036  0  -0.379918  -0.683855  0  2.256652  0
O  O264  1  0.41228195  0.97379103  0.02286927  1  -1.151258  0  -0.315761  -0.538878  0  2.206863  0
O  O265  1  0.58771679  0.02620960  0.52286928  1  -1.151221  0  -0.315751  -0.538851  0  2.206859  0
O  O266  1  0.02619264  0.41230622  0.27286737  1  -1.1514  0  -0.31572  -0.538718  0  2.207234  0
O  O267  1  0.97380595  0.58769138  0.77286666  1  -1.151353  0  -0.315664  -0.538641  0  2.207205  0
O  O268  1  0.35878393  0.80328563  0.99371470  1  -1.18463  0  -0.325023  -0.556457  0  2.188066  0
O  O269  1  0.64121630  0.19671393  0.49371642  1  -1.184519  0  -0.325  -0.556411  0  2.188083  0
O  O270  1  0.19668942  0.35878463  0.24371233  1  -1.185575  0  -0.324867  -0.556298  0  2.188401  0
O  O271  1  0.80331014  0.64121553  0.74371160  1  -1.185613  0  -0.324904  -0.556303  0  2.188406  0
O  O272  1  0.85420576  0.03360937  0.29842945  1  -1.474567  0  -0.463739  -0.897931  0  2.257099  0
O  O273  1  0.14579501  0.96639208  0.79843321  1  -1.474761  0  -0.463666  -0.897884  0  2.257621  0
O  O274  1  0.96640084  0.85416776  0.54840926  1  -1.474263  0  -0.463727  -0.897918  0  2.257086  0
O  O275  1  0.03359927  0.14583266  0.04840786  1  -1.474268  0  -0.463761  -0.897907  0  2.257086  0
O  O276  1  0.87069840  0.01517525  0.43459655  1  -1.467886  0  -0.464905  -0.884534  0  2.264306  0
O  O277  1  0.12929971  0.98482535  0.93459927  1  -1.467822  0  -0.46497  -0.884523  0  2.263771  0
O  O278  1  0.98483781  0.87069928  0.68457389  1  -1.46743  0  -0.464802  -0.884328  0  2.264424  0
O  O279  1  0.01516206  0.12929786  0.18457374  1  -1.467391  0  -0.464842  -0.884349  0  2.264316  0
O  O280  1  0.72527963  0.13440092  0.37836263  1  -1.444982  0  -0.381924  -0.660454  0  2.226212  0
O  O281  1  0.27471967  0.86559997  0.87836234  1  -1.445089  0  -0.381953  -0.660493  0  2.226227  0
O  O282  1  0.86562342  0.72526882  0.62835899  1  -1.444828  0  -0.381822  -0.660186  0  2.22643  0
O  O283  1  0.13437683  0.27472943  0.12835933  1  -1.44484  0  -0.38178  -0.66011  0  2.226574  0
O  O284  1  0.39710005  0.77008909  0.35615321  1  -1.182521  0  -0.322486  -0.535665  0  2.209228  0
O  O285  1  0.60290038  0.22990885  0.85615544  1  -1.182416  0  -0.322508  -0.535715  0  2.209249  0
O  O286  1  0.22992162  0.39707383  0.60616556  1  -1.182872  0  -0.322281  -0.535486  0  2.209469  0
O  O287  1  0.77007895  0.60292714  0.10616572  1  -1.182874  0  -0.322313  -0.535552  0  2.20943  0
O  O288  1  0.45746254  0.94250358  0.37170693  1  -1.166489  0  -0.315521  -0.542347  0  2.171247  0
O  O289  1  0.54253662  0.05749554  0.87170630  1  -1.166533  0  -0.315527  -0.542328  0  2.171314  0
O  O290  1  0.05751013  0.45744483  0.62170908  1  -1.166892  0  -0.315628  -0.542291  0  2.17084  0
O  O291  1  0.94248998  0.54255408  0.12170974  1  -1.166889  0  -0.315586  -0.542296  0  2.170907  0
