# generated using pymatgen
data_Sm3P3H47C37(NO8)3
_symmetry_space_group_name_H-M   'P 1'
_cell_length_a   15.04697861
_cell_length_b   14.95820657
_cell_length_c   15.11741592
_cell_angle_alpha   106.47702347
_cell_angle_beta   103.51342312
_cell_angle_gamma   116.96673714
_symmetry_Int_Tables_number   1
_chemical_formula_structural   Sm3P3H47C37(NO8)3
_chemical_formula_sum   'Sm6 P6 H94 C74 N6 O48'
_cell_volume   2633.86401871
_cell_formula_units_Z   2
loop_
 _symmetry_equiv_pos_site_id
 _symmetry_equiv_pos_as_xyz
  1  'x, y, z'
loop_
 _atom_site_type_symbol
 _atom_site_label
 _atom_site_symmetry_multiplicity
 _atom_site_fract_x
 _atom_site_fract_y
 _atom_site_fract_z
 _atom_site_occupancy
 _atom_site_pbe_bader_charge
 _atom_site_pbe_bader_spin_density
 _atom_site_pbe_cm5_charge
 _atom_site_pbe_ddec_charge
 _atom_site_pbe_ddec_spin_density
 _atom_site_pbe_ddec_sum_bond_order
 _atom_site_pbe_magmom
Sm  Sm0  1  0.18318195  0.88874325  0.31884574  1  2.200285  0  1.547049  2.124328  0  2.121704  0
Sm  Sm1  1  0.81681958  0.11125835  0.68115549  1  2.200356  0  1.547003  2.124287  0  2.121783  0
Sm  Sm2  1  0.44156533  0.13766268  0.30438010  1  2.200496  0  1.536323  2.123547  0  2.08903  0
Sm  Sm3  1  0.55843437  0.86233807  0.69561981  1  2.200459  0  1.536318  2.123526  0  2.089086  0
Sm  Sm4  1  0.58112024  0.93842486  0.35597853  1  2.234213  0  1.539456  2.188481  0  2.018119  0
Sm  Sm5  1  0.41887877  0.06157340  0.64402253  1  2.234148  0  1.53948  2.188511  0  2.018028  0
P  P6  1  0.38243271  0.85636076  0.47827295  1  3.350629  0  0.326635  1.370606  0  5.36621  0
P  P7  1  0.61756631  0.14363750  0.52172877  1  3.350548  0  0.326575  1.370583  0  5.366272  0
P  P8  1  0.30446628  0.82595768  0.19861985  1  3.437835  0  0.310223  1.331939  0  5.435319  0
P  P9  1  0.69553411  0.17404309  0.80138155  1  3.437897  0  0.310121  1.331853  0  5.435536  0
P  P10  1  0.38259470  0.19936070  0.48754768  1  3.402369  0  0.304584  1.325257  0  5.488106  0
P  P11  1  0.61740751  0.80064090  0.51245438  1  3.402244  0  0.304598  1.325296  0  5.488105  0
H  H12  1  0.10656469  0.33195251  0.88077746  1  0.667837  0  0.305409  0.369734  0  0.968895  0
H  H13  1  0.89342981  0.66805746  0.11921783  1  0.667617  0  0.305469  0.36971  0  0.969021  0
H  H14  1  0.68328012  0.85678740  0.25039294  1  0.620937  0  0.31983  0.408116  0  0.889993  0
H  H15  1  0.31671935  0.14321169  0.74960845  1  0.620926  0  0.319878  0.408247  0  0.889834  0
H  H16  1  0.61239997  0.77338486  0.28600838  1  0.635012  0  0.300374  0.395698  0  0.929367  0
H  H17  1  0.38760133  0.22661507  0.71399433  1  0.635047  0  0.30039  0.395729  0  0.929326  0
H  H18  1  0.23806952  0.68454904  0.28362592  1  0.542598  0  0.316519  0.274579  0  0.978448  0
H  H19  1  0.76192927  0.31545006  0.71637531  1  0.542584  0  0.316506  0.274603  0  0.978435  0
H  H20  1  0.35312194  0.91666280  0.07174648  1  0.527957  0  0.331836  0.274729  0  0.894931  0
H  H21  1  0.64687663  0.08333712  0.92825361  1  0.527915  0  0.331825  0.274704  0  0.89495  0
H  H22  1  0.16414270  0.10140290  0.43883618  1  0.495317  0  0.333652  0.275822  0  0.895437  0
H  H23  1  0.83585653  0.89859452  0.56116535  1  0.495347  0  0.333658  0.275842  0  0.895423  0
H  H24  1  0.32563511  0.67637180  0.47732424  1  0.15662  0  0.127455  0.159578  0  1.019877  0
H  H25  1  0.67436140  0.32362563  0.52267666  1  0.156666  0  0.127451  0.159592  0  1.019854  0
H  H26  1  0.21365417  0.69356575  0.44805605  1  0.099375  0  0.126536  0.153503  0  0.984836  0
H  H27  1  0.78634371  0.30643419  0.55194520  1  0.099288  0  0.126516  0.153504  0  0.984816  0
H  H28  1  0.14097272  0.47421036  0.30639875  1  0.034819  0  0.103846  0.075695  0  0.968089  0
H  H29  1  0.85902514  0.52578704  0.69360048  1  0.034478  0  0.103882  0.075798  0  0.968063  0
H  H30  1  0.08027594  0.55239385  0.29963904  1  0.102449  0  0.111433  0.093648  0  1.01403  0
H  H31  1  0.91972241  0.44760444  0.70036518  1  0.102288  0  0.111405  0.093623  0  1.014066  0
H  H32  1  0.01013528  0.39971122  0.12594706  1  0.003008  0  0.094068  0.093472  0  0.99123  0
H  H33  1  0.98986351  0.60028788  0.87405418  1  0.003097  0  0.09409  0.093543  0  0.99125  0
H  H34  1  0.07762284  0.53508821  0.13329197  1  0.104761  0  0.106458  0.124626  0  0.992913  0
H  H35  1  0.92237143  0.46491261  0.86671133  1  0.104976  0  0.106521  0.124703  0  0.992925  0
H  H36  1  0.16389888  0.38410844  0.12715127  1  0.061024  0  0.098512  0.082484  0  0.985994  0
H  H37  1  0.83609877  0.61589480  0.87284423  1  0.060877  0  0.098595  0.082695  0  0.985848  0
H  H38  1  0.34563229  0.53487630  0.16875932  1  0.065819  0  0.10643  0.113737  0  0.952761  0
H  H39  1  0.65436605  0.46512198  0.83124423  1  0.065782  0  0.106408  0.113708  0  0.952705  0
H  H40  1  0.30444535  0.62670638  0.16189741  1  0.05446  0  0.102572  0.107976  0  1.016301  0
H  H41  1  0.69556145  0.37329861  0.83811061  1  0.054417  0  0.1026  0.107951  0  1.016207  0
H  H42  1  0.40642502  0.68545858  0.34022207  1  0.138788  0  0.123716  0.113945  0  1.026304  0
H  H43  1  0.59357243  0.31454056  0.65978350  1  0.138772  0  0.12369  0.113838  0  1.026332  0
H  H44  1  0.32306332  0.54972215  0.32999573  1  0.042951  0  0.11118  0.09223  0  0.95432  0
H  H45  1  0.67693412  0.45027698  0.67000785  1  0.04291  0  0.111196  0.092257  0  0.954282  0
H  H46  1  0.15648877  0.78108109  0.05722969  1  0.140011  0  0.131638  0.16629  0  1.014948  0
H  H47  1  0.84351163  0.21891969  0.94277304  1  0.140074  0  0.131643  0.16629  0  1.014982  0
H  H48  1  0.19339712  0.68184888  0.02210702  1  0.138585  0  0.122587  0.154501  0  1.00753  0
H  H49  1  0.80660464  0.31815189  0.97789603  1  0.138572  0  0.122583  0.15447  0  1.007508  0
H  H50  1  0.27445536  0.69436813  0.91401569  1  0.062862  0  0.111553  0.091436  0  0.980954  0
H  H51  1  0.72554525  0.30563180  0.08598620  1  0.062923  0  0.111576  0.091479  0  0.980878  0
H  H52  1  0.39341067  0.77741414  0.03280342  1  0.115417  0  0.128649  0.127069  0  0.948319  0
H  H53  1  0.60658880  0.22258495  0.96719797  1  0.115434  0  0.128615  0.126971  0  0.948484  0
H  H54  1  0.44214010  0.80006707  0.88751237  1  0.088774  0  0.110319  0.122267  0  0.993534  0
H  H55  1  0.55786188  0.19993285  0.11248917  1  0.088812  0  0.110296  0.122233  0  0.993512  0
H  H56  1  0.48116066  0.92610089  0.98345819  1  0.013594  0  0.095263  0.091183  0  1.036232  0
H  H57  1  0.51883834  0.07389735  0.01654153  1  0.01337  0  0.095261  0.091179  0  1.036222  0
H  H58  1  0.27897683  0.78180737  0.77810903  1  0.066183  0  0.106083  0.095416  0  0.965498  0
H  H59  1  0.72102398  0.21818918  0.22189065  1  0.066076  0  0.106098  0.095402  0  0.965473  0
H  H60  1  0.22958265  0.91647749  0.83103363  1  0.07403  0  0.103554  0.112859  0  0.977152  0
H  H61  1  0.77041381  0.08351487  0.16896389  1  0.074107  0  0.103507  0.112777  0  0.977102  0
H  H62  1  0.34486739  0.99972279  0.95021673  1  0.073656  0  0.103679  0.108273  0  0.991118  0
H  H63  1  0.65512840  0.00027209  0.04978000  1  0.073559  0  0.103665  0.10825  0  0.991108  0
H  H64  1  0.18518941  0.88698019  0.97565268  1  0.093523  0  0.119319  0.106946  0  1.003544  0
H  H65  1  0.81481120  0.11301973  0.02434854  1  0.093515  0  0.119358  0.107022  0  1.003541  0
H  H66  1  0.15138922  0.75895480  0.87899374  1  0.042217  0  0.11037  0.087965  0  0.966502  0
H  H67  1  0.84860866  0.24104264  0.12100881  1  0.042235  0  0.110357  0.087987  0  0.966468  0
H  H68  1  0.33521244  0.34010003  0.51585357  1  0.085416  0  0.124402  0.149688  0  0.959147  0
H  H69  1  0.66478588  0.65989821  0.48414534  1  0.085388  0  0.124405  0.149676  0  0.959123  0
H  H70  1  0.28450879  0.24685969  0.38438926  1  0.174911  0  0.133483  0.168672  0  1.007737  0
H  H71  1  0.71549112  0.75313771  0.61561045  1  0.174886  0  0.133471  0.168642  0  1.007779  0
H  H72  1  0.11785804  0.26146822  0.39865835  1  0.03597  0  0.111356  0.089872  0  0.957397  0
H  H73  1  0.88214233  0.73853003  0.60134302  1  0.035935  0  0.111373  0.089897  0  0.957354  0
H  H74  1  0.09933686  0.14047837  0.30561446  1  0.096677  0  0.121624  0.112499  0  0.996058  0
H  H75  1  0.90066375  0.85952154  0.69438610  1  0.096671  0  0.121618  0.11244  0  0.996099  0
H  H76  1  0.92045887  0.09674757  0.31618936  1  0.053486  0  0.10331  0.111744  0  0.976794  0
H  H77  1  0.07954035  0.90324983  0.68381018  1  0.053506  0  0.103303  0.111723  0  0.97683  0
H  H78  1  0.96446508  0.01326989  0.34592157  1  0.074871  0  0.102098  0.107646  0  0.997413  0
H  H79  1  0.03553507  0.98672920  0.65407997  1  0.074892  0  0.10211  0.107643  0  0.997422  0
H  H80  1  0.98565596  0.21765687  0.49600031  1  0.067309  0  0.107366  0.096997  0  0.969255  0
H  H81  1  0.01434282  0.78234221  0.50399959  1  0.067294  0  0.107355  0.097  0  0.969257  0
H  H82  1  0.07710893  0.19163621  0.63535079  1  0.093571  0  0.107292  0.119444  0  1.003861  0
H  H83  1  0.92289124  0.80836539  0.36465013  1  0.093616  0  0.107303  0.119464  0  1.003866  0
H  H84  1  0.06118473  0.07326845  0.54883045  1  0.016785  0  0.096304  0.094991  0  1.034828  0
H  H85  1  0.93881499  0.92673234  0.45117279  1  0.016695  0  0.096293  0.094964  0  1.034824  0
H  H86  1  0.25110629  0.23340859  0.61469470  1  0.086745  0  0.119311  0.104318  0  0.98117  0
H  H87  1  0.74889340  0.76658966  0.38530651  1  0.08697  0  0.119312  0.104315  0  0.981199  0
H  H88  1  0.20525485  0.31399246  0.57854958  1  0.062148  0  0.110172  0.08578  0  0.994189  0
H  H89  1  0.79474667  0.68600662  0.42145162  1  0.062275  0  0.110163  0.085781  0  0.994205  0
H  H90  1  0.01340792  0.83622635  0.96831038  1  0.065643  0  0.099546  0.094587  0  1.023639  0
H  H91  1  0.98659585  0.16377436  0.03168717  1  0.065773  0  0.099517  0.094454  0  1.023713  0
H  H92  1  0.87134086  0.82217698  0.82762096  1  0.068843  0  0.098067  0.095015  0  1.024082  0
H  H93  1  0.12866380  0.17782036  0.17237586  1  0.068978  0  0.098099  0.095047  0  1.024107  0
H  H94  1  0.75309778  0.93134670  0.03854286  1  0.070484  0  0.101958  0.101462  0  1.039925  0
H  H95  1  0.24689818  0.06864225  0.96144897  1  0.070954  0  0.101931  0.101384  0  1.039972  0
H  H96  1  0.89564460  0.94665301  0.17915641  1  0.050124  0  0.099455  0.097746  0  1.039901  0
H  H97  1  0.10434955  0.05333764  0.82083680  1  0.049976  0  0.099406  0.097704  0  1.040018  0
H  H98  1  0.99436066  0.58465550  0.41592030  1  0.094316  0  0.102574  0.104631  0  1.013527  0
H  H99  1  0.00563974  0.41535027  0.58407784  1  0.094287  0  0.102548  0.104596  0  1.013507  0
H  H100  1  0.83214384  0.43024376  0.42145245  1  0.09727  0  0.103254  0.111782  0  1.00492  0
H  H101  1  0.16785863  0.56976455  0.57854886  1  0.097236  0  0.103258  0.111798  0  1.004947  0
H  H102  1  0.61103344  0.42769145  0.18180368  1  0.095341  0  0.112849  0.123022  0  0.979173  0
H  H103  1  0.38896624  0.57230928  0.81819292  1  0.095371  0  0.112833  0.12294  0  0.979197  0
H  H104  1  0.77150689  0.57721226  0.17218465  1  0.066544  0  0.11001  0.113241  0  1.001453  0
H  H105  1  0.22849050  0.42278677  0.82780963  1  0.066834  0  0.110024  0.113304  0  1.001442  0
C  C106  1  0.28508222  0.70480075  0.43348025  1  -0.268271  0  -0.06417  -0.372496  0  3.717528  0
C  C107  1  0.71491567  0.29519920  0.56652166  1  -0.268158  0  -0.064118  -0.372464  0  3.717572  0
C  C108  1  0.13347518  0.52997973  0.27520609  1  0.21481  0  -0.058737  -0.051965  0  3.807639  0
C  C109  1  0.86652111  0.47001854  0.72479499  1  0.215406  0  -0.058738  -0.051991  0  3.807762  0
C  C110  1  0.09114948  0.47914332  0.15972870  1  -0.026864  0  -0.159966  -0.192033  0  3.899318  0
C  C111  1  0.90884888  0.52085997  0.84027226  1  -0.027143  0  -0.160087  -0.192204  0  3.899554  0
C  C112  1  0.16974333  0.45843089  0.12217112  1  -0.006627  0  -0.089394  -0.115761  0  3.871541  0
C  C113  1  0.83025664  0.54157659  0.87783004  1  -0.006174  0  -0.089393  -0.116044  0  3.871671  0
C  C114  1  0.29048720  0.55975885  0.18475715  1  -0.028623  0  -0.155301  -0.188861  0  3.893449  0
C  C115  1  0.70951618  0.44024612  0.81524743  1  -0.028551  0  -0.15538  -0.188844  0  3.89323  0
C  C116  1  0.32403155  0.60811971  0.29885284  1  0.212063  0  -0.057796  -0.055875  0  3.773545  0
C  C117  1  0.67596797  0.39188195  0.70115390  1  0.21205  0  -0.05776  -0.055699  0  3.773303  0
C  C118  1  0.13828689  0.43691599  0.01135378  1  1.543184  0  0.234518  0.611297  0  4.056385  0
C  C119  1  0.86172086  0.56309818  0.98865037  1  1.542543  0  0.234433  0.611402  0  4.056174  0
C  C120  1  0.22518763  0.77113942  0.06276287  1  -0.355794  0  -0.069658  -0.393894  0  3.730521  0
C  C121  1  0.77481299  0.22886052  0.93723968  1  -0.355857  0  -0.069702  -0.393901  0  3.730531  0
C  C122  1  0.34249173  0.78069487  0.97028660  1  0.187517  0  -0.055813  -0.061502  0  3.767239  0
C  C123  1  0.65750842  0.21930421  0.02971428  1  0.187485  0  -0.055783  -0.061444  0  3.767273  0
C  C124  1  0.40909897  0.84495996  0.92263924  1  -0.006944  0  -0.163672  -0.198113  0  3.923032  0
C  C125  1  0.59090208  0.15503828  0.07736162  1  -0.006982  0  -0.163678  -0.198122  0  3.92298  0
C  C126  1  0.34241575  0.86381124  0.84514401  1  -0.025051  0  -0.089261  -0.121721  0  3.869232  0
C  C127  1  0.65758301  0.13618532  0.15485520  1  -0.024848  0  -0.089264  -0.121667  0  3.86912  0
C  C128  1  0.28430522  0.91284701  0.89020901  1  -0.062726  0  -0.161219  -0.197158  0  3.940117  0
C  C129  1  0.71569194  0.08714787  0.10978936  1  -0.062689  0  -0.161152  -0.196986  0  3.93996  0
C  C130  1  0.21834259  0.84540893  0.93618243  1  0.222811  0  -0.056885  -0.061019  0  3.79573  0
C  C131  1  0.78165664  0.15458847  0.06381778  1  0.22272  0  -0.05689  -0.061144  0  3.79571  0
C  C132  1  0.41165248  0.93608516  0.80235714  1  1.59681  0  0.235246  0.654684  0  4.120469  0
C  C133  1  0.58834675  0.06391225  0.19764307  1  1.597005  0  0.235193  0.654656  0  4.120434  0
C  C134  1  0.29576886  0.25265409  0.46071018  1  -0.324038  0  -0.068396  -0.381332  0  3.727627  0
C  C135  1  0.70423015  0.74734416  0.53929021  1  -0.324062  0  -0.068375  -0.381269  0  3.727609  0
C  C136  1  0.09535123  0.17491360  0.37782813  1  0.238843  0  -0.056398  -0.057861  0  3.780549  0
C  C137  1  0.90464892  0.82508548  0.62217209  1  0.238853  0  -0.056433  -0.057844  0  3.780492  0
C  C138  1  0.98305281  0.09898340  0.37314501  1  -0.045416  0  -0.162047  -0.196593  0  3.930707  0
C  C139  1  0.01694802  0.90101568  0.62685603  1  -0.045473  0  -0.162062  -0.196586  0  3.93073  0
C  C140  1  0.97822286  0.13674305  0.47627969  1  -0.030824  0  -0.089818  -0.120205  0  3.862812  0
C  C141  1  0.02177545  0.86325519  0.52371921  1  -0.031008  0  -0.08976  -0.120192  0  3.862773  0
C  C142  1  0.07386010  0.15453941  0.55989741  1  -0.017235  0  -0.165238  -0.200007  0  3.918785  0
C  C143  1  0.92613936  0.84545968  0.44010332  1  -0.01707  0  -0.165214  -0.199939  0  3.918881  0
C  C144  1  0.18419651  0.22830181  0.56047375  1  0.206994  0  -0.05822  -0.05609  0  3.787631  0
C  C145  1  0.81580364  0.77169727  0.43952647  1  0.206644  0  -0.058231  -0.056152  0  3.787718  0
C  C146  1  0.86527430  0.05691644  0.47107693  1  1.595009  0  0.232639  0.651344  0  4.128009  0
C  C147  1  0.13472562  0.94308097  0.52892477  1  1.594968  0  0.232586  0.65127  0  4.128286  0
C  C148  1  0.04955429  0.90529127  0.16550180  1  1.551828  0  0.193145  0.574235  0  4.228644  0
C  C149  1  0.95044472  0.09470696  0.83449726  1  1.551354  0  0.193133  0.574172  0  4.228695  0
C  C150  1  0.96444538  0.89530655  0.08206205  1  -0.006797  0  -0.010564  -0.012461  0  3.962995  0
C  C151  1  0.03555381  0.10468830  0.91793480  1  -0.006521  0  -0.010529  -0.012314  0  3.962978  0
C  C152  1  0.95635262  0.85772205  0.98269718  1  -0.018024  0  -0.081029  -0.087539  0  3.98327  0
C  C153  1  0.04364929  0.14227278  0.01729831  1  -0.017529  0  -0.081002  -0.087373  0  3.983423  0
C  C154  1  0.87776282  0.84952904  0.90508476  1  -0.05132  0  -0.083292  -0.097798  0  3.987102  0
C  C155  1  0.12223773  0.15046579  0.09490975  1  -0.05187  0  -0.083398  -0.097961  0  3.987233  0
C  C156  1  0.80622456  0.87892453  0.92601457  1  -0.022136  0  -0.009957  -0.010938  0  3.953072  0
C  C157  1  0.19377416  0.12106945  0.07397863  1  -0.022761  0  -0.00987  -0.010882  0  3.952931  0
C  C158  1  0.81186947  0.91264389  0.02459517  1  -0.030345  0  -0.086921  -0.101456  0  3.983689  0
C  C159  1  0.18812809  0.08734673  0.97539683  1  -0.030712  0  -0.086954  -0.101443  0  3.983809  0
C  C160  1  0.89064799  0.92107368  0.10224772  1  -0.033657  0  -0.088309  -0.101071  0  3.981728  0
C  C161  1  0.10934844  0.07891613  0.89774578  1  -0.033799  0  -0.088253  -0.101065  0  3.98174  0
C  C162  1  0.72676657  0.87871325  0.84556058  1  1.556883  0  0.19299  0.57728  0  4.23002  0
C  C163  1  0.27323581  0.12128490  0.15443263  1  1.557226  0  0.192959  0.577292  0  4.229778  0
C  C164  1  0.98997591  0.68367854  0.29436266  1  1.559462  0  0.201721  0.56325  0  4.244477  0
C  C165  1  0.01002423  0.31632301  0.70563294  1  1.559588  0  0.201539  0.563183  0  4.244274  0
C  C166  1  0.89274472  0.58935531  0.29334318  1  -0.104465  0  -0.017583  -0.033075  0  3.977782  0
C  C167  1  0.10725542  0.41064875  0.70665113  1  -0.104337  0  -0.017582  -0.033083  0  3.977628  0
C  C168  1  0.90999150  0.54835472  0.36402133  1  -0.07852  0  -0.091288  -0.115513  0  4.018527  0
C  C169  1  0.09000914  0.45165273  0.63597668  1  -0.078487  0  -0.091162  -0.1153  0  4.018131  0
C  C170  1  0.82083983  0.46432188  0.36804072  1  -0.026476  0  -0.09153  -0.11523  0  4.007673  0
C  C171  1  0.17916217  0.53568556  0.63195827  1  -0.026718  0  -0.09158  -0.115405  0  4.007745  0
C  C172  1  0.71309254  0.42133234  0.30249779  1  -0.115053  0  -0.01254  -0.014908  0  3.962051  0
C  C173  1  0.28690785  0.57867092  0.69750165  1  -0.114689  0  -0.012521  -0.014892  0  3.962102  0
C  C174  1  0.69552329  0.46233559  0.23208082  1  0.004763  0  -0.079545  -0.098142  0  3.958155  0
C  C175  1  0.30447661  0.53766429  0.76791494  1  0.004531  0  -0.079498  -0.097864  0  3.957883  0
C  C176  1  0.78485981  0.54537409  0.22703207  1  0.013225  0  -0.080448  -0.093966  0  3.961241  0
C  C177  1  0.21513759  0.45462495  0.77296353  1  0.013115  0  -0.080493  -0.094184  0  3.961165  0
C  C178  1  0.61762848  0.32922536  0.30648956  1  1.581121  0  0.184595  0.547345  0  4.289369  0
C  C179  1  0.38236962  0.67077372  0.69351019  1  1.580632  0  0.184572  0.547397  0  4.289287  0
N  N180  1  0.24564644  0.63595326  0.32233175  1  -1.033989  0  -0.345399  0.017718  0  3.552742  0
N  N181  1  0.75435235  0.36404584  0.67766948  1  -1.033972  0  -0.345392  0.017589  0  3.552814  0
N  N182  1  0.28990720  0.83516061  0.01516343  1  -1.021082  0  -0.335093  0.045983  0  3.532169  0
N  N183  1  0.71009249  0.16483763  0.98483712  1  -1.021052  0  -0.33505  0.046081  0  3.532093  0
N  N184  1  0.18394103  0.18305845  0.45783428  1  -0.977273  0  -0.335856  0.03954  0  3.532458  0
N  N185  1  0.81605798  0.81693981  0.54216677  1  -0.977257  0  -0.335827  0.039577  0  3.532282  0
O  O186  1  0.44685451  0.90729962  0.59469580  1  -1.464809  0  -0.490384  -0.920838  0  2.328451  0
O  O187  1  0.55314793  0.09270114  0.40530608  1  -1.46477  0  -0.490368  -0.920833  0  2.32843  0
O  O188  1  0.45170055  0.86884372  0.41885049  1  -1.466632  0  -0.452457  -0.849477  0  2.347548  0
O  O189  1  0.54829869  0.13115620  0.58114975  1  -1.466649  0  -0.452441  -0.849485  0  2.347608  0
O  O190  1  0.31729856  0.91171381  0.46610713  1  -1.458511  0  -0.498416  -0.942865  0  2.314065  0
O  O191  1  0.68270070  0.08828613  0.53389511  1  -1.458539  0  -0.498397  -0.942888  0  2.314139  0
O  O192  1  0.11329244  0.49212308  0.97755432  1  -1.16758  0  -0.301387  -0.512235  0  2.100367  0
O  O193  1  0.88673496  0.50790448  0.02245675  1  -1.167843  0  -0.301322  -0.512249  0  2.099962  0
O  O194  1  0.14394840  0.35419682  0.95609605  1  -1.189599  0  -0.339267  -0.498668  0  2.294613  0
O  O195  1  0.85604816  0.64581317  0.04390237  1  -1.189022  0  -0.339322  -0.498697  0  2.294761  0
O  O196  1  0.21949566  0.75088443  0.22969799  1  -1.455127  0  -0.423622  -0.80122  0  2.234093  0
O  O197  1  0.78050795  0.24911971  0.77030773  1  -1.455143  0  -0.423518  -0.80121  0  2.23404  0
O  O198  1  0.32618370  0.94276997  0.25139431  1  -1.463052  0  -0.51103  -0.930652  0  2.442336  0
O  O199  1  0.67381760  0.05723246  0.74860577  1  -1.463031  0  -0.511007  -0.930626  0  2.442455  0
O  O200  1  0.40719202  0.82433017  0.21326744  1  -1.465857  0  -0.450385  -0.839323  0  2.221725  0
O  O201  1  0.59280974  0.17567060  0.78673560  1  -1.465815  0  -0.450367  -0.839259  0  2.221739  0
O  O202  1  0.50545402  0.95104678  0.81726945  1  -1.209662  0  -0.380996  -0.670335  0  2.320103  0
O  O203  1  0.49454800  0.04895820  0.18273548  1  -1.209784  0  -0.38097  -0.670319  0  2.320056  0
O  O204  1  0.37083536  0.97523957  0.75453305  1  -1.196944  0  -0.381497  -0.650284  0  2.233687  0
O  O205  1  0.62916229  0.02475868  0.24546702  1  -1.197025  0  -0.381497  -0.650349  0  2.233844  0
O  O206  1  0.39562427  0.19617282  0.59031613  1  -1.484601  0  -0.432951  -0.86252  0  2.225249  0
O  O207  1  0.60437909  0.80382963  0.40968775  1  -1.484568  0  -0.432925  -0.862519  0  2.225314  0
O  O208  1  0.31777608  0.08114384  0.39722704  1  -1.466085  0  -0.511772  -0.939365  0  2.421845  0
O  O209  1  0.68222886  0.91885775  0.60277631  1  -1.466064  0  -0.511792  -0.93936  0  2.421833  0
O  O210  1  0.48532847  0.27253068  0.47564710  1  -1.467556  0  -0.430777  -0.820982  0  2.108922  0
O  O211  1  0.51467329  0.72747259  0.52435465  1  -1.467493  0  -0.430803  -0.821016  0  2.108899  0
O  O212  1  0.78033264  0.01523035  0.39160955  1  -1.206099  0  -0.364707  -0.664158  0  2.260236  0
O  O213  1  0.21966589  0.98476702  0.60838651  1  -1.206121  0  -0.364726  -0.664166  0  2.260597  0
O  O214  1  0.86442920  0.03902963  0.54874139  1  -1.217636  0  -0.394174  -0.677881  0  2.326698  0
O  O215  1  0.13556890  0.96096946  0.45125835  1  -1.217549  0  -0.394158  -0.67786  0  2.326651  0
O  O216  1  0.08618332  0.72366684  0.35798990  1  -1.189894  0  -0.35469  -0.610109  0  2.236436  0
O  O217  1  0.91381358  0.27633131  0.64199939  1  -1.190045  0  -0.354561  -0.610052  0  2.236127  0
O  O218  1  0.97568173  0.72751196  0.23533441  1  -1.197961  0  -0.346407  -0.629682  0  2.324094  0
O  O219  1  0.02431685  0.27249298  0.76466375  1  -1.198037  0  -0.346358  -0.629693  0  2.32413  0
O  O220  1  0.63872514  0.28313093  0.36048171  1  -1.190559  0  -0.37975  -0.630999  0  2.242136  0
O  O221  1  0.36127642  0.71687321  0.63952221  1  -1.190592  0  -0.379759  -0.631053  0  2.242089  0
O  O222  1  0.52008827  0.29734320  0.25474512  1  -1.172353  0  -0.364862  -0.618072  0  2.164011  0
O  O223  1  0.47991392  0.70265836  0.74525295  1  -1.17208  0  -0.364841  -0.618092  0  2.163977  0
O  O224  1  0.07028733  0.95857380  0.25830222  1  -1.187372  0  -0.379906  -0.636863  0  2.227444  0
O  O225  1  0.92971443  0.04142945  0.74169621  1  -1.186949  0  -0.379913  -0.636847  0  2.227507  0
O  O226  1  0.09878228  0.85787891  0.14254462  1  -1.190914  0  -0.375753  -0.631919  0  2.261207  0
O  O227  1  0.90121490  0.14211600  0.85745707  1  -1.190885  0  -0.375727  -0.631889  0  2.261158  0
O  O228  1  0.70480905  0.82777808  0.75207868  1  -1.189386  0  -0.373632  -0.637151  0  2.218649  0
O  O229  1  0.29519196  0.17222009  0.24791421  1  -1.189488  0  -0.373565  -0.637082  0  2.218545  0
O  O230  1  0.68287383  0.93117870  0.87283182  1  -1.181037  0  -0.383279  -0.631592  0  2.22845  0
O  O231  1  0.31713219  0.06882113  0.12716270  1  -1.180967  0  -0.383304  -0.631616  0  2.228162  0
O  O232  1  0.60706031  0.80160275  0.23455168  1  -1.233093  0  -0.612998  -0.791972  0  1.912984  0
O  O233  1  0.39294006  0.19839550  0.76544969  1  -1.233114  0  -0.613054  -0.792135  0  1.912835  0
