# generated using pymatgen
data_AlH24C21(N5O2)3
_symmetry_space_group_name_H-M   'P 1'
_cell_length_a   3.85199727
_cell_length_b   28.16587885
_cell_length_c   28.16591156
_cell_angle_alpha   120.00022799
_cell_angle_beta   90.00029113
_cell_angle_gamma   90.00034784
_symmetry_Int_Tables_number   1
_chemical_formula_structural   AlH24C21(N5O2)3
_chemical_formula_sum   'Al2 H48 C42 N30 O12'
_cell_volume   2646.44408694
_cell_formula_units_Z   2
loop_
 _symmetry_equiv_pos_site_id
 _symmetry_equiv_pos_as_xyz
  1  'x, y, z'
loop_
 _atom_site_type_symbol
 _atom_site_label
 _atom_site_symmetry_multiplicity
 _atom_site_fract_x
 _atom_site_fract_y
 _atom_site_fract_z
 _atom_site_occupancy
 _atom_site_pbe_bader_charge
 _atom_site_pbe_bader_spin_density
 _atom_site_pbe_cm5_charge
 _atom_site_pbe_ddec_charge
 _atom_site_pbe_ddec_spin_density
 _atom_site_pbe_ddec_sum_bond_order
 _atom_site_pbe_magmom
Al  Al0  1  0.96027238  0.50000002  0.50000084  1  2.493774  0  0.416791  1.572813  0  2.581974  0
Al  Al1  1  0.96025781  0.16666693  0.83333458  1  2.493625  0  0.416821  1.572953  0  2.581829  0
H  H2  1  0.74828307  0.30260837  0.86660098  1  0.449082  0  0.294902  0.29991  0  0.983809  0
H  H3  1  0.71776531  0.36536504  0.87066437  1  0.436034  0  0.291078  0.278521  0  0.972848  0
H  H4  1  0.80645860  0.40028291  0.77139215  1  0.41156  0  0.287731  0.275201  0  0.992353  0
H  H5  1  0.00855354  0.38697471  0.81617622  1  0.428092  0  0.289723  0.285353  0  0.968882  0
H  H6  1  0.18237306  0.15224098  0.70459077  1  0.446307  0  0.297124  0.303414  0  0.978346  0
H  H7  1  0.26386480  0.15220662  0.64449921  1  0.399163  0  0.291952  0.278769  0  0.971978  0
H  H8  1  0.29730895  0.25427841  0.61491199  1  0.467416  0  0.284266  0.259326  0  1.054655  0
H  H9  1  0.02924725  0.21163394  0.62575713  1  0.425277  0  0.291224  0.2848  0  0.965556  0
H  H10  1  0.80645974  0.26637993  0.56194121  1  0.410812  0  0.2877  0.275137  0  0.992384  0
H  H11  1  0.00854851  0.27968700  0.51715648  1  0.428492  0  0.289734  0.285394  0  0.968853  0
H  H12  1  0.74829822  0.36405387  0.46673137  1  0.448887  0  0.294932  0.299956  0  0.983617  0
H  H13  1  0.71775675  0.30129756  0.46266753  1  0.435992  0  0.291073  0.278531  0  0.972773  0
H  H14  1  0.29733245  0.41238223  0.71842126  1  0.467438  0  0.284197  0.259354  0  1.054514  0
H  H15  1  0.02929045  0.45503015  0.70757753  1  0.425287  0  0.291294  0.284931  0  0.965589  0
H  H16  1  0.18241615  0.51442157  0.62874235  1  0.446469  0  0.297111  0.303358  0  0.97833  0
H  H17  1  0.26391778  0.51445536  0.68883332  1  0.398963  0  0.291907  0.278727  0  0.972123  0
H  H18  1  0.74825922  0.06399008  0.69739051  1  0.449623  0  0.294982  0.300011  0  0.983839  0
H  H19  1  0.71771941  0.00529899  0.63463427  1  0.435793  0  0.291068  0.278549  0  0.972714  0
H  H20  1  0.80644791  0.87110557  0.59971603  1  0.402313  0  0.287711  0.275185  0  0.992323  0
H  H21  1  0.00852312  0.92920058  0.61302416  1  0.430721  0  0.289765  0.285379  0  0.968824  0
H  H22  1  0.18238892  0.05234597  0.84775783  1  0.44912  0  0.297184  0.303473  0  0.978435  0
H  H23  1  0.26391043  0.99229120  0.84779429  1  0.423473  0  0.291879  0.278797  0  0.971924  0
H  H24  1  0.29733513  0.86062938  0.74572087  1  0.468686  0  0.284231  0.259421  0  1.054525  0
H  H25  1  0.02928911  0.91412040  0.78836873  1  0.424047  0  0.29129  0.284915  0  0.965572  0
H  H26  1  0.80647194  0.79555869  0.73362282  1  0.402308  0  0.287823  0.275242  0  0.992395  0
H  H27  1  0.00854928  0.73746601  0.72031626  1  0.427695  0  0.289689  0.285372  0  0.968842  0
H  H28  1  0.74828832  0.60267418  0.63594550  1  0.449628  0  0.294927  0.299972  0  0.983767  0
H  H29  1  0.71773774  0.66136634  0.69870200  1  0.435681  0  0.291053  0.278454  0  0.972872  0
H  H30  1  0.29733634  0.80603675  0.58761948  1  0.468454  0  0.28419  0.259318  0  1.054711  0
H  H31  1  0.02929942  0.75254409  0.54496958  1  0.424694  0  0.291297  0.28498  0  0.965588  0
H  H32  1  0.18241327  0.61431967  0.48558001  1  0.449334  0  0.297094  0.303349  0  0.978511  0
H  H33  1  0.26394115  0.67437688  0.48554472  1  0.423698  0  0.291898  0.278707  0  0.972028  0
H  H34  1  0.74828052  0.13339837  0.93600952  1  0.451944  0  0.294986  0.300003  0  0.983974  0
H  H35  1  0.71773366  0.12933318  0.99470113  1  0.433385  0  0.291048  0.278492  0  0.972868  0
H  H36  1  0.80644354  0.22860541  0.12889267  1  0.43727  0  0.287758  0.275239  0  0.992397  0
H  H37  1  0.00852818  0.18381944  0.07080016  1  0.430515  0  0.289735  0.285413  0  0.968759  0
H  H38  1  0.18239089  0.29540906  0.94765412  1  0.451154  0  0.297105  0.303334  0  0.978505  0
H  H39  1  0.26391011  0.35549981  0.00771031  1  0.446575  0  0.291921  0.278763  0  0.97205  0
H  H40  1  0.29733989  0.38508705  0.13937105  1  0.467789  0  0.284203  0.259349  0  1.054616  0
H  H41  1  0.02928816  0.37424464  0.08587975  1  0.431389  0  0.291304  0.284941  0  0.965532  0
H  H42  1  0.80645212  0.43805878  0.20444115  1  0.437181  0  0.287759  0.275256  0  0.992318  0
H  H43  1  0.00853041  0.48284470  0.26253406  1  0.430944  0  0.289733  0.285377  0  0.968857  0
H  H44  1  0.74828000  0.53326753  0.39732486  1  0.451961  0  0.294941  0.299981  0  0.983789  0
H  H45  1  0.71773647  0.53733253  0.33863264  1  0.433481  0  0.291074  0.278511  0  0.972923  0
H  H46  1  0.29732556  0.28157662  0.19396311  1  0.467818  0  0.284242  0.2594  0  1.054535  0
H  H47  1  0.02927618  0.29241937  0.24745394  1  0.431095  0  0.291265  0.28492  0  0.965467  0
H  H48  1  0.18241130  0.37125497  0.38567965  1  0.451121  0  0.297136  0.303374  0  0.978456  0
H  H49  1  0.26391988  0.31116478  0.32562353  1  0.446619  0  0.291913  0.278732  0  0.972126  0
C  C50  1  0.46373542  0.46231854  0.41400110  1  1.466203  0  0.26329  0.657453  0  4.030281  0
C  C51  1  0.46372956  0.45168101  0.53768196  1  1.482699  0  0.263261  0.657407  0  4.030183  0
C  C52  1  0.46373274  0.58599928  0.54831907  1  1.477628  0  0.263218  0.657371  0  4.030407  0
C  C53  1  0.46372101  0.21498418  0.79565295  1  1.482567  0  0.263314  0.657449  0  4.030508  0
C  C54  1  0.46371783  0.08066636  0.78501752  1  1.474384  0  0.263342  0.657458  0  4.030354  0
C  C55  1  0.46372293  0.20434992  0.91933338  1  1.46501  0  0.263313  0.657509  0  4.030222  0
C  C56  1  0.48082405  0.24702687  0.76784670  1  0.102293  0  -0.028794  -0.23617  0  3.920903  0
C  C57  1  0.34958160  0.22485451  0.71361275  1  0.41234  0  0.089046  0.191434  0  4.061099  0
C  C58  1  0.38339800  0.25450336  0.68563342  1  0.441112  0  0.077262  0.109081  0  4.047475  0
C  C59  1  0.52684993  0.30817709  0.71335725  1  0.372862  0  0.0768  0.001754  0  4.063685  0
C  C60  1  0.64894390  0.33079429  0.76809998  1  0.436997  0  0.067781  0.091792  0  4.082807  0
C  C61  1  0.63537411  0.30029386  0.79484400  1  0.440677  0  0.082634  0.184704  0  4.074885  0
C  C62  1  0.64893527  0.33586549  0.56523239  1  0.436736  0  0.067838  0.091873  0  4.082701  0
C  C63  1  0.52683644  0.35848480  0.61997477  1  0.37294  0  0.076703  0.001586  0  4.063604  0
C  C64  1  0.38340604  0.41215795  0.64769802  1  0.440704  0  0.077275  0.109229  0  4.047264  0
C  C65  1  0.34957700  0.44180730  0.61971879  1  0.412286  0  0.089006  0.191307  0  4.061083  0
C  C66  1  0.48082955  0.41963408  0.56548398  1  0.102012  0  -0.028818  -0.236302  0  3.920957  0
C  C67  1  0.63535292  0.36636800  0.53848839  1  0.4411  0  0.082524  0.184637  0  4.074662  0
C  C68  1  0.48081615  0.02081787  0.75297157  1  0.074832  0  -0.028838  -0.236327  0  3.921089  0
C  C69  1  0.34957374  0.98875712  0.77514611  1  0.461675  0  0.089101  0.191538  0  4.061077  0
C  C70  1  0.38340373  0.93112806  0.74549629  1  0.379334  0  0.077272  0.109163  0  4.047299  0
C  C71  1  0.52683949  0.90517770  0.69182339  1  0.424012  0  0.076834  0.001728  0  4.063633  0
C  C72  1  0.64891934  0.93730315  0.66920475  1  0.420088  0  0.06789  0.091953  0  4.082561  0
C  C73  1  0.63534378  0.99454879  0.69970597  1  0.405057  0  0.082566  0.184704  0  4.074692  0
C  C74  1  0.64895615  0.72936263  0.66413563  1  0.420795  0  0.067815  0.091964  0  4.082742  0
C  C75  1  0.52685358  0.76148865  0.64151675  1  0.423788  0  0.076845  0.001774  0  4.063532  0
C  C76  1  0.38341479  0.73553842  0.58784399  1  0.379071  0  0.077273  0.10921  0  4.047463  0
C  C77  1  0.34959157  0.67791160  0.55819395  1  0.461988  0  0.088979  0.191219  0  4.060918  0
C  C78  1  0.48083744  0.64584718  0.58036566  1  0.074661  0  -0.028796  -0.236086  0  3.920755  0
C  C79  1  0.63536399  0.67211775  0.63363148  1  0.404756  0  0.082527  0.184504  0  4.074937  0
C  C80  1  0.48083001  0.23215276  0.97918223  1  0.075602  0  -0.028825  -0.236318  0  3.921186  0
C  C81  1  0.34958107  0.28638687  0.01124377  1  0.398455  0  0.08897  0.191267  0  4.061366  0
C  C82  1  0.38341191  0.31436512  0.06887219  1  0.455901  0  0.077325  0.109292  0  4.047257  0
C  C83  1  0.52684642  0.28664118  0.09482109  1  0.403769  0  0.076723  0.001594  0  4.063547  0
C  C84  1  0.64894494  0.23189852  0.06269615  1  0.353174  0  0.067794  0.091927  0  4.082691  0
C  C85  1  0.63535818  0.20515481  0.00545078  1  0.47868  0  0.082553  0.184597  0  4.074866  0
C  C86  1  0.64892973  0.43476665  0.27063619  1  0.35312  0  0.067859  0.091951  0  4.08296  0
C  C87  1  0.52684323  0.38002480  0.23851289  1  0.402784  0  0.076762  0.001607  0  4.063515  0
C  C88  1  0.38340060  0.35230001  0.26446219  1  0.456906  0  0.077335  0.109267  0  4.047274  0
C  C89  1  0.34958081  0.38027888  0.32208919  1  0.398244  0  0.088993  0.191359  0  4.061269  0
C  C90  1  0.48082099  0.43451292  0.35415153  1  0.074932  0  -0.028805  -0.236316  0  3.921075  0
C  C91  1  0.63536174  0.46151115  0.32788073  1  0.479339  0  0.082517  0.184613  0  4.074909  0
N  N92  1  0.54150251  0.34380090  0.69295624  1  -0.630114  0  -0.174604  -0.131384  0  3.370554  0
N  N93  1  0.54150372  0.32286095  0.64037656  1  -0.567104  0  -0.174488  -0.131278  0  3.370318  0
N  N94  1  0.54150274  0.84915259  0.65619975  1  -0.623902  0  -0.174577  -0.131272  0  3.370481  0
N  N95  1  0.54150500  0.81751373  0.67714118  1  -0.5768  0  -0.174585  -0.13149  0  3.370474  0
N  N96  1  0.54150779  0.30704246  0.15084654  1  -0.576876  0  -0.174566  -0.131396  0  3.370181  0
N  N97  1  0.54150432  0.35962269  0.18248620  1  -0.622132  0  -0.174523  -0.131248  0  3.370121  0
N  N98  1  0.77581700  0.32481874  0.84743127  1  -1.235094  0  -0.607619  -0.612994  0  3.345406  0
N  N99  1  0.77950644  0.38453343  0.79679154  1  -1.204144  0  -0.617674  -0.622729  0  3.314843  0
N  N100  1  0.19097133  0.17384606  0.68455502  1  -1.179341  0  -0.604174  -0.608242  0  3.346168  0
N  N101  1  0.26846650  0.22939513  0.63142971  1  -1.228781  0  -0.60379  -0.601502  0  3.347505  0
N  N102  1  0.77950480  0.28212824  0.53654148  1  -1.203927  0  -0.617594  -0.622648  0  3.314924  0
N  N103  1  0.77581625  0.34184319  0.48590078  1  -1.234791  0  -0.607637  -0.613043  0  3.3452  0
N  N104  1  0.26849054  0.43726894  0.70190287  1  -1.228786  0  -0.603772  -0.601707  0  3.34725  0
N  N105  1  0.19100377  0.49281609  0.64877851  1  -1.178933  0  -0.604025  -0.608006  0  3.346261  0
N  N106  1  0.77578129  0.02261080  0.67517993  1  -1.213231  0  -0.607731  -0.613212  0  3.345091  0
N  N107  1  0.77948128  0.91225579  0.61546530  1  -1.175691  0  -0.617668  -0.622713  0  3.314576  0
N  N108  1  0.19098575  0.01070660  0.82615382  1  -1.210491  0  -0.604145  -0.60833  0  3.346331  0
N  N109  1  0.26848652  0.90203347  0.77060709  1  -1.220928  0  -0.603863  -0.601801  0  3.34735  0
N  N110  1  0.77951070  0.75441254  0.71787435  1  -1.17308  0  -0.617732  -0.622823  0  3.314825  0
N  N111  1  0.77582599  0.64405578  0.65815882  1  -1.21325  0  -0.607661  -0.613037  0  3.345401  0
N  N112  1  0.26850059  0.76463354  0.56273373  1  -1.220951  0  -0.603787  -0.601757  0  3.34751  0
N  N113  1  0.19100233  0.65596103  0.50718560  1  -1.210774  0  -0.603983  -0.607944  0  3.346197  0
N  N114  1  0.77580505  0.15256715  0.97738724  1  -1.213301  0  -0.607668  -0.613038  0  3.345638  0
N  N115  1  0.77948740  0.20320740  0.08774470  1  -1.20581  0  -0.617705  -0.622855  0  3.314788  0
N  N116  1  0.19098501  0.31544570  0.98929582  1  -1.239954  0  -0.603999  -0.60797  0  3.346462  0
N  N117  1  0.26849142  0.36856959  0.09796718  1  -1.22516  0  -0.60378  -0.601715  0  3.347312  0
N  N118  1  0.77949596  0.46345822  0.24558973  1  -1.206119  0  -0.617695  -0.622802  0  3.314906  0
N  N119  1  0.77580224  0.51409901  0.35594412  1  -1.213357  0  -0.607629  -0.613052  0  3.345474  0
N  N120  1  0.26848966  0.29809450  0.23536575  1  -1.224951  0  -0.603827  -0.601763  0  3.347191  0
N  N121  1  0.19099529  0.35121914  0.34404000  1  -1.239715  0  -0.604094  -0.608074  0  3.346375  0
O  O122  1  0.69010572  0.55739873  0.55699364  1  -1.269869  0  -0.245974  -0.610317  0  2.398671  0
O  O123  1  0.69010243  0.49959391  0.44260244  1  -1.261916  0  -0.246025  -0.610269  0  2.398708  0
O  O124  1  0.69009959  0.44300723  0.50040749  1  -1.265993  0  -0.246008  -0.610292  0  2.398626  0
O  O125  1  0.22435187  0.56281556  0.51181444  1  -1.26665  0  -0.241084  -0.602408  0  2.398319  0
O  O126  1  0.22434570  0.48818708  0.55100335  1  -1.270934  0  -0.241117  -0.602416  0  2.398119  0
O  O127  1  0.22434024  0.44899738  0.43718557  1  -1.268096  0  -0.24112  -0.60246  0  2.398098  0
O  O128  1  0.69008469  0.16707307  0.89073139  1  -1.260716  0  -0.246112  -0.610446  0  2.398603  0
O  O129  1  0.69008235  0.22365811  0.83292797  1  -1.265855  0  -0.246101  -0.610423  0  2.398908  0
O  O130  1  0.69007361  0.10926865  0.77634263  1  -1.269946  0  -0.246137  -0.610397  0  2.398455  0
O  O131  1  0.22433792  0.21767099  0.89614967  1  -1.268042  0  -0.241017  -0.602355  0  2.398236  0
O  O132  1  0.22432889  0.10385066  0.82152153  1  -1.263182  0  -0.241056  -0.602377  0  2.398391  0
O  O133  1  0.22432986  0.17847899  0.78233206  1  -1.271008  0  -0.241081  -0.60243  0  2.398377  0
