# generated using pymatgen
data_Cu2H5C6N5
_symmetry_space_group_name_H-M   'P 1'
_cell_length_a   7.13526946
_cell_length_b   7.67315793
_cell_length_c   14.75119077
_cell_angle_alpha   90.00016036
_cell_angle_beta   90.00033486
_cell_angle_gamma   91.62199147
_symmetry_Int_Tables_number   1
_chemical_formula_structural   Cu2H5C6N5
_chemical_formula_sum   'Cu8 H20 C24 N20'
_cell_volume   807.30482768
_cell_formula_units_Z   4
loop_
 _symmetry_equiv_pos_site_id
 _symmetry_equiv_pos_as_xyz
  1  'x, y, z'
loop_
 _atom_site_type_symbol
 _atom_site_label
 _atom_site_symmetry_multiplicity
 _atom_site_fract_x
 _atom_site_fract_y
 _atom_site_fract_z
 _atom_site_occupancy
 _atom_site_hle17_bader_spin_density
 _atom_site_hle17_ddec_charge
 _atom_site_hle17_ddec_spin_density
 _atom_site_hle17_ddec_sum_bond_order
 _atom_site_hle17_magmom
 _atom_site_hse06_10hf_bader_spin_density
 _atom_site_hse06_10hf_ddec_charge
 _atom_site_hse06_10hf_ddec_spin_density
 _atom_site_hse06_10hf_ddec_sum_bond_order
 _atom_site_hse06_10hf_magmom
 _atom_site_hse06_bader_spin_density
 _atom_site_hse06_ddec_charge
 _atom_site_hse06_ddec_spin_density
 _atom_site_hse06_ddec_sum_bond_order
 _atom_site_hse06_magmom
 _atom_site_pbe_bader_spin_density
 _atom_site_pbe_cm5_charge
 _atom_site_pbe_ddec_charge
 _atom_site_pbe_ddec_spin_density
 _atom_site_pbe_ddec_sum_bond_order
 _atom_site_pbe_magmom
Cu  Cu0  1  0.03188367  0.89603063  0.44032926  1  0  0.392198  0  2.422676  0  0  0.320317  0  2.921934  0  0  0.303786  0  2.884199  0  0  0.517316  0.335202  0  2.943932  0
Cu  Cu1  1  0.96811545  0.60396263  0.94032795  1  0  0.392157  0  2.422574  0  0  0.320285  0  2.921822  0  0  0.303721  0  2.88411  0  0  0.517302  0.335171  0  2.943823  0
Cu  Cu2  1  0.96811443  0.10395932  0.55966948  1  0  0.392137  0  2.422723  0  0  0.320228  0  2.921992  0  0  0.303642  0  2.884275  0  0  0.517259  0.335108  0  2.943989  0
Cu  Cu3  1  0.03188563  0.39603252  0.05967147  1  0  0.392127  0  2.422709  0  0  0.320259  0  2.921959  0  0  0.303707  0  2.884235  0  0  0.517322  0.335155  0  2.943957  0
Cu  Cu4  1  0.52622581  0.59330968  0.56459766  1  0  0.394898  0  2.419003  0  0  0.32297  0  2.914847  0  0  0.307303  0  2.876849  0  0  0.514086  0.337049  0  2.937321  0
Cu  Cu5  1  0.47377298  0.90668417  0.06459819  1  0  0.394836  0  2.418571  0  0  0.322874  0  2.914398  0  0  0.307236  0  2.876396  0  0  0.514016  0.336952  0  2.936872  0
Cu  Cu6  1  0.47377085  0.40667896  0.43540176  1  0  0.394829  0  2.418822  0  0  0.322873  0  2.914665  0  0  0.307246  0  2.876669  0  0  0.514038  0.336945  0  2.937138  0
Cu  Cu7  1  0.52622968  0.09331619  0.93540191  1  0  0.394886  0  2.41909  0  0  0.322961  0  2.914933  0  0  0.30732  0  2.87695  0  0  0.514103  0.337051  0  2.937405  0
H  H8  1  0.33070203  0.04471758  0.20354203  1  0  0.319572  0  0.907986  0  0  0.304608  0  0.972929  0  0  0.311298  0  0.967711  0  0  0.297956  0.299725  0  0.976851  0
H  H9  1  0.66929736  0.45528546  0.70354111  1  0  0.319607  0  0.907928  0  0  0.304637  0  0.972886  0  0  0.311327  0  0.967666  0  0  0.297949  0.299755  0  0.97681  0
H  H10  1  0.66929656  0.95528671  0.79645806  1  0  0.319601  0  0.90796  0  0  0.304631  0  0.972908  0  0  0.311318  0  0.967694  0  0  0.297968  0.299744  0  0.976836  0
H  H11  1  0.33070394  0.54471620  0.29645831  1  0  0.319593  0  0.907955  0  0  0.304627  0  0.972898  0  0  0.311314  0  0.967684  0  0  0.297969  0.299746  0  0.976822  0
H  H12  1  0.34986670  0.06527516  0.32123427  1  0  0.328416  0  0.923057  0  0  0.312053  0  0.986547  0  0  0.317742  0  0.983133  0  0  0.299023  0.308031  0  0.988934  0
H  H13  1  0.65013690  0.43472719  0.82123394  1  0  0.328423  0  0.923095  0  0  0.312052  0  0.986595  0  0  0.317741  0  0.983181  0  0  0.298991  0.30803  0  0.988984  0
H  H14  1  0.65013312  0.93472390  0.67876854  1  0  0.328403  0  0.923123  0  0  0.312034  0  0.986613  0  0  0.317725  0  0.983195  0  0  0.298999  0.308011  0  0.989  0
H  H15  1  0.34986445  0.56527578  0.17876752  1  0  0.328412  0  0.92309  0  0  0.312047  0  0.98658  0  0  0.317738  0  0.983161  0  0  0.29902  0.308022  0  0.988969  0
H  H16  1  0.63133567  0.97616734  0.40206478  1  0  0.111135  0  0.92993  0  0  0.120984  0  0.987932  0  0  0.12333  0  0.987486  0  0  0.123151  0.119129  0  0.988687  0
H  H17  1  0.36866482  0.52383874  0.90206437  1  0  0.111109  0  0.930011  0  0  0.12096  0  0.987982  0  0  0.123304  0  0.987542  0  0  0.123148  0.119106  0  0.988735  0
H  H18  1  0.36866401  0.02382781  0.59793599  1  0  0.111124  0  0.929937  0  0  0.120984  0  0.987922  0  0  0.123332  0  0.98748  0  0  0.12316  0.119127  0  0.988676  0
H  H19  1  0.63133399  0.47617206  0.09793572  1  0  0.111106  0  0.929932  0  0  0.120956  0  0.98793  0  0  0.123304  0  0.987487  0  0  0.123146  0.119101  0  0.988685  0
H  H20  1  0.07626245  0.80807459  0.24438304  1  0  0.09278  0  0.955485  0  0  0.10109  0  1.020618  0  0  0.104236  0  1.019669  0  0  0.111559  0.098577  0  1.021937  0
H  H21  1  0.92373746  0.69192935  0.74438445  1  0  0.092805  0  0.955437  0  0  0.101096  0  1.020586  0  0  0.104238  0  1.019643  0  0  0.111549  0.098587  0  1.021903  0
H  H22  1  0.92373618  0.19193099  0.75561502  1  0  0.09277  0  0.955448  0  0  0.101077  0  1.020587  0  0  0.104219  0  1.019643  0  0  0.111544  0.098569  0  1.021902  0
H  H23  1  0.07626529  0.30807362  0.25561361  1  0  0.09277  0  0.955463  0  0  0.101054  0  1.020616  0  0  0.104202  0  1.019668  0  0  0.111552  0.098543  0  1.021934  0
H  H24  1  0.87483913  0.82398342  0.10484019  1  0  0.092484  0  0.964806  0  0  0.100988  0  1.027829  0  0  0.10271  0  1.027135  0  0  0.116141  0.099597  0  1.028519  0
H  H25  1  0.12516190  0.67602107  0.60484272  1  0  0.092521  0  0.964756  0  0  0.100996  0  1.027817  0  0  0.102716  0  1.027125  0  0  0.116151  0.099605  0  1.028505  0
H  H26  1  0.12516239  0.17602477  0.89515788  1  0  0.092571  0  0.964807  0  0  0.101037  0  1.027868  0  0  0.102758  0  1.027174  0  0  0.116178  0.09965  0  1.028553  0
H  H27  1  0.87484221  0.32398059  0.39515738  1  0  0.092393  0  0.964845  0  0  0.100962  0  1.027809  0  0  0.102645  0  1.027155  0  0  0.116133  0.099571  0  1.0285  0
C  C28  1  0.83889022  0.87271931  0.54443994  1  0  -0.131321  0  3.603509  0  0  -0.142113  0  4.001592  0  0  -0.116302  0  3.981261  0  0  -0.079002  -0.160783  0  4.015112  0
C  C29  1  0.16111948  0.62727310  0.04444459  1  0  -0.131377  0  3.604446  0  0  -0.142184  0  4.002518  0  0  -0.116387  0  3.9822  0  0  -0.078969  -0.160852  0  4.016034  0
C  C30  1  0.16111638  0.12727321  0.45556151  1  0  -0.131327  0  3.603904  0  0  -0.142141  0  4.002007  0  0  -0.116335  0  3.981677  0  0  -0.078976  -0.16081  0  4.015524  0
C  C31  1  0.83889259  0.37271550  0.95555890  1  0  -0.131276  0  3.603442  0  0  -0.14208  0  4.001532  0  0  -0.116266  0  3.981197  0  0  -0.078997  -0.160754  0  4.015061  0
C  C32  1  0.33958459  0.62616423  0.45737082  1  0  -0.133803  0  3.594127  0  0  -0.141779  0  3.983713  0  0  -0.117087  0  3.966115  0  0  -0.080526  -0.159712  0  3.995563  0
C  C33  1  0.66042201  0.87383692  0.95736432  1  0  -0.133829  0  3.594332  0  0  -0.141803  0  3.983906  0  0  -0.117116  0  3.966309  0  0  -0.080525  -0.159746  0  3.995778  0
C  C34  1  0.66041934  0.37383221  0.54263538  1  0  -0.133893  0  3.594173  0  0  -0.141868  0  3.983746  0  0  -0.117177  0  3.966139  0  0  -0.080556  -0.159811  0  3.995623  0
C  C35  1  0.33958240  0.12617387  0.04262696  1  0  -0.133906  0  3.594037  0  0  -0.141884  0  3.983617  0  0  -0.117196  0  3.966021  0  0  -0.080539  -0.159827  0  3.995486  0
C  C36  1  0.57266185  0.95579274  0.25704046  1  0  0.437141  0  3.812733  0  0  0.413126  0  4.06824  0  0  0.429245  0  4.081874  0  0  0.22873  0.40232  0  4.059137  0
C  C37  1  0.42733843  0.54421779  0.75704025  1  0  0.437319  0  3.81244  0  0  0.41327  0  4.067962  0  0  0.429394  0  4.081591  0  0  0.228765  0.402465  0  4.058863  0
C  C38  1  0.42733818  0.04421285  0.74296099  1  0  0.437279  0  3.812484  0  0  0.413247  0  4.068008  0  0  0.429375  0  4.081643  0  0  0.228789  0.402441  0  4.058906  0
C  C39  1  0.57266305  0.45578909  0.24295985  1  0  0.437255  0  3.812514  0  0  0.413232  0  4.068017  0  0  0.429358  0  4.081653  0  0  0.228761  0.402425  0  4.058915  0
C  C40  1  0.68622799  0.94272527  0.33544919  1  0  -0.02536  0  3.607066  0  0  -0.05226  0  3.85555  0  0  -0.053391  0  3.869624  0  0  0.044333  -0.05231  0  3.847134  0
C  C41  1  0.31377585  0.55727915  0.83545072  1  0  -0.02542  0  3.607096  0  0  -0.052239  0  3.85558  0  0  -0.053376  0  3.869656  0  0  0.044358  -0.052289  0  3.847165  0
C  C42  1  0.31377183  0.05727380  0.66455090  1  0  -0.025342  0  3.606997  0  0  -0.052254  0  3.855512  0  0  -0.053399  0  3.869601  0  0  0.044313  -0.052293  0  3.847084  0
C  C43  1  0.68622848  0.44272903  0.16455006  1  0  -0.025413  0  3.607084  0  0  -0.052295  0  3.855603  0  0  -0.053438  0  3.869691  0  0  0.044289  -0.052345  0  3.847187  0
C  C44  1  0.93152681  0.84866274  0.24793789  1  0  0.005293  0  3.708616  0  0  -0.027797  0  3.973195  0  0  -0.030997  0  3.992027  0  0  0.011437  -0.026125  0  3.961596  0
C  C45  1  0.06847284  0.65133210  0.74793887  1  0  0.005266  0  3.708445  0  0  -0.027773  0  3.973052  0  0  -0.030966  0  3.991886  0  0  0.011455  -0.026095  0  3.961449  0
C  C46  1  0.06847310  0.15133894  0.75206086  1  0  0.005332  0  3.708515  0  0  -0.02775  0  3.973087  0  0  -0.030944  0  3.991914  0  0  0.011455  -0.026071  0  3.961483  0
C  C47  1  0.93152987  0.34866957  0.25205987  1  0  0.005291  0  3.708428  0  0  -0.027758  0  3.973075  0  0  -0.030957  0  3.991891  0  0  0.011438  -0.026084  0  3.961476  0
C  C48  1  0.82071533  0.85864239  0.17135748  1  0  0.099381  0  3.709743  0  0  0.073377  0  3.956294  0  0  0.078577  0  3.974495  0  0  0.04325  0.069661  0  3.944917  0
C  C49  1  0.17928376  0.64136377  0.67135943  1  0  0.099322  0  3.709795  0  0  0.073337  0  3.956338  0  0  0.078533  0  3.974541  0  0  0.043206  0.069615  0  3.944975  0
C  C50  1  0.17928334  0.14136450  0.82864058  1  0  0.09923  0  3.709815  0  0  0.073247  0  3.956366  0  0  0.07845  0  3.974568  0  0  0.043167  0.069513  0  3.945026  0
C  C51  1  0.82071610  0.35863660  0.32863999  1  0  0.099452  0  3.709598  0  0  0.073393  0  3.956157  0  0  0.078622  0  3.974375  0  0  0.043261  0.069674  0  3.944783  0
N  N52  1  0.71122427  0.77884018  0.56508955  1  0  -0.387201  0  3.27355  0  0  -0.328213  0  3.603273  0  0  -0.340079  0  3.601424  0  0  -0.435486  -0.320512  0  3.603924  0
N  N53  1  0.28875862  0.72113938  0.06508656  1  0  -0.387035  0  3.274399  0  0  -0.328051  0  3.604113  0  0  -0.33992  0  3.602274  0  0  -0.435475  -0.320349  0  3.604757  0
N  N54  1  0.28876661  0.22114327  0.43491326  1  0  -0.387118  0  3.273948  0  0  -0.328126  0  3.603675  0  0  -0.34  0  3.601842  0  0  -0.435489  -0.320423  0  3.60432  0
N  N55  1  0.71122227  0.27883888  0.93490879  1  0  -0.387261  0  3.273581  0  0  -0.328267  0  3.603311  0  0  -0.340139  0  3.601476  0  0  -0.435524  -0.320568  0  3.603963  0
N  N56  1  0.21640955  0.72112326  0.44063106  1  0  -0.370498  0  3.260972  0  0  -0.310904  0  3.589858  0  0  -0.32354  0  3.589536  0  0  -0.433717  -0.302862  0  3.589551  0
N  N57  1  0.78358967  0.77887260  0.94063153  1  0  -0.37046  0  3.26117  0  0  -0.310856  0  3.59005  0  0  -0.323487  0  3.589719  0  0  -0.433707  -0.302815  0  3.589744  0
N  N58  1  0.78359005  0.27886928  0.55937040  1  0  -0.370376  0  3.260958  0  0  -0.310774  0  3.589852  0  0  -0.323398  0  3.589509  0  0  -0.433667  -0.302734  0  3.589542  0
N  N59  1  0.21640160  0.22112257  0.05937128  1  0  -0.370377  0  3.260907  0  0  -0.310774  0  3.589788  0  0  -0.323406  0  3.589461  0  0  -0.4337  -0.302737  0  3.58948  0
N  N60  1  0.64150370  0.91013812  0.17466887  1  0  -0.359626  0  3.282043  0  0  -0.29534  0  3.569025  0  0  -0.305034  0  3.574479  0  0  -0.358466  -0.289723  0  3.565519  0
N  N61  1  0.35849688  0.58986935  0.67466921  1  0  -0.359685  0  3.28206  0  0  -0.295383  0  3.569031  0  0  -0.305075  0  3.574479  0  0  -0.358451  -0.289765  0  3.565527  0
N  N62  1  0.35849774  0.08986746  0.82533259  1  0  -0.359669  0  3.28198  0  0  -0.295372  0  3.568949  0  0  -0.305076  0  3.574416  0  0  -0.358496  -0.289755  0  3.565452  0
N  N63  1  0.64150311  0.41013493  0.32533224  1  0  -0.359634  0  3.281878  0  0  -0.295349  0  3.5689  0  0  -0.305048  0  3.574348  0  0  -0.358475  -0.289731  0  3.565394  0
N  N64  1  0.86232163  0.89041065  0.33061182  1  0  -0.209224  0  3.406798  0  0  -0.150006  0  3.701682  0  0  -0.149857  0  3.708888  0  0  -0.344618  -0.150578  0  3.697019  0
N  N65  1  0.13768206  0.60959113  0.83061497  1  0  -0.209123  0  3.406567  0  0  -0.150018  0  3.701524  0  0  -0.149859  0  3.708714  0  0  -0.344637  -0.150588  0  3.696859  0
N  N66  1  0.13767678  0.10958841  0.66938692  1  0  -0.209253  0  3.406732  0  0  -0.150032  0  3.701629  0  0  -0.149865  0  3.708811  0  0  -0.34461  -0.150602  0  3.696957  0
N  N67  1  0.86232069  0.39041184  0.16938581  1  0  -0.209161  0  3.406754  0  0  -0.150004  0  3.701681  0  0  -0.149844  0  3.708881  0  0  -0.344614  -0.150578  0  3.69702  0
N  N68  1  0.39489625  0.01051200  0.26237057  1  0  -0.656238  0  3.123541  0  0  -0.621041  0  3.351554  0  0  -0.641876  0  3.351595  0  0  -0.575121  -0.606625  0  3.351634  0
N  N69  1  0.60510269  0.48949787  0.76237087  1  0  -0.656397  0  3.123346  0  0  -0.621202  0  3.35141  0  0  -0.64203  0  3.351436  0  0  -0.575144  -0.606782  0  3.351489  0
N  N70  1  0.60510230  0.98949097  0.73763021  1  0  -0.656308  0  3.123409  0  0  -0.621095  0  3.351448  0  0  -0.641926  0  3.351481  0  0  -0.575126  -0.606671  0  3.351537  0
N  N71  1  0.39489888  0.51051162  0.23762990  1  0  -0.656313  0  3.123444  0  0  -0.621084  0  3.351424  0  0  -0.641917  0  3.351462  0  0  -0.575125  -0.606668  0  3.351505  0
