# generated using pymatgen
data_TbH7C6(NO4)2
_symmetry_space_group_name_H-M   'P 1'
_cell_length_a   7.28347176
_cell_length_b   9.78354148
_cell_length_c   14.10133706
_cell_angle_alpha   103.25944634
_cell_angle_beta   89.99992662
_cell_angle_gamma   89.99991248
_symmetry_Int_Tables_number   1
_chemical_formula_structural   TbH7C6(NO4)2
_chemical_formula_sum   'Tb4 H28 C24 N8 O32'
_cell_volume   978.04772300
_cell_formula_units_Z   4
loop_
 _symmetry_equiv_pos_site_id
 _symmetry_equiv_pos_as_xyz
  1  'x, y, z'
loop_
 _atom_site_type_symbol
 _atom_site_label
 _atom_site_symmetry_multiplicity
 _atom_site_fract_x
 _atom_site_fract_y
 _atom_site_fract_z
 _atom_site_occupancy
 _atom_site_pbe_bader_spin_density
 _atom_site_pbe_cm5_charge
 _atom_site_pbe_ddec_charge
 _atom_site_pbe_ddec_spin_density
 _atom_site_pbe_ddec_sum_bond_order
 _atom_site_pbe_magmom
Tb  Tb0  1  0.88118996  0.21657460  0.68350358  1  0  1.525663  2.091276  0  2.153723  0
Tb  Tb1  1  0.38119003  0.78342580  0.81649573  1  0  1.525661  2.091309  0  2.153671  0
Tb  Tb2  1  0.11880890  0.78342501  0.31649616  1  0  1.525661  2.091258  0  2.153722  0
Tb  Tb3  1  0.61880884  0.21657382  0.18350402  1  0  1.525658  2.091284  0  2.153713  0
H  H4  1  0.72520800  0.56104689  0.42503097  1  0  0.326678  0.297623  0  0.951615  0
H  H5  1  0.22520662  0.43895284  0.07496787  1  0  0.326666  0.297604  0  0.951635  0
H  H6  1  0.27479362  0.43895378  0.57496894  1  0  0.326669  0.29761  0  0.951636  0
H  H7  1  0.77479225  0.56104678  0.92503188  1  0  0.326673  0.29764  0  0.951639  0
H  H8  1  0.41945698  0.07575020  0.70583181  1  0  0.122763  0.021433  0  0.979569  0
H  H9  1  0.91945657  0.92424910  0.79416872  1  0  0.122793  0.02148  0  0.97956  0
H  H10  1  0.58054326  0.92424941  0.29416723  1  0  0.122766  0.021437  0  0.979547  0
H  H11  1  0.08054367  0.07575052  0.20583174  1  0  0.122789  0.021472  0  0.979551  0
H  H12  1  0.83215036  0.32096736  0.43605076  1  0  0.146248  0.118311  0  1.00058  0
H  H13  1  0.33214989  0.67903221  0.06394869  1  0  0.146245  0.118303  0  1.000561  0
H  H14  1  0.16785262  0.67903226  0.56394969  1  0  0.146239  0.118304  0  1.000572  0
H  H15  1  0.66784760  0.32096845  0.93605122  1  0  0.146241  0.118296  0  1.000602  0
H  H16  1  0.16740147  0.18513886  0.52619638  1  0  0.299948  0.394894  0  0.943932  0
H  H17  1  0.66740221  0.81485976  0.97380350  1  0  0.299958  0.394887  0  0.943952  0
H  H18  1  0.83259740  0.81486076  0.47380337  1  0  0.299958  0.394897  0  0.943933  0
H  H19  1  0.33259803  0.18513881  0.02619608  1  0  0.299953  0.394894  0  0.943937  0
H  H20  1  0.00407567  0.10044320  0.46772993  1  0  0.308672  0.411908  0  0.912155  0
H  H21  1  0.50407596  0.89955580  0.03227036  1  0  0.308678  0.411918  0  0.912144  0
H  H22  1  0.99592457  0.89955642  0.53227053  1  0  0.308706  0.411964  0  0.912081  0
H  H23  1  0.49592428  0.10044277  0.96772993  1  0  0.308689  0.411957  0  0.912097  0
H  H24  1  0.64230324  0.99457226  0.55806061  1  0  0.303499  0.395388  0  0.939149  0
H  H25  1  0.14230184  0.00542744  0.94193946  1  0  0.303452  0.395255  0  0.939331  0
H  H26  1  0.35769700  0.00542736  0.44193914  1  0  0.303457  0.395252  0  0.939334  0
H  H27  1  0.85769702  0.99457113  0.05806012  1  0  0.303487  0.395324  0  0.939226  0
H  H28  1  0.56629095  0.13686997  0.53445005  1  0  0.301411  0.402318  0  0.930664  0
H  H29  1  0.06629185  0.86312984  0.96555008  1  0  0.301421  0.402309  0  0.930677  0
H  H30  1  0.43370792  0.86312965  0.46554969  1  0  0.301426  0.402319  0  0.930661  0
H  H31  1  0.93370839  0.13686978  0.03445038  1  0  0.301421  0.402321  0  0.930659  0
C  C32  1  0.71758900  0.54032713  0.75128339  1  0  0.233338  0.624617  0  4.194681  0
C  C33  1  0.21758852  0.45967246  0.74871448  1  0  0.233446  0.624659  0  4.194697  0
C  C34  1  0.28240987  0.45967354  0.24871652  1  0  0.233372  0.624608  0  4.194696  0
C  C35  1  0.78241035  0.54032716  0.25128526  1  0  0.233447  0.624713  0  4.1946  0
C  C36  1  0.60241176  0.75022129  0.59366608  1  0  0.234412  0.611507  0  4.217264  0
C  C37  1  0.10240995  0.24977952  0.90633419  1  0  0.234365  0.61139  0  4.217346  0
C  C38  1  0.39758985  0.24977938  0.40633596  1  0  0.234369  0.611404  0  4.217372  0
C  C39  1  0.89759029  0.75022221  0.09366731  1  0  0.234419  0.61151  0  4.21723  0
C  C40  1  0.71789807  0.52076928  0.64399938  1  0  0.091976  0.010795  0  3.984518  0
C  C41  1  0.21789728  0.47923135  0.85599866  1  0  0.091912  0.01073  0  3.984432  0
C  C42  1  0.28210492  0.47923244  0.35600070  1  0  0.091972  0.010821  0  3.984503  0
C  C43  1  0.78210159  0.52076826  0.14400038  1  0  0.091919  0.010676  0  3.984504  0
C  C44  1  0.50056929  0.09311267  0.77388271  1  0  0.170167  0.559398  0  4.197599  0
C  C45  1  0.00056795  0.90688619  0.72611803  1  0  0.170134  0.55925  0  4.197702  0
C  C46  1  0.49942957  0.90688485  0.22611742  1  0  0.170169  0.559394  0  4.197445  0
C  C47  1  0.99943091  0.09311343  0.27388243  1  0  0.170138  0.559307  0  4.197658  0
C  C48  1  0.78924484  0.40281903  0.49816927  1  0  0.170432  0.212496  0  3.874991  0
C  C49  1  0.28924332  0.59718060  0.00182880  1  0  0.170417  0.212481  0  3.875121  0
C  C50  1  0.21075815  0.59718059  0.50183048  1  0  0.170394  0.212451  0  3.875117  0
C  C51  1  0.71075830  0.40281902  0.99817024  1  0  0.170418  0.212495  0  3.875128  0
C  C52  1  0.68199210  0.60840354  0.58080933  1  0  0.094359  -0.003634  0  3.90664  0
C  C53  1  0.18199134  0.39159610  0.91918928  1  0  0.094357  -0.003609  0  3.906618  0
C  C54  1  0.31801088  0.39159713  0.41919129  1  0  0.094391  -0.003613  0  3.906583  0
C  C55  1  0.81800890  0.60840352  0.08081047  1  0  0.094358  -0.003591  0  3.906594  0
N  N56  1  0.78353180  0.39410700  0.59105798  1  0  -0.416492  -0.436474  0  3.484628  0
N  N57  1  0.28353062  0.60589249  0.90894126  1  0  -0.416488  -0.436487  0  3.484749  0
N  N58  1  0.21646982  0.60589367  0.40894336  1  0  -0.41643  -0.43638  0  3.484687  0
N  N59  1  0.71646825  0.39410607  0.09105832  1  0  -0.416473  -0.436424  0  3.484735  0
N  N60  1  0.73084949  0.53058985  0.49004530  1  0  -0.362139  -0.215566  0  3.659367  0
N  N61  1  0.23084958  0.46940986  0.00995353  1  0  -0.362123  -0.21553  0  3.659269  0
N  N62  1  0.26915350  0.46941082  0.50995603  1  0  -0.362167  -0.215608  0  3.659382  0
N  N63  1  0.76915066  0.53058976  0.99004622  1  0  -0.362126  -0.215602  0  3.659381  0
O  O64  1  0.78968243  0.43996295  0.78254709  1  0  -0.37385  -0.645243  0  2.283645  0
O  O65  1  0.28968456  0.56003864  0.71745318  1  0  -0.373885  -0.645245  0  2.283694  0
O  O66  1  0.21031507  0.56003773  0.21745495  1  0  -0.373853  -0.645209  0  2.283684  0
O  O67  1  0.71031568  0.43996203  0.28254603  1  0  -0.37388  -0.645267  0  2.283726  0
O  O68  1  0.03816779  0.15685421  0.53301170  1  0  -0.658668  -0.868721  0  2.152116  0
O  O69  1  0.53816849  0.84314564  0.96698846  1  0  -0.658685  -0.86874  0  2.152127  0
O  O70  1  0.96183108  0.84314541  0.46698876  1  0  -0.658714  -0.868785  0  2.152119  0
O  O71  1  0.46183175  0.15685398  0.03301129  1  0  -0.658686  -0.868766  0  2.152089  0
O  O72  1  0.66360169  0.09717219  0.56952215  1  0  -0.657219  -0.863485  0  2.113788  0
O  O73  1  0.16360122  0.90282748  0.93047790  1  0  -0.657182  -0.863336  0  2.113868  0
O  O74  1  0.33639856  0.90282742  0.43047759  1  0  -0.657195  -0.863353  0  2.113864  0
O  O75  1  0.83639902  0.09717214  0.06952185  1  0  -0.657214  -0.863418  0  2.113823  0
O  O76  1  0.63476207  0.17674989  0.78386527  1  0  -0.391673  -0.623658  0  2.344791  0
O  O77  1  0.13476230  0.82324982  0.71613480  1  0  -0.391683  -0.623627  0  2.344816  0
O  O78  1  0.36523680  0.82324868  0.21613431  1  0  -0.391703  -0.623699  0  2.344754  0
O  O79  1  0.86523520  0.17674874  0.28386407  1  0  -0.391671  -0.623636  0  2.344817  0
O  O80  1  0.52371974  0.80653021  0.67235321  1  0  -0.381741  -0.646614  0  2.369443  0
O  O81  1  0.02372098  0.19347070  0.82764642  1  0  -0.381725  -0.646526  0  2.369419  0
O  O82  1  0.47627913  0.19347045  0.32764670  1  0  -0.381722  -0.646553  0  2.369436  0
O  O83  1  0.97628063  0.80652997  0.17235420  1  0  -0.381753  -0.646605  0  2.369419  0
O  O84  1  0.65472868  0.65045974  0.80788876  1  0  -0.391162  -0.651831  0  2.29347  0
O  O85  1  0.15472582  0.34954204  0.69211021  1  0  -0.391175  -0.651818  0  2.293567  0
O  O86  1  0.34527156  0.34953883  0.19211224  1  0  -0.391202  -0.651851  0  2.293444  0
O  O87  1  0.84527305  0.65045863  0.30788899  1  0  -0.391206  -0.651865  0  2.293478  0
O  O88  1  0.61684584  0.80831877  0.52075682  1  0  -0.303936  -0.565337  0  2.230521  0
O  O89  1  0.11684534  0.19168306  0.97924289  1  0  -0.303911  -0.565307  0  2.230549  0
O  O90  1  0.38315303  0.19168190  0.47924380  1  0  -0.303949  -0.565319  0  2.230587  0
O  O91  1  0.88315353  0.80831551  0.02075669  1  0  -0.303929  -0.565328  0  2.230469  0
O  O92  1  0.45042012  0.02728975  0.83793035  1  0  -0.392664  -0.631415  0  2.338455  0
O  O93  1  0.95041994  0.97271057  0.66207032  1  0  -0.392652  -0.631339  0  2.33847  0
O  O94  1  0.54957875  0.97270987  0.16206940  1  0  -0.392642  -0.631366  0  2.33836  0
O  O95  1  0.04958030  0.02728906  0.33793013  1  0  -0.392663  -0.631373  0  2.338477  0
