# generated using pymatgen
data_VH3C8O5
_symmetry_space_group_name_H-M   'P 1'
_cell_length_a   11.93578399
_cell_length_b   15.10220881
_cell_length_c   15.10189253
_cell_angle_alpha   89.99998496
_cell_angle_beta   89.99978764
_cell_angle_gamma   90.00012450
_symmetry_Int_Tables_number   1
_chemical_formula_structural   VH3C8O5
_chemical_formula_sum   'V8 H24 C64 O40'
_cell_volume   2722.21734184
_cell_formula_units_Z   8
loop_
 _symmetry_equiv_pos_site_id
 _symmetry_equiv_pos_as_xyz
  1  'x, y, z'
loop_
 _atom_site_type_symbol
 _atom_site_label
 _atom_site_symmetry_multiplicity
 _atom_site_fract_x
 _atom_site_fract_y
 _atom_site_fract_z
 _atom_site_occupancy
 _atom_site_pbe_bader_charge
 _atom_site_pbe_bader_spin_density
 _atom_site_pbe_cm5_charge
 _atom_site_pbe_ddec_charge
 _atom_site_pbe_ddec_spin_density
 _atom_site_pbe_ddec_sum_bond_order
 _atom_site_pbe_magmom
V  V0  1  0.12513162  0.94799454  0.05197530  1  2.095136  0.99525  1.399856  1.886519  1.025551  2.892811  1.016
V  V1  1  0.62513484  0.05201400  0.94802330  1  2.095312  0.99543  1.399843  1.886411  1.025774  2.893035  1.016
V  V2  1  0.37517175  0.94800060  0.94801561  1  2.095211  0.995502  1.399794  1.886367  1.025847  2.892997  1.017
V  V3  1  0.87516240  0.05200109  0.05199087  1  2.095507  0.995259  1.399744  1.886178  1.025634  2.893484  1.016
V  V4  1  0.37511181  0.55215193  0.55212157  1  2.096519  0.995576  1.399065  1.885785  1.02655  2.891666  1.016
V  V5  1  0.87511175  0.44785505  0.44789087  1  2.096489  0.995348  1.39913  1.885866  1.026268  2.891686  1.016
V  V6  1  0.62507263  0.44784158  0.55210863  1  2.096656  0.995486  1.399272  1.886452  1.026478  2.89051  1.016
V  V7  1  0.12508743  0.55214445  0.44788268  1  2.096248  0.99536  1.399375  1.886355  1.026284  2.890901  1.016
H  H8  1  0.23537920  0.75100091  0.25048339  1  0.078137  2.5e-05  0.118291  0.130648  -0.000164  0.986228  0.0
H  H9  1  0.54648692  0.82212920  0.12627664  1  0.089465  5.2e-05  0.114955  0.12281  -0.000187  0.997375  0.0
H  H10  1  0.54667382  0.67798867  0.37352051  1  0.083362  5.3e-05  0.115116  0.122918  -0.000187  0.997054  0.0
H  H11  1  0.73536796  0.24900054  0.74951621  1  0.078043  2.5e-05  0.118301  0.130636  -0.000164  0.986287  0.0
H  H12  1  0.04647441  0.17784941  0.87371756  1  0.089515  5.2e-05  0.114994  0.122816  -0.000188  0.997417  0.0
H  H13  1  0.04666202  0.32202371  0.62649157  1  0.083807  5.3e-05  0.115174  0.122961  -0.000187  0.997177  0.0
H  H14  1  0.48533563  0.74952909  0.75098917  1  0.077779  2.6e-05  0.11842  0.130804  -0.000164  0.985912  0.0
H  H15  1  0.79647397  0.87368404  0.82215064  1  0.08966  5.2e-05  0.115044  0.122867  -0.000187  0.997446  0.0
H  H16  1  0.79664572  0.62650829  0.67795815  1  0.084139  5.2e-05  0.115219  0.123067  -0.000187  0.997283  0.0
H  H17  1  0.98534350  0.25047544  0.24901102  1  0.077885  2.5e-05  0.118393  0.130729  -0.000164  0.98601  0.0
H  H18  1  0.29647379  0.12631222  0.17785209  1  0.089635  5.2e-05  0.115037  0.122873  -0.000187  0.997462  0.0
H  H19  1  0.29665224  0.37349856  0.32203465  1  0.083779  5.2e-05  0.115196  0.122984  -0.000187  0.997232  0.0
H  H20  1  0.76463574  0.24899997  0.25048136  1  0.07794  2.7e-05  0.118392  0.130701  -0.000161  0.986163  0.0
H  H21  1  0.45352692  0.17784588  0.12628547  1  0.089516  5.2e-05  0.115006  0.122838  -0.000188  0.997397  0.0
H  H22  1  0.45334222  0.32202940  0.37350414  1  0.083867  5.3e-05  0.115211  0.123044  -0.000187  0.997141  0.0
H  H23  1  0.26462621  0.75100418  0.74952412  1  0.07804  2.7e-05  0.118335  0.130623  -0.000161  0.986353  0.0
H  H24  1  0.95351081  0.82213608  0.87371813  1  0.089516  5.3e-05  0.114957  0.122795  -0.000188  0.997302  0.0
H  H25  1  0.95333273  0.67798435  0.62648489  1  0.083416  5.3e-05  0.115145  0.122953  -0.000187  0.997153  0.0
H  H26  1  0.51466440  0.25047232  0.75099184  1  0.077764  2.7e-05  0.11841  0.130806  -0.000161  0.985951  0.0
H  H27  1  0.20352740  0.12631603  0.82215161  1  0.089887  5.2e-05  0.115032  0.122859  -0.000188  0.997486  0.0
H  H28  1  0.20335465  0.37349645  0.67796435  1  0.083827  5.3e-05  0.115211  0.123019  -0.000187  0.997254  0.0
H  H29  1  0.01466642  0.74952743  0.24900841  1  0.077736  2.7e-05  0.118394  0.130771  -0.000161  0.985945  0.0
H  H30  1  0.70352557  0.87367543  0.17783550  1  0.089824  5.2e-05  0.115078  0.12291  -0.000188  0.997452  0.0
H  H31  1  0.70335566  0.62651223  0.32204991  1  0.084147  5.2e-05  0.115178  0.12298  -0.000187  0.997425  0.0
C  C32  1  0.32770957  0.84252338  0.11128612  1  1.548543  0.01945  0.241228  0.636196  0.019757  4.097987  0.017
C  C33  1  0.38614705  0.79278169  0.18262677  1  0.006455  -0.004706  -0.010948  -0.03127  -0.005136  3.985367  -0.004
C  C34  1  0.32657471  0.75065667  0.25034752  1  -0.024474  0.008429  -0.061134  -0.086393  0.007289  3.885857  0.005
C  C35  1  0.50325038  0.79094961  0.18161613  1  0.016616  0.008593  -0.06623  -0.118984  0.007589  3.896355  0.005
C  C36  1  0.38618600  0.70807619  0.31777276  1  -0.070017  -0.004697  -0.010506  -0.031519  -0.005146  3.984835  -0.005
C  C37  1  0.56326298  0.75016555  0.24997172  1  0.04873  -0.002109  -0.003012  0.066241  -0.002205  4.030282  -0.002
C  C38  1  0.50330692  0.70947939  0.31841754  1  0.026743  0.008597  -0.066304  -0.118552  0.007593  3.895588  0.005
C  C39  1  0.32783350  0.65797948  0.38894870  1  1.541857  0.019551  0.240849  0.636836  0.019831  4.097219  0.017
C  C40  1  0.82770413  0.15747955  0.88871850  1  1.549066  0.019448  0.241149  0.636107  0.019756  4.09802  0.017
C  C41  1  0.88613958  0.20721538  0.81737835  1  0.006227  -0.004705  -0.010895  -0.031386  -0.005135  3.985539  -0.004
C  C42  1  0.82656683  0.24934229  0.74965579  1  -0.024835  0.008425  -0.061018  -0.086156  0.007285  3.88594  0.005
C  C43  1  0.00324156  0.20904216  0.81838084  1  0.016592  0.008585  -0.066246  -0.11895  0.007583  3.896439  0.005
C  C44  1  0.88618106  0.29192619  0.68223170  1  -0.069716  -0.004695  -0.01049  -0.031619  -0.005145  3.985158  -0.005
C  C45  1  0.06326129  0.24983361  0.75003104  1  0.048338  -0.002107  -0.003071  0.066264  -0.002204  4.030112  -0.002
C  C46  1  0.00330231  0.29052497  0.68158937  1  0.026999  0.008591  -0.066368  -0.118619  0.007588  3.89567  0.005
C  C47  1  0.82782820  0.34201352  0.61105394  1  1.542532  0.019527  0.24098  0.637074  0.019807  4.096933  0.017
C  C48  1  0.57772585  0.88868099  0.84260734  1  1.549419  0.01946  0.241107  0.636065  0.019767  4.098652  0.017
C  C49  1  0.63616024  0.81734181  0.79280622  1  0.006338  -0.004706  -0.011005  -0.03143  -0.005135  3.985952  -0.004
C  C50  1  0.57653366  0.74968213  0.75060366  1  -0.024198  0.008419  -0.061215  -0.086661  0.007279  3.885573  0.005
C  C51  1  0.75324346  0.81834905  0.79096058  1  0.016431  0.008576  -0.066476  -0.11908  0.007574  3.897518  0.005
C  C52  1  0.63615858  0.68228542  0.70797382  1  -0.072682  -0.004696  -0.01048  -0.030974  -0.005146  3.983699  -0.005
C  C53  1  0.81327304  0.75002334  0.75015833  1  0.045965  -0.002105  -0.003057  0.066365  -0.002203  4.030122  -0.002
C  C54  1  0.75328201  0.68162668  0.70941850  1  0.029417  0.008586  -0.066346  -0.119017  0.007584  3.895432  0.005
C  C55  1  0.57781555  0.61108056  0.65786629  1  1.544554  0.019542  0.240823  0.636683  0.019834  4.097437  0.017
C  C56  1  0.07772069  0.11132284  0.15739405  1  1.549094  0.019451  0.241078  0.635935  0.019756  4.098954  0.017
C  C57  1  0.13616258  0.18266013  0.20719036  1  0.006394  -0.004704  -0.011139  -0.03137  -0.005132  3.985598  -0.004
C  C58  1  0.07654102  0.25032236  0.24939111  1  -0.024358  0.008411  -0.061174  -0.086567  0.007272  3.88551  0.005
C  C59  1  0.25324747  0.18165110  0.20903831  1  0.016225  0.008569  -0.066426  -0.119168  0.007568  3.897233  0.005
C  C60  1  0.13616341  0.31772049  0.29201945  1  -0.072501  -0.004694  -0.010384  -0.031049  -0.005144  3.983766  -0.005
C  C61  1  0.31327872  0.24997890  0.24983773  1  0.046152  -0.002103  -0.003002  0.066457  -0.002201  4.03005  -0.002
C  C62  1  0.25328852  0.31837745  0.29057310  1  0.029696  0.008578  -0.066422  -0.118939  0.007578  3.895263  0.005
C  C63  1  0.07780861  0.38891598  0.34212848  1  1.545146  0.019529  0.240974  0.636859  0.019822  4.097221  0.017
C  C64  1  0.67229429  0.15746230  0.11128306  1  1.548773  0.01962  0.241384  0.63656  0.019936  4.097725  0.017
C  C65  1  0.61386318  0.20721059  0.18262055  1  0.006526  -0.004711  -0.010876  -0.031519  -0.005137  3.985727  -0.005
C  C66  1  0.67343939  0.24934222  0.25034310  1  -0.024915  0.008514  -0.061124  -0.086327  0.007362  3.885768  0.005
C  C67  1  0.49676153  0.20903936  0.18162019  1  0.016769  0.008655  -0.06633  -0.118941  0.007648  3.896492  0.005
C  C68  1  0.61382611  0.29193063  0.31776652  1  -0.070328  -0.004707  -0.010486  -0.031491  -0.005153  3.984701  -0.005
C  C69  1  0.43674275  0.24983400  0.24996932  1  0.048122  -0.002127  -0.002956  0.066347  -0.002225  4.030166  -0.002
C  C70  1  0.49670351  0.29052743  0.31840767  1  0.02709  0.008655  -0.066475  -0.118767  0.007648  3.895486  0.005
C  C71  1  0.67216487  0.34203195  0.38894558  1  1.542155  0.019672  0.24091  0.636728  0.019955  4.09717  0.017
C  C72  1  0.17228017  0.84254301  0.88871607  1  1.54863  0.019616  0.241253  0.636147  0.019933  4.097706  0.017
C  C73  1  0.11385428  0.79278998  0.81737543  1  0.006792  -0.004712  -0.010904  -0.031337  -0.005138  3.985319  -0.005
C  C74  1  0.17342902  0.75065713  0.74965536  1  -0.024845  0.008515  -0.061112  -0.086322  0.007363  3.885857  0.005
C  C75  1  0.99675062  0.79095459  0.81838129  1  0.016469  0.008657  -0.066297  -0.118937  0.00765  3.896213  0.005
C  C76  1  0.11382264  0.70806862  0.68222880  1  -0.070545  -0.004708  -0.010352  -0.031373  -0.005153  3.984696  -0.005
C  C77  1  0.93674126  0.75016515  0.75002836  1  0.048228  -0.002128  -0.003008  0.066338  -0.002225  4.030156  -0.002
C  C78  1  0.99669804  0.70947514  0.68158520  1  0.027398  0.008658  -0.066418  -0.118765  0.00765  3.895602  0.005
C  C79  1  0.17215574  0.65796078  0.61104957  1  1.543011  0.019675  0.240894  0.636783  0.019964  4.097268  0.017
C  C80  1  0.42226956  0.11132371  0.84263150  1  1.549022  0.019628  0.241493  0.636388  0.019941  4.098051  0.017
C  C81  1  0.36384211  0.18266289  0.79281994  1  0.006529  -0.004711  -0.011091  -0.03172  -0.005136  3.985873  -0.005
C  C82  1  0.42346805  0.25032127  0.75060991  1  -0.024128  0.008506  -0.061124  -0.086563  0.007355  3.885455  0.005
C  C83  1  0.24675806  0.18165433  0.79096670  1  0.016423  0.008645  -0.066434  -0.118965  0.007638  3.897369  0.005
C  C84  1  0.36384333  0.31771732  0.70797427  1  -0.07341  -0.004708  -0.01048  -0.031006  -0.005154  3.98368  -0.005
C  C85  1  0.18672784  0.24997939  0.75016329  1  0.045783  -0.002125  -0.00304  0.066431  -0.002224  4.030096  -0.002
C  C86  1  0.24671822  0.31837673  0.70942459  1  0.029749  0.008649  -0.066379  -0.118983  0.007642  3.895284  0.005
C  C87  1  0.42217654  0.38891822  0.65785264  1  1.544653  0.019692  0.240681  0.636261  0.019983  4.097578  0.017
C  C88  1  0.92226787  0.88868071  0.15737086  1  1.548954  0.019627  0.241461  0.636346  0.019941  4.098119  0.017
C  C89  1  0.86384586  0.81734076  0.20717928  1  0.006506  -0.00471  -0.011132  -0.03169  -0.005134  3.98582  -0.005
C  C90  1  0.92346890  0.74968051  0.24939113  1  -0.024053  0.008501  -0.061133  -0.086501  0.00735  3.885419  0.005
C  C91  1  0.74675928  0.81834316  0.20902955  1  0.016543  0.008638  -0.066509  -0.119127  0.007632  3.897312  0.005
C  C92  1  0.86384883  0.68228037  0.29202827  1  -0.073386  -0.004705  -0.010451  -0.031205  -0.005151  3.983955  -0.005
C  C93  1  0.68672952  0.75002065  0.24983910  1  0.045731  -0.002123  -0.002979  0.066528  -0.002222  4.030052  -0.002
C  C94  1  0.74672288  0.68162607  0.29058292  1  0.02956  0.008644  -0.066437  -0.118952  0.007638  3.89548  0.005
C  C95  1  0.92218160  0.61107759  0.34214575  1  1.544833  0.019666  0.240832  0.636518  0.01996  4.097569  0.017
O  O96  1  0.22907927  0.86984115  0.12682140  1  -1.130755  0.004621  -0.326364  -0.560468  8e-06  2.323324  -0.008
O  O97  1  0.38329974  0.85510107  0.03959105  1  -1.133978  0.012728  -0.353382  -0.594128  0.006996  2.329176  -0.005
O  O98  1  0.38360594  0.64498407  0.46048336  1  -1.132746  0.012646  -0.353088  -0.59439  0.006887  2.329491  -0.005
O  O99  1  0.22918728  0.63069001  0.37337199  1  -1.127855  0.004549  -0.326354  -0.561119  -1.6e-05  2.321088  -0.008
O  O100  1  0.72907634  0.13016426  0.87318020  1  -1.130978  0.004631  -0.326382  -0.560385  1.2e-05  2.323472  -0.008
O  O101  1  0.88329142  0.14490063  0.96041407  1  -1.134027  0.012722  -0.353362  -0.594083  0.006993  2.329173  -0.005
O  O102  1  0.88359682  0.35499976  0.53951581  1  -1.133644  0.012635  -0.35331  -0.594578  0.006888  2.329057  -0.005
O  O103  1  0.72918700  0.36930878  0.62663226  1  -1.127823  0.00454  -0.326389  -0.561296  -2e-05  2.321055  -0.008
O  O104  1  0.47909630  0.87313549  0.86990936  1  -1.130965  0.004638  -0.326073  -0.560103  1.4e-05  2.323905  -0.008
O  O105  1  0.63329412  0.96038181  0.85515865  1  -1.133701  0.012734  -0.353582  -0.594474  0.007014  2.329144  -0.005
O  O106  1  0.63355124  0.53952949  0.64492148  1  -1.133248  0.012663  -0.353211  -0.594536  0.006914  2.329126  -0.005
O  O107  1  0.47916774  0.62667820  0.63059700  1  -1.128295  0.004577  -0.326419  -0.56104  -1e-05  2.322299  -0.008
O  O108  1  0.97909601  0.12687830  0.13008688  1  -1.130834  0.00463  -0.326168  -0.560062  8e-06  2.323878  -0.008
O  O109  1  0.13327626  0.03961417  0.14484986  1  -1.133525  0.012737  -0.353432  -0.594408  0.007017  2.329377  -0.005
O  O110  1  0.13354109  0.46047245  0.35506451  1  -1.13344  0.012648  -0.353351  -0.594776  0.006922  2.329113  -0.005
O  O111  1  0.97917119  0.37331241  0.36941115  1  -1.128359  0.004565  -0.326438  -0.560944  -1.5e-05  2.322121  -0.008
O  O112  1  0.77093206  0.13013393  0.12677965  1  -1.13348  0.004448  -0.326345  -0.56037  -0.000234  2.321945  -0.008
O  O113  1  0.61667514  0.14483232  0.03961133  1  -1.134315  0.01211  -0.353491  -0.594316  0.006332  2.329595  -0.006
O  O114  1  0.61636110  0.35505847  0.46045922  1  -1.13273  0.012194  -0.353227  -0.594351  0.006405  2.329402  -0.006
O  O115  1  0.77081787  0.36933533  0.37340632  1  -1.128314  0.00436  -0.326302  -0.561015  -0.000197  2.320448  -0.008
O  O116  1  0.27092144  0.86986956  0.87322647  1  -1.133183  0.004442  -0.326284  -0.560273  -0.000232  2.321862  -0.008
O  O117  1  0.11665066  0.85517952  0.96038531  1  -1.134487  0.012114  -0.353372  -0.594095  0.006326  2.32916  -0.006
O  O118  1  0.11636148  0.64492622  0.53953411  1  -1.133358  0.012187  -0.353169  -0.594259  0.006401  2.329409  -0.006
O  O119  1  0.27081026  0.63066022  0.62659582  1  -1.12826  0.004371  -0.326441  -0.561158  -0.000195  2.320541  -0.008
O  O120  1  0.52090653  0.12682748  0.86995376  1  -1.133012  0.004444  -0.326336  -0.560112  -0.000233  2.32245  -0.008
O  O121  1  0.36667359  0.03963878  0.85522207  1  -1.134312  0.012124  -0.353571  -0.594507  0.006347  2.329222  -0.006
O  O122  1  0.36640739  0.46044877  0.64486560  1  -1.13248  0.012196  -0.353284  -0.594377  0.006424  2.329441  -0.006
O  O123  1  0.52082951  0.37335569  0.63056850  1  -1.12846  0.004387  -0.326195  -0.56065  -0.000178  2.321247  -0.008
O  O124  1  0.02090693  0.87318552  0.13005044  1  -1.13293  0.004442  -0.326308  -0.560084  -0.00023  2.322552  -0.008
O  O125  1  0.86666210  0.96035959  0.14477781  1  -1.13435  0.012126  -0.353508  -0.594386  0.006344  2.32927  -0.006
O  O126  1  0.86641890  0.53954562  0.35512633  1  -1.132963  0.012197  -0.353314  -0.594462  0.006426  2.329302  -0.006
O  O127  1  0.02083314  0.62664009  0.36943372  1  -1.12823  0.004372  -0.326295  -0.560745  -0.000183  2.321219  -0.008
O  O128  1  0.24989445  0.98947270  0.00006108  1  -0.913988  -0.082666  -0.652899  -0.905696  -0.088361  1.892632  -0.107
O  O129  1  0.74989563  0.01053010  0.99994245  1  -0.91415  -0.082651  -0.652904  -0.905682  -0.088352  1.892829  -0.107
O  O130  1  0.49989918  0.99994145  0.98955326  1  -0.913468  -0.082669  -0.652921  -0.905815  -0.088342  1.892145  -0.107
O  O131  1  0.99989408  0.00006774  0.01045351  1  -0.913451  -0.082645  -0.652882  -0.905766  -0.088314  1.892055  -0.107
O  O132  1  0.24991692  0.51082145  0.49994750  1  -0.915936  -0.082744  -0.65211  -0.90429  -0.088503  1.8915  -0.107
O  O133  1  0.74991421  0.48918068  0.50005139  1  -0.916034  -0.082711  -0.652174  -0.904429  -0.088486  1.891437  -0.107
O  O134  1  0.49991303  0.50004576  0.51073916  1  -0.915517  -0.082773  -0.652048  -0.904526  -0.088512  1.890834  -0.107
O  O135  1  0.99991961  0.49994489  0.48926099  1  -0.915574  -0.08273  -0.652105  -0.904455  -0.088473  1.890961  -0.107
