# generated using pymatgen
data_AgH5C7SN2
_symmetry_space_group_name_H-M   'P 1'
_cell_length_a   5.89333013
_cell_length_b   7.24398166
_cell_length_c   9.48628799
_cell_angle_alpha   102.30095542
_cell_angle_beta   106.33662887
_cell_angle_gamma   95.98057689
_symmetry_Int_Tables_number   1
_chemical_formula_structural   AgH5C7SN2
_chemical_formula_sum   'Ag2 H10 C14 S2 N4'
_cell_volume   373.84556963
_cell_formula_units_Z   2
loop_
 _symmetry_equiv_pos_site_id
 _symmetry_equiv_pos_as_xyz
  1  'x, y, z'
loop_
 _atom_site_type_symbol
 _atom_site_label
 _atom_site_symmetry_multiplicity
 _atom_site_fract_x
 _atom_site_fract_y
 _atom_site_fract_z
 _atom_site_occupancy
 _atom_site_hle17_bader_spin_density
 _atom_site_hle17_ddec_charge
 _atom_site_hle17_ddec_spin_density
 _atom_site_hle17_ddec_sum_bond_order
 _atom_site_hle17_magmom
 _atom_site_hse06_10hf_bader_spin_density
 _atom_site_hse06_10hf_ddec_charge
 _atom_site_hse06_10hf_ddec_spin_density
 _atom_site_hse06_10hf_ddec_sum_bond_order
 _atom_site_hse06_10hf_magmom
 _atom_site_hse06_bader_spin_density
 _atom_site_hse06_ddec_charge
 _atom_site_hse06_ddec_spin_density
 _atom_site_hse06_ddec_sum_bond_order
 _atom_site_hse06_magmom
 _atom_site_pbe_bader_spin_density
 _atom_site_pbe_cm5_charge
 _atom_site_pbe_ddec_charge
 _atom_site_pbe_ddec_spin_density
 _atom_site_pbe_ddec_sum_bond_order
 _atom_site_pbe_magmom
Ag  Ag0  1  0.81328764  0.99870147  0.32528135  1  0  0.441834  0  1.718068  0  0  0.317589  0  2.200662  0  0  0.337645  0  2.161142  0  0  0.4304  0.304623  0  2.226677  0
Ag  Ag1  1  0.18662910  0.00133623  0.67464960  1  0  0.44178  0  1.718278  0  0  0.317542  0  2.200934  0  0  0.337595  0  2.161407  0  0  0.430356  0.304582  0  2.226961  0
H  H2  1  0.70384937  0.53529333  0.15167084  1  0  0.080799  0  1.000413  0  0  0.088132  0  1.072748  0  0  0.090954  0  1.071807  0  0  0.08884  0.085849  0  1.074158  0
H  H3  1  0.29619680  0.46464624  0.84835247  1  0  0.08076  0  1.000383  0  0  0.088051  0  1.07279  0  0  0.090883  0  1.071832  0  0  0.088801  0.085763  0  1.074206  0
H  H4  1  0.04128169  0.31789674  0.92146571  1  0  0.09901  0  0.99317  0  0  0.107837  0  1.059834  0  0  0.110331  0  1.059846  0  0  0.097493  0.104618  0  1.062343  0
H  H5  1  0.95882659  0.68206201  0.07851046  1  0  0.099055  0  0.993197  0  0  0.107779  0  1.059886  0  0  0.110284  0  1.059892  0  0  0.097504  0.104557  0  1.062395  0
H  H6  1  0.61591308  0.40528444  0.34383369  1  0  0.104773  0  0.96301  0  0  0.112256  0  1.031316  0  0  0.115256  0  1.030971  0  0  0.097566  0.109772  0  1.032157  0
H  H7  1  0.38406308  0.59470560  0.65621492  1  0  0.10473  0  0.963069  0  0  0.112226  0  1.031391  0  0  0.115223  0  1.031052  0  0  0.097588  0.109752  0  1.032219  0
H  H8  1  0.78082151  0.14385138  0.03002633  1  0  0.078293  0  0.929751  0  0  0.090248  0  0.990009  0  0  0.092409  0  0.988296  0  0  0.113015  0.088785  0  0.991  0
H  H9  1  0.21915393  0.85615892  0.96992915  1  0  0.078314  0  0.929898  0  0  0.090242  0  0.990188  0  0  0.0924  0  0.988476  0  0  0.113006  0.088782  0  0.991175  0
H  H10  1  0.32877188  0.22912021  0.43677519  1  0  0.071401  0  0.96585  0  0  0.08064  0  1.03247  0  0  0.082119  0  1.031327  0  0  0.105972  0.079555  0  1.033545  0
H  H11  1  0.67116624  0.77090302  0.56326190  1  0  0.071472  0  0.966102  0  0  0.080821  0  1.032561  0  0  0.082308  0  1.031403  0  0  0.106031  0.079726  0  1.03363  0
C  C12  1  0.35599345  0.37809891  0.12307666  1  0  0.139111  0  3.787481  0  0  0.156093  0  4.009664  0  0  0.161638  0  4.03188  0  0  0.007552  0.152662  0  3.993371  0
C  C13  1  0.64402404  0.62191182  0.87691599  1  0  0.139154  0  3.78729  0  0  0.156141  0  4.009416  0  0  0.161685  0  4.03164  0  0  0.007601  0.152708  0  3.993124  0
C  C14  1  0.52478301  0.48251945  0.06949738  1  0  -0.094362  0  3.714257  0  0  -0.113249  0  3.962826  0  0  -0.116257  0  3.982701  0  0  -0.082848  -0.110391  0  3.947414  0
C  C15  1  0.47524235  0.51754259  0.93054109  1  0  -0.094099  0  3.714105  0  0  -0.11297  0  3.962689  0  0  -0.115953  0  3.982504  0  0  -0.082591  -0.110134  0  3.947336  0
C  C16  1  0.11486112  0.30220736  0.03625973  1  0  -0.157036  0  3.686927  0  0  -0.171285  0  3.928038  0  0  -0.179055  0  3.949661  0  0  -0.084707  -0.166429  0  3.914767  0
C  C17  1  0.88515989  0.69779638  0.96374098  1  0  -0.157061  0  3.686772  0  0  -0.171125  0  3.927845  0  0  -0.178901  0  3.949454  0  0  -0.084752  -0.166276  0  3.914577  0
C  C18  1  0.43178855  0.35035190  0.27026271  1  0  -0.163845  0  3.694839  0  0  -0.18049  0  3.943232  0  0  -0.188631  0  3.963355  0  0  -0.086167  -0.174038  0  3.929118  0
C  C19  1  0.56822056  0.64964612  0.72973185  1  0  -0.163809  0  3.695322  0  0  -0.180505  0  3.943784  0  0  -0.188654  0  3.963919  0  0  -0.086192  -0.174055  0  3.929659  0
C  C20  1  0.96704166  0.20421266  0.09685386  1  0  0.117814  0  3.729256  0  0  0.08841  0  3.979036  0  0  0.09511  0  3.998304  0  0  0.035947  0.083818  0  3.966142  0
C  C21  1  0.03296047  0.79575499  0.90312658  1  0  0.117601  0  3.729635  0  0  0.08813  0  3.979423  0  0  0.094827  0  3.998696  0  0  0.035849  0.083549  0  3.966532  0
C  C22  1  0.30385907  0.80226243  0.34443300  1  0  0.275994  0  3.993111  0  0  0.259535  0  4.28383  0  0  0.278588  0  4.300989  0  0  0.142332  0.247095  0  4.272283  0
C  C23  1  0.69613855  0.19774739  0.65556754  1  0  0.275817  0  3.992707  0  0  0.259365  0  4.283435  0  0  0.278421  0  4.300611  0  0  0.142288  0.246922  0  4.27188  0
C  C24  1  0.27169993  0.25179649  0.32304279  1  0  0.131138  0  3.723095  0  0  0.099617  0  3.973976  0  0  0.1074  0  3.992745  0  0  0.037212  0.094376  0  3.961035  0
C  C25  1  0.72829658  0.74820934  0.67696751  1  0  0.130864  0  3.723951  0  0  0.099222  0  3.974792  0  0  0.107004  0  3.993561  0  0  0.037  0.094009  0  3.961833  0
S  S26  1  0.07743275  0.72491183  0.39637949  1  0  -0.320423  0  2.344708  0  0  -0.272454  0  2.727057  0  0  -0.287687  0  2.714046  0  0  -0.140288  -0.262977  0  2.737601  0
S  S27  1  0.92254380  0.27511424  0.60362699  1  0  -0.320131  0  2.344975  0  0  -0.272186  0  2.727407  0  0  -0.287379  0  2.714319  0  0  -0.14016  -0.262718  0  2.737975  0
N  N28  1  0.04214010  0.17763183  0.23830979  1  0  -0.310188  0  3.334457  0  0  -0.22959  0  3.618714  0  0  -0.247664  0  3.63536  0  0  -0.351174  -0.216898  0  3.606654  0
N  N29  1  0.95786920  0.82232153  0.76167513  1  0  -0.309876  0  3.334529  0  0  -0.22919  0  3.618678  0  0  -0.247265  0  3.635336  0  0  -0.35095  -0.216522  0  3.606631  0
N  N30  1  0.46640970  0.85709664  0.30514143  1  0  -0.494409  0  3.029705  0  0  -0.433365  0  3.3435  0  0  -0.452263  0  3.348479  0  0  -0.411214  -0.420482  0  3.338593  0
N  N31  1  0.53355656  0.14290089  0.69486325  1  0  -0.494475  0  3.029009  0  0  -0.433466  0  3.342877  0  0  -0.45237  0  3.347857  0  0  -0.41131  -0.420582  0  3.337979  0
