# generated using pymatgen
data_ZnH18C26N4O5
_symmetry_space_group_name_H-M   'P 1'
_cell_length_a   8.63214073
_cell_length_b   11.00624505
_cell_length_c   14.34338495
_cell_angle_alpha   111.76136278
_cell_angle_beta   100.44832921
_cell_angle_gamma   98.38147714
_symmetry_Int_Tables_number   1
_chemical_formula_structural   ZnH18C26N4O5
_chemical_formula_sum   'Zn2 H36 C52 N8 O10'
_cell_volume   1210.31163012
_cell_formula_units_Z   2
loop_
 _symmetry_equiv_pos_site_id
 _symmetry_equiv_pos_as_xyz
  1  'x, y, z'
loop_
 _atom_site_type_symbol
 _atom_site_label
 _atom_site_symmetry_multiplicity
 _atom_site_fract_x
 _atom_site_fract_y
 _atom_site_fract_z
 _atom_site_occupancy
 _atom_site_hle17_bader_spin_density
 _atom_site_hle17_ddec_charge
 _atom_site_hle17_ddec_spin_density
 _atom_site_hle17_ddec_sum_bond_order
 _atom_site_hle17_magmom
 _atom_site_hse06_10hf_bader_spin_density
 _atom_site_hse06_10hf_ddec_charge
 _atom_site_hse06_10hf_ddec_spin_density
 _atom_site_hse06_10hf_ddec_sum_bond_order
 _atom_site_hse06_10hf_magmom
 _atom_site_hse06_bader_spin_density
 _atom_site_hse06_ddec_charge
 _atom_site_hse06_ddec_spin_density
 _atom_site_hse06_ddec_sum_bond_order
 _atom_site_hse06_magmom
 _atom_site_pbe_bader_spin_density
 _atom_site_pbe_cm5_charge
 _atom_site_pbe_ddec_charge
 _atom_site_pbe_ddec_spin_density
 _atom_site_pbe_ddec_sum_bond_order
 _atom_site_pbe_magmom
Zn  Zn0  1  0.13662947  0.77801602  0.87964323  1  0  1.007118  0  1.879303  0  0  0.816722  0  2.357967  0  0  0.863002  0  2.302259  0  0  0.697713  0.784475  0  2.396218  0
Zn  Zn1  1  0.86337258  0.22198228  0.12035785  1  0  1.007086  0  1.879359  0  0  0.816734  0  2.35804  0  0  0.863011  0  2.302333  0  0  0.697716  0.784483  0  2.396293  0
H  H2  1  0.16468020  0.47008302  0.49942782  1  0  0.115959  0  0.952936  0  0  0.122836  0  1.017385  0  0  0.127204  0  1.013006  0  0  0.104616  0.119582  0  1.020727  0
H  H3  1  0.83532328  0.52991631  0.50057231  1  0  0.115991  0  0.952843  0  0  0.122854  0  1.017305  0  0  0.127222  0  1.012926  0  0  0.104627  0.1196  0  1.020648  0
H  H4  1  0.33684006  0.32585029  0.41131225  1  0  0.107784  0  0.955397  0  0  0.119271  0  1.013793  0  0  0.122036  0  1.014004  0  0  0.102869  0.117259  0  1.013868  0
H  H5  1  0.66316220  0.67415305  0.58868962  1  0  0.107862  0  0.95542  0  0  0.119333  0  1.013823  0  0  0.122099  0  1.01403  0  0  0.102896  0.117297  0  1.013922  0
H  H6  1  0.54533631  0.29728495  0.69695770  1  0  0.115796  0  0.939643  0  0  0.126894  0  0.997488  0  0  0.130365  0  0.996121  0  0  0.104581  0.124391  0  0.998595  0
H  H7  1  0.45466213  0.70271339  0.30303953  1  0  0.115805  0  0.939607  0  0  0.126916  0  0.997445  0  0  0.130386  0  0.996079  0  0  0.104584  0.124413  0  0.998554  0
H  H8  1  0.37721314  0.44825452  0.78636023  1  0  0.085951  0  0.985454  0  0  0.094283  0  1.051721  0  0  0.096736  0  1.05093  0  0  0.095309  0.092539  0  1.052242  0
H  H9  1  0.62278706  0.55174582  0.21363847  1  0  0.085986  0  0.985463  0  0  0.094321  0  1.051726  0  0  0.096774  0  1.050935  0  0  0.095338  0.092575  0  1.052249  0
H  H10  1  0.65042653  0.23186707  0.34097996  1  0  0.117031  0  0.95016  0  0  0.126675  0  1.012014  0  0  0.129425  0  1.011451  0  0  0.106532  0.124706  0  1.01253  0
H  H11  1  0.34956714  0.76813131  0.65901332  1  0  0.117005  0  0.950082  0  0  0.126635  0  1.011961  0  0  0.129384  0  1.011394  0  0  0.106531  0.124667  0  1.012478  0
H  H12  1  0.51934537  0.06356577  0.15682320  1  0  0.099102  0  0.949788  0  0  0.109443  0  1.011369  0  0  0.112563  0  1.009204  0  0  0.104144  0.107198  0  1.012916  0
H  H13  1  0.48064507  0.93643359  0.84317142  1  0  0.09885  0  0.949863  0  0  0.109274  0  1.011386  0  0  0.112392  0  1.009227  0  0  0.104081  0.107029  0  1.012939  0
H  H14  1  0.18962329  0.85058385  0.26491365  1  0  0.09548  0  0.955679  0  0  0.102976  0  1.020836  0  0  0.106949  0  1.017166  0  0  0.099933  0.100194  0  1.023312  0
H  H15  1  0.81037873  0.14941447  0.73508603  1  0  0.095509  0  0.955595  0  0  0.103004  0  1.020753  0  0  0.106977  0  1.017082  0  0  0.099929  0.100221  0  1.023229  0
H  H16  1  0.31624505  0.01990961  0.44898009  1  0  0.114135  0  0.948568  0  0  0.123413  0  1.010123  0  0  0.126443  0  1.010036  0  0  0.103577  0.121264  0  1.010328  0
H  H17  1  0.68375986  0.98009074  0.55101909  1  0  0.114198  0  0.948422  0  0  0.123457  0  1.010006  0  0  0.126487  0  1.009918  0  0  0.103602  0.121308  0  1.010212  0
H  H18  1  0.02003907  0.78257659  0.65831473  1  0  0.114094  0  0.970878  0  0  0.119839  0  1.038956  0  0  0.122884  0  1.035115  0  0  0.140211  0.117614  0  1.041676  0
H  H19  1  0.97996452  0.21741868  0.34168700  1  0  0.114098  0  0.970841  0  0  0.119852  0  1.038902  0  0  0.122899  0  1.035058  0  0  0.14022  0.117625  0  1.041622  0
H  H20  1  0.25575025  0.10212322  0.94662859  1  0  0.109313  0  0.965127  0  0  0.115807  0  1.029182  0  0  0.118171  0  1.02895  0  0  0.119837  0.114143  0  1.029367  0
H  H21  1  0.74424234  0.89787907  0.05337408  1  0  0.109236  0  0.965203  0  0  0.115743  0  1.029245  0  0  0.118106  0  1.029014  0  0  0.119824  0.114081  0  1.029429  0
H  H22  1  0.21675601  0.20596755  0.79581862  1  0  0.119198  0  0.950033  0  0  0.130019  0  1.008469  0  0  0.132519  0  1.007694  0  0  0.127646  0.128297  0  1.008987  0
H  H23  1  0.78323340  0.79402772  0.20417959  1  0  0.119211  0  0.950167  0  0  0.130038  0  1.008578  0  0  0.132533  0  1.007804  0  0  0.127676  0.128316  0  1.009096  0
H  H24  1  0.04162470  0.20866705  0.65880307  1  0  0.110186  0  0.936981  0  0  0.124473  0  0.989155  0  0  0.12697  0  0.988283  0  0  0.114999  0.122727  0  0.989751  0
H  H25  1  0.95837420  0.79132420  0.34119563  1  0  0.110206  0  0.936888  0  0  0.124469  0  0.989097  0  0  0.126965  0  0.988224  0  0  0.115011  0.122723  0  0.989694  0
H  H26  1  0.05388264  0.78962023  0.51203933  1  0  0.121607  0  0.930734  0  0  0.134337  0  0.984523  0  0  0.136864  0  0.983671  0  0  0.119056  0.132479  0  0.985282  0
H  H27  1  0.94612037  0.21037304  0.48796107  1  0  0.121636  0  0.930871  0  0  0.134416  0  0.984574  0  0  0.136946  0  0.983716  0  0  0.119053  0.132558  0  0.985333  0
H  H28  1  0.92579365  0.61178188  0.97287228  1  0  0.119248  0  0.938935  0  0  0.129518  0  0.996808  0  0  0.132759  0  0.99235  0  0  0.143574  0.127124  0  0.999947  0
H  H29  1  0.07420392  0.38822144  0.02713051  1  0  0.119201  0  0.938906  0  0  0.129456  0  0.996803  0  0  0.132697  0  0.992345  0  0  0.143561  0.127062  0  0.999943  0
H  H30  1  0.78570283  0.82475377  0.79343049  1  0  0.103016  0  0.967894  0  0  0.110927  0  1.030564  0  0  0.112541  0  1.031553  0  0  0.116507  0.109675  0  1.030105  0
H  H31  1  0.21430179  0.17524558  0.20656767  1  0  0.103004  0  0.967828  0  0  0.110935  0  1.030478  0  0  0.112549  0  1.031467  0  0  0.116499  0.109681  0  1.030024  0
H  H32  1  0.51090044  0.71146144  0.83769929  1  0  0.129707  0  0.974058  0  0  0.135043  0  1.040443  0  0  0.138324  0  1.038652  0  0  0.124951  0.132619  0  1.041888  0
H  H33  1  0.48910325  0.28854292  0.16230164  1  0  0.129791  0  0.974015  0  0  0.135134  0  1.040386  0  0  0.138411  0  1.038593  0  0  0.125022  0.132719  0  1.0418  0
H  H34  1  0.71857970  0.40623132  0.92720367  1  0  0.124551  0  0.978733  0  0  0.132693  0  1.04069  0  0  0.136356  0  1.03835  0  0  0.109252  0.130088  0  1.042356  0
H  H35  1  0.28142345  0.59377500  0.07280195  1  0  0.124507  0  0.978777  0  0  0.132658  0  1.040724  0  0  0.136321  0  1.038383  0  0  0.109241  0.130052  0  1.042391  0
H  H36  1  0.44674239  0.71507902  0.99721987  1  0  0.116444  0  0.960846  0  0  0.126468  0  1.021831  0  0  0.129356  0  1.020444  0  0  0.112024  0.124223  0  1.023159  0
H  H37  1  0.55325832  0.28493134  0.00278529  1  0  0.116383  0  0.960885  0  0  0.126429  0  1.021856  0  0  0.129309  0  1.020473  0  0  0.112041  0.124181  0  1.023185  0
C  C38  1  0.17238493  0.56956684  0.70446882  1  0  0.628527  0  3.948282  0  0  0.581864  0  4.240935  0  0  0.6161  0  4.233287  0  0  0.193509  0.558724  0  4.245284  0
C  C39  1  0.82761474  0.43043146  0.29553131  1  0  0.62867  0  3.948144  0  0  0.582038  0  4.240756  0  0  0.616275  0  4.233106  0  0  0.19354  0.558897  0  4.245109  0
C  C40  1  0.26251309  0.47047259  0.64941206  1  0  -0.094346  0  3.784404  0  0  -0.073371  0  4.020931  0  0  -0.08365  0  4.045651  0  0  -0.034015  -0.066847  0  4.004294  0
C  C41  1  0.73748949  0.52952774  0.35058827  1  0  -0.09435  0  3.784396  0  0  -0.073388  0  4.020928  0  0  -0.08367  0  4.045649  0  0  -0.034041  -0.066864  0  4.004291  0
C  C42  1  0.24862695  0.43301789  0.54291577  1  0  -0.050356  0  3.7319  0  0  -0.072535  0  3.97905  0  0  -0.070219  0  3.998005  0  0  -0.083635  -0.073688  0  3.966173  0
C  C43  1  0.75137444  0.56698244  0.45708374  1  0  -0.050393  0  3.731887  0  0  -0.072559  0  3.979034  0  0  -0.070242  0  3.997989  0  0  -0.083604  -0.073713  0  3.966152  0
C  C44  1  0.34348950  0.35115048  0.49320151  1  0  -0.192942  0  3.755012  0  0  -0.211193  0  4.004102  0  0  -0.218377  0  4.025912  0  0  -0.103621  -0.206458  0  3.989446  0
C  C45  1  0.65651627  0.64885288  0.50679934  1  0  -0.193071  0  3.755164  0  0  -0.211298  0  4.004202  0  0  -0.218485  0  4.026014  0  0  -0.103692  -0.206542  0  3.989558  0
C  C46  1  0.45183563  0.30494963  0.54992791  1  0  0.285174  0  3.788241  0  0  0.276987  0  4.047867  0  0  0.288662  0  4.062712  0  0  0.086202  0.269139  0  4.037651  0
C  C47  1  0.54816459  0.69505070  0.45007218  1  0  0.285192  0  3.788276  0  0  0.277046  0  4.047845  0  0  0.288702  0  4.062692  0  0  0.086202  0.269196  0  4.037625  0
C  C48  1  0.46306648  0.33726313  0.65515775  1  0  -0.186923  0  3.748391  0  0  -0.20794  0  4.001713  0  0  -0.213729  0  4.020112  0  0  -0.106914  -0.20404  0  3.989219  0
C  C49  1  0.53693836  0.66274125  0.34484191  1  0  -0.186911  0  3.748312  0  0  -0.207951  0  4.001615  0  0  -0.213742  0  4.020022  0  0  -0.106896  -0.204051  0  3.989123  0
C  C50  1  0.36896114  0.42046296  0.70412311  1  0  -0.063415  0  3.787644  0  0  -0.08808  0  4.043311  0  0  -0.085662  0  4.063368  0  0  -0.093872  -0.089483  0  4.029528  0
C  C51  1  0.63103761  0.57953637  0.29587584  1  0  -0.063494  0  3.787542  0  0  -0.088151  0  4.043229  0  0  -0.085733  0  4.063286  0  0  -0.093905  -0.089555  0  4.029444  0
C  C52  1  0.48823077  0.13486988  0.40352971  1  0  0.270489  0  3.804162  0  0  0.264079  0  4.063771  0  0  0.274788  0  4.078799  0  0  0.082314  0.25694  0  4.053336  0
C  C53  1  0.51176915  0.86512945  0.59646866  1  0  0.270453  0  3.804086  0  0  0.264026  0  4.063731  0  0  0.274716  0  4.078762  0  0  0.08231  0.256887  0  4.053296  0
C  C54  1  0.55032528  0.14735085  0.32332064  1  0  -0.184008  0  3.727392  0  0  -0.206217  0  3.982369  0  0  -0.211923  0  4.002206  0  0  -0.102968  -0.202441  0  3.968849  0
C  C55  1  0.44967135  0.85264951  0.67667560  1  0  -0.184035  0  3.727232  0  0  -0.206231  0  3.982262  0  0  -0.211933  0  4.002099  0  0  -0.103022  -0.202453  0  3.968743  0
C  C56  1  0.47754837  0.05400659  0.22152435  1  0  -0.049401  0  3.752866  0  0  -0.072442  0  4.002985  0  0  -0.070621  0  4.02394  0  0  -0.083681  -0.07334  0  3.988617  0
C  C57  1  0.52244527  0.94599580  0.77847148  1  0  -0.049024  0  3.75265  0  0  -0.072106  0  4.002728  0  0  -0.070282  0  4.023674  0  0  -0.08353  -0.073003  0  3.988352  0
C  C58  1  0.34550003  0.94874818  0.20039371  1  0  -0.091985  0  3.782016  0  0  -0.069251  0  4.013218  0  0  -0.079256  0  4.037933  0  0  -0.029206  -0.062922  0  3.996781  0
C  C59  1  0.65450018  0.05125216  0.79960568  1  0  -0.092013  0  3.782017  0  0  -0.069286  0  4.013243  0  0  -0.079293  0  4.037961  0  0  -0.029225  -0.062954  0  3.996804  0
C  C60  1  0.29045681  0.93464805  0.28287399  1  0  -0.055365  0  3.766298  0  0  -0.078496  0  4.016721  0  0  -0.076426  0  4.035837  0  0  -0.088815  -0.079487  0  4.00361  0
C  C61  1  0.70954224  0.06535227  0.71712598  1  0  -0.055525  0  3.766341  0  0  -0.078663  0  4.016768  0  0  -0.076593  0  4.035884  0  0  -0.088849  -0.079653  0  4.003656  0
C  C62  1  0.36031240  0.02781835  0.38440666  1  0  -0.184481  0  3.76469  0  0  -0.20747  0  4.020928  0  0  -0.213295  0  4.040832  0  0  -0.103474  -0.203687  0  4.007485  0
C  C63  1  0.63968661  0.97218200  0.61559122  1  0  -0.184448  0  3.764562  0  0  -0.207404  0  4.02079  0  0  -0.213231  0  4.040701  0  0  -0.103472  -0.203621  0  4.007347  0
C  C64  1  0.25620260  0.85359498  0.09161017  1  0  0.632288  0  3.938374  0  0  0.585632  0  4.229079  0  0  0.619789  0  4.221897  0  0  0.19633  0.562464  0  4.233345  0
C  C65  1  0.74379853  0.14640434  0.90839042  1  0  0.632293  0  3.938309  0  0  0.585625  0  4.229039  0  0  0.619782  0  4.221858  0  0  0.196342  0.562455  0  4.233301  0
C  C66  1  0.07744458  0.88395241  0.71568943  1  0  0.164768  0  3.63184  0  0  0.101982  0  3.898927  0  0  0.116114  0  3.910577  0  0  0.148907  0.092881  0  3.890662  0
C  C67  1  0.92255568  0.11604391  0.28430879  1  0  0.164694  0  3.631856  0  0  0.10194  0  3.89894  0  0  0.116069  0  3.910594  0  0  0.148895  0.092841  0  3.89067  0
C  C68  1  0.19939571  0.05283546  0.86395310  1  0  0.025081  0  3.710067  0  0  -0.008596  0  3.975064  0  0  -0.006758  0  3.995057  0  0  0.008575  -0.009816  0  3.961578  0
C  C69  1  0.80059782  0.94716181  0.13604751  1  0  0.025174  0  3.710001  0  0  -0.008488  0  3.975003  0  0  -0.006648  0  3.994994  0  0  0.008578  -0.00971  0  3.96152  0
C  C70  1  0.17980617  0.10484023  0.79045637  1  0  -0.052528  0  3.643145  0  0  -0.095248  0  3.905097  0  0  -0.09428  0  3.924118  0  0  0.006798  -0.095929  0  3.892331  0
C  C71  1  0.82018500  0.89515704  0.20954399  1  0  -0.052569  0  3.643218  0  0  -0.095289  0  3.905168  0  0  -0.094316  0  3.924181  0  0  0.00681  -0.09597  0  3.892404  0
C  C72  1  0.02505688  0.11727087  0.58951839  1  0  -0.122556  0  3.737763  0  0  -0.144347  0  3.992306  0  0  -0.147222  0  4.013  0  0  -0.080092  -0.142402  0  3.978275  0
C  C73  1  0.97494313  0.88272442  0.41048090  1  0  -0.122658  0  3.737558  0  0  -0.144388  0  3.992123  0  0  -0.14726  0  4.012815  0  0  -0.080106  -0.142443  0  3.978093  0
C  C74  1  0.05352385  0.99911832  0.59730704  1  0  0.17269  0  3.780134  0  0  0.163342  0  4.030461  0  0  0.168201  0  4.053218  0  0  0.099956  0.160047  0  4.015094  0
C  C75  1  0.94647560  0.00087496  0.40269160  1  0  0.172883  0  3.780013  0  0  0.163425  0  4.030462  0  0  0.168281  0  4.053223  0  0  0.100048  0.160131  0  4.015094  0
C  C76  1  0.02912976  0.88176276  0.50750546  1  0  -0.121695  0  3.720529  0  0  -0.144107  0  3.975176  0  0  -0.146948  0  3.995949  0  0  -0.078251  -0.142149  0  3.961198  0
C  C77  1  0.97087325  0.11823050  0.49249494  1  0  -0.121898  0  3.72085  0  0  -0.144306  0  3.9755  0  0  -0.147149  0  3.996276  0  0  -0.078293  -0.142347  0  3.96152  0
C  C78  1  0.85080458  0.64994273  0.92636674  1  0  0.179243  0  3.633119  0  0  0.115952  0  3.893809  0  0  0.130716  0  3.904593  0  0  0.150147  0.106655  0  3.88588  0
C  C79  1  0.14919415  0.35006059  0.07363547  1  0  0.179408  0  3.632935  0  0  0.11616  0  3.893622  0  0  0.130924  0  3.904406  0  0  0.150203  0.106861  0  3.885694  0
C  C80  1  0.77341691  0.76244635  0.83615087  1  0  0.0092  0  3.730279  0  0  -0.024952  0  3.993755  0  0  -0.022938  0  4.013733  0  0  0.001456  -0.026305  0  3.980433  0
C  C81  1  0.22658591  0.23755501  0.16384769  1  0  0.009351  0  3.730179  0  0  -0.024803  0  3.993634  0  0  -0.02279  0  4.013612  0  0  0.001492  -0.026159  0  3.980316  0
C  C82  1  0.63773069  0.71017723  0.85842256  1  0  -0.053332  0  3.63732  0  0  -0.092689  0  3.897388  0  0  -0.091878  0  3.915884  0  0  0.006556  -0.093341  0  3.885161  0
C  C83  1  0.36226979  0.28982412  0.14157646  1  0  -0.053564  0  3.637439  0  0  -0.092907  0  3.897505  0  0  -0.09209  0  3.915997  0  0  0.006469  -0.093555  0  3.88528  0
C  C84  1  0.59302318  0.56888858  0.95854252  1  0  0.162536  0  3.804284  0  0  0.154684  0  4.052296  0  0  0.158909  0  4.075426  0  0  0.092812  0.151742  0  4.036743  0
C  C85  1  0.40697727  0.43111677  0.04145906  1  0  0.162548  0  3.804227  0  0  0.154709  0  4.052267  0  0  0.158937  0  4.07539  0  0  0.092806  0.151769  0  4.03671  0
C  C86  1  0.62401076  0.44839871  0.95970871  1  0  -0.139594  0  3.729109  0  0  -0.159377  0  3.976901  0  0  -0.163291  0  3.997698  0  0  -0.088857  -0.156789  0  3.963068  0
C  C87  1  0.37599147  0.55160863  0.04029573  1  0  -0.139479  0  3.729009  0  0  -0.159275  0  3.976785  0  0  -0.16319  0  3.997583  0  0  -0.088833  -0.156687  0  3.962952  0
C  C88  1  0.46961502  0.62103703  0.99847611  1  0  -0.115862  0  3.725388  0  0  -0.137087  0  3.977456  0  0  -0.139016  0  3.99688  0  0  -0.083402  -0.135752  0  3.964609  0
C  C89  1  0.53039069  0.37897433  0.00153056  1  0  -0.115769  0  3.725502  0  0  -0.137028  0  3.977586  0  0  -0.13895  0  3.997013  0  0  -0.083466  -0.135692  0  3.964734  0
N  N90  1  0.13553127  0.91544278  0.81618069  1  0  -0.373415  0  3.293875  0  0  -0.290103  0  3.58645  0  0  -0.309744  0  3.598205  0  0  -0.352736  -0.276799  0  3.578217  0
N  N91  1  0.86446548  0.08455352  0.18381786  1  0  -0.37324  0  3.293722  0  0  -0.289993  0  3.586346  0  0  -0.309637  0  3.598106  0  0  -0.352693  -0.276688  0  3.578112  0
N  N92  1  0.10255171  0.99653667  0.69639680  1  0  -0.086517  0  3.608669  0  0  0.002062  0  3.821865  0  0  -0.013049  0  3.848441  0  0  -0.220548  0.012057  0  3.803775  0
N  N93  1  0.89744767  0.00346064  0.30360232  1  0  -0.086642  0  3.608573  0  0  0.00196  0  3.821801  0  0  -0.01315  0  3.848375  0  0  -0.220649  0.011954  0  3.803713  0
N  N94  1  0.90476890  0.72474149  0.87933979  1  0  -0.376384  0  3.332602  0  0  -0.293322  0  3.632216  0  0  -0.312908  0  3.642469  0  0  -0.355588  -0.280093  0  3.624943  0
N  N95  1  0.09523252  0.27525883  0.12066111  1  0  -0.376546  0  3.33266  0  0  -0.293519  0  3.632309  0  0  -0.313105  0  3.642561  0  0  -0.355632  -0.28029  0  3.625038  0
N  N96  1  0.68908014  0.63877020  0.91543277  1  0  -0.091677  0  3.618843  0  0  -0.001404  0  3.830461  0  0  -0.016421  0  3.856693  0  0  -0.225259  0.008585  0  3.812523  0
N  N97  1  0.31092004  0.36123414  0.08456918  1  0  -0.091672  0  3.618855  0  0  -0.001436  0  3.83049  0  0  -0.016456  0  3.85672  0  0  -0.22529  0.008549  0  3.812551  0
O  O98  1  0.55553416  0.23004046  0.50492397  1  0  -0.308348  0  2.296729  0  0  -0.244759  0  2.516498  0  0  -0.260712  0  2.515695  0  0  -0.166078  -0.233334  0  2.516544  0
O  O99  1  0.44446747  0.76996091  0.49507378  1  0  -0.308282  0  2.296637  0  0  -0.244731  0  2.516417  0  0  -0.260636  0  2.515589  0  0  -0.166041  -0.233305  0  2.516463  0
O  O100  1  0.05215560  0.59113973  0.65521872  1  0  -0.612396  0  1.917618  0  0  -0.570452  0  2.137453  0  0  -0.592447  0  2.127351  0  0  -0.32756  -0.555269  0  2.143945  0
O  O101  1  0.94784697  0.40886061  0.34478092  1  0  -0.612447  0  1.917495  0  0  -0.57052  0  2.13733  0  0  -0.592511  0  2.127221  0  0  -0.327569  -0.555337  0  2.143825  0
O  O102  1  0.23433399  0.63272415  0.80494208  1  0  -0.668548  0  2.057192  0  0  -0.591185  0  2.332864  0  0  -0.619914  0  2.31659  0  0  -0.342788  -0.570949  0  2.343199  0
O  O103  1  0.76566723  0.36727112  0.19505872  1  0  -0.668603  0  2.057187  0  0  -0.591292  0  2.3329  0  0  -0.620013  0  2.316605  0  0  -0.34282  -0.571059  0  2.343236  0
O  O104  1  0.28712792  0.88858104  0.01837017  1  0  -0.651114  0  2.008251  0  0  -0.578306  0  2.275874  0  0  -0.605984  0  2.259532  0  0  -0.341926  -0.558977  0  2.28649  0
O  O105  1  0.71287178  0.11141725  0.98163136  1  0  -0.651149  0  2.008191  0  0  -0.578362  0  2.275837  0  0  -0.606038  0  2.259495  0  0  -0.341975  -0.559032  0  2.286452  0
O  O106  1  0.15755766  0.74851635  0.07654398  1  0  -0.628509  0  1.950116  0  0  -0.585281  0  2.175233  0  0  -0.608073  0  2.16523  0  0  -0.327584  -0.569519  0  2.181541  0
O  O107  1  0.84244196  0.25148597  0.92345733  1  0  -0.628471  0  1.950071  0  0  -0.585222  0  2.175168  0  0  -0.608018  0  2.165173  0  0  -0.327569  -0.569462  0  2.181476  0
