# generated using pymatgen
data_Dy2CuH20C32(NO7)4
_symmetry_space_group_name_H-M   'P 1'
_cell_length_a   10.18489726
_cell_length_b   10.77743903
_cell_length_c   11.18646927
_cell_angle_alpha   88.15519464
_cell_angle_beta   76.12195174
_cell_angle_gamma   68.37514678
_symmetry_Int_Tables_number   1
_chemical_formula_structural   Dy2CuH20C32(NO7)4
_chemical_formula_sum   'Dy2 Cu1 H20 C32 N4 O28'
_cell_volume   1106.00981168
_cell_formula_units_Z   1
loop_
 _symmetry_equiv_pos_site_id
 _symmetry_equiv_pos_as_xyz
  1  'x, y, z'
loop_
 _atom_site_type_symbol
 _atom_site_label
 _atom_site_symmetry_multiplicity
 _atom_site_fract_x
 _atom_site_fract_y
 _atom_site_fract_z
 _atom_site_occupancy
 _atom_site_hle17_ddec_charge
 _atom_site_hle17_ddec_spin_density
 _atom_site_hle17_ddec_sum_bond_order
 _atom_site_hle17_magmom
 _atom_site_hse06_10hf_ddec_charge
 _atom_site_hse06_10hf_ddec_spin_density
 _atom_site_hse06_10hf_ddec_sum_bond_order
 _atom_site_hse06_10hf_magmom
 _atom_site_hse06_ddec_charge
 _atom_site_hse06_ddec_spin_density
 _atom_site_hse06_ddec_sum_bond_order
 _atom_site_hse06_magmom
 _atom_site_pbe_cm5_charge
 _atom_site_pbe_ddec_charge
 _atom_site_pbe_ddec_spin_density
 _atom_site_pbe_ddec_sum_bond_order
 _atom_site_pbe_magmom
Dy  Dy0  1  0.58488100  0.60222435  0.63421075  1  2.305182  0.000525  1.628856  0.001  2.237478  0.000498  1.967059  0.001  2.28274  0.000369  1.924224  0.001  1.519928  2.132765  0.000618  2.130983  0.001
Dy  Dy1  1  0.41512474  0.39776126  0.36578481  1  2.305249  0.000524  1.628747  0.001  2.237539  0.000495  1.966941  0.001  2.282791  0.000369  1.92411  0.0  1.52002  2.132794  0.000618  2.130954  0.001
Cu  Cu2  1  0.99999663  0.49999767  0.50000524  1  0.995085  0.697577  1.688851  0.521  0.991532  0.786953  2.071431  0.638  1.079803  0.848475  2.004265  0.721  0.748112  0.927305  0.743563  2.130124  0.585
H  H3  1  0.36718823  0.98019487  0.46392448  1  0.130938  -5.5e-05  0.91256  0.0  0.140404  -6e-06  0.9698  0.0  0.144719  -4e-06  0.965943  0.0  0.122375  0.136757  -7e-06  0.97365  0.0
H  H4  1  0.63283882  0.01979741  0.53602815  1  0.131044  -5.6e-05  0.912473  0.0  0.14038  -6e-06  0.96986  0.0  0.144688  -3e-06  0.966014  0.0  0.12247  0.13675  -7e-06  0.973709  0.0
H  H5  1  0.97269104  0.17127160  0.34193989  1  0.127902  0.000221  0.943434  0.0  0.134168  0.000185  1.009036  0.0  0.138196  0.000125  1.00505  0.0  0.119365  0.130959  0.000223  1.012504  0.0
H  H6  1  0.02730324  0.82872033  0.65805965  1  0.127953  0.000225  0.94331  0.0  0.134143  0.000185  1.008982  0.0  0.138161  0.000126  1.005019  0.0  0.119359  0.130936  0.000223  1.012446  0.0
H  H7  1  0.16721330  0.74120891  0.33090894  1  0.132409  -8e-06  0.950365  0.0  0.136177  5e-06  1.019569  0.0  0.140234  2e-06  1.015771  0.0  0.120817  0.133226  -8e-06  1.022182  0.0
H  H8  1  0.83282203  0.25878020  0.66904292  1  0.132348  6e-06  0.950351  0.0  0.136122  4e-06  1.019563  0.0  0.140178  3e-06  1.015767  0.0  0.120841  0.133171  -8e-06  1.022173  0.0
H  H9  1  0.67653349  0.47143208  0.94597719  1  0.140787  -2e-06  0.925738  0.0  0.146143  -5e-06  0.99081  0.0  0.15094  -3e-06  0.985982  0.0  0.123084  0.142383  -2e-06  0.994886  0.0
H  H10  1  0.32346585  0.52858970  0.05402715  1  0.140862  -1.8e-05  0.92551  0.0  0.146197  -5e-06  0.990641  0.0  0.150995  -2e-06  0.985813  0.0  0.123157  0.142435  -2e-06  0.994717  0.0
H  H11  1  0.93909862  0.30517947  0.20467280  1  0.128689  -1e-06  0.948063  0.0  0.132099  -2.2e-05  1.018845  0.0  0.136667  -2.3e-05  1.013841  0.0  0.119172  0.128611  -1.6e-05  1.022883  0.0
H  H12  1  0.06087556  0.69483993  0.79535715  1  0.128682  -6e-06  0.948079  0.0  0.13207  -2.2e-05  1.018899  0.0  0.136636  -2.3e-05  1.013891  0.0  0.119172  0.128582  -1.6e-05  1.022939  0.0
H  H13  1  0.14582303  0.33869676  0.82786432  1  0.131977  0.000299  0.927995  0.0  0.13795  0.000273  0.990432  0.0  0.142691  0.00019  0.98534  0.0  0.122915  0.134375  0.000345  0.994362  0.0
H  H14  1  0.85416545  0.66132239  0.17216595  1  0.132026  0.000281  0.927992  0.0  0.13801  0.000272  0.990427  0.0  0.14275  0.000191  0.985336  0.0  0.123006  0.134439  0.000345  0.994361  0.0
H  H15  1  0.50870334  0.77045068  0.86658605  1  0.455196  2e-06  0.794066  0.0  0.432816  -0.0  0.850828  0.0  0.441781  -1e-06  0.837614  0.0  0.335617  0.426038  -0.0  0.860609  0.0
H  H16  1  0.49129206  0.22952110  0.13338332  1  0.455191  1e-06  0.794112  0.0  0.432836  -0.0  0.850782  0.0  0.441794  -1e-06  0.837583  0.0  0.335656  0.426058  -0.0  0.860562  0.0
H  H17  1  0.56888264  0.83981960  0.75309033  1  0.447926  -1.2e-05  0.815378  0.0  0.422575  -1.1e-05  0.877235  0.0  0.431887  -4e-06  0.86339  0.0  0.323695  0.415576  -1.6e-05  0.88741  0.0
H  H18  1  0.43113293  0.16015838  0.24689367  1  0.447798  -1.2e-05  0.815557  0.0  0.422434  -1.1e-05  0.877439  0.0  0.431748  -4e-06  0.86359  0.0  0.323613  0.415435  -1.6e-05  0.887616  0.0
H  H19  1  0.71869355  0.45881295  0.38410194  1  0.456223  3.3e-05  0.83778  0.0  0.42781  1.3e-05  0.8964  0.0  0.439059  1.4e-05  0.880039  0.0  0.305968  0.419492  1.1e-05  0.90824  0.0
H  H20  1  0.28130280  0.54119755  0.61589224  1  0.456199  3.2e-05  0.837847  0.0  0.427783  1.3e-05  0.896474  0.0  0.439033  1.4e-05  0.880111  0.0  0.305919  0.419464  1.1e-05  0.908314  0.0
H  H21  1  0.79842707  0.56103399  0.38340412  1  0.451997  -0.000304  0.833562  0.0  0.426496  -0.000197  0.886992  0.0  0.436571  -0.000224  0.872001  0.0  0.31347  0.418976  -0.000157  0.898024  0.0
H  H22  1  0.20159566  0.43896279  0.61658229  1  0.452152  -0.000303  0.833314  0.0  0.426562  -0.000197  0.886856  0.0  0.436627  -0.000224  0.871883  0.0  0.313521  0.419045  -0.000157  0.897882  0.0
C  C23  1  0.27858271  0.84822693  0.40028667  1  -0.060241  0.0007  3.699771  0.001  -0.032974  0.000333  3.932282  0.0  -0.044305  0.000226  3.955927  0.0  -0.004946  -0.026637  0.00051  3.918633  0.001
C  C24  1  0.72142408  0.15176698  0.59971791  1  -0.05995  0.000795  3.699606  0.001  -0.032832  0.000326  3.93216  0.0  -0.044136  0.000244  3.955816  0.0  -0.004935  -0.026485  0.00051  3.918494  0.001
C  C25  1  0.28151517  0.97410065  0.42462621  1  -0.031282  0.0005  3.622591  0.001  -0.076387  0.000749  3.874193  0.001  -0.071462  0.000353  3.891495  0.001  -0.057431  -0.079575  0.001105  3.864168  0.001
C  C26  1  0.71849273  0.02589226  0.57535582  1  -0.031397  0.00041  3.622376  0.001  -0.076401  0.000756  3.874095  0.001  -0.071475  0.000333  3.891394  0.001  -0.057516  -0.079615  0.001103  3.864094  0.001
C  C27  1  0.17269295  0.09058527  0.40253653  1  -0.056233  0.008302  3.730939  0.009  -0.031528  0.004711  3.97142  0.005  -0.042558  0.003363  3.993906  0.004  -0.010771  -0.024861  0.005786  3.957171  0.006
C  C28  1  0.82731675  0.90940530  0.59743809  1  -0.056235  0.008363  3.731248  0.009  -0.031594  0.004705  3.97166  0.005  -0.04262  0.003373  3.994145  0.004  -0.01085  -0.024945  0.005785  3.957435  0.006
C  C29  1  0.06107905  0.08168730  0.35519632  1  -0.078991  -0.000776  3.691529  -0.001  -0.120941  -9.7e-05  3.951011  0.0  -0.116158  -0.000236  3.967803  0.0  -0.065963  -0.123714  -1.7e-05  3.939833  0.0
C  C30  1  0.93892861  0.91830337  0.64477966  1  -0.078983  -0.000917  3.691672  -0.001  -0.12087  -8.3e-05  3.951051  0.0  -0.11609  -0.000262  3.967843  0.0  -0.06594  -0.123642  -1.8e-05  3.939877  0.0
C  C31  1  0.06324762  0.95636349  0.32715276  1  0.057277  3e-06  3.71876  0.0  0.054114  4e-05  3.978154  0.0  0.048399  4e-05  4.001974  0.0  0.075101  0.057604  -2.6e-05  3.96208  0.0
C  C32  1  0.93676572  0.04362021  0.67282509  1  0.057464  0.000136  3.718934  0.0  0.054488  3.1e-05  3.978013  0.0  0.048773  6.3e-05  4.001834  0.0  0.075285  0.057976  -2.6e-05  3.961937  0.0
C  C33  1  0.16957040  0.83859108  0.34965088  1  -0.064028  -4.3e-05  3.644112  0.0  -0.103208  8.7e-05  3.89598  0.0  -0.098239  -7.8e-05  3.912352  0.0  -0.058425  -0.1062  0.000201  3.88544  0.0
C  C34  1  0.83044715  0.16139795  0.65033726  1  -0.064089  -0.00023  3.644117  0.0  -0.103311  9.7e-05  3.896015  0.0  -0.098347  -0.000112  3.912392  0.0  -0.058475  -0.1063  0.000199  3.885456  0.0
C  C35  1  0.38719473  0.72447410  0.43664792  1  0.741174  0.000119  3.837255  0.0  0.697618  8.1e-05  4.123083  0.0  0.733801  5.3e-05  4.111513  0.0  0.243841  0.67206  0.000133  4.12653  0.0
C  C36  1  0.61281598  0.27552520  0.56334554  1  0.740682  0.000114  3.837516  0.0  0.697395  8.2e-05  4.122971  0.0  0.733513  5.4e-05  4.111487  0.0  0.243608  0.671838  0.000133  4.126402  0.0
C  C37  1  0.16916737  0.22750849  0.42929628  1  0.693005  -0.006931  3.860524  -0.007  0.646122  -0.001533  4.164054  -0.002  0.685499  -0.00197  4.15325  -0.002  0.226728  0.618955  -0.001128  4.168023  -0.002
C  C38  1  0.83083946  0.77248491  0.57069670  1  0.692606  -0.006934  3.861167  -0.007  0.645882  -0.001534  4.164442  -0.002  0.685255  -0.00197  4.153644  -0.002  0.226614  0.618737  -0.001127  4.16839  -0.002
C  C39  1  0.90944251  0.41308878  0.87404321  1  -0.072343  0.007319  3.727038  0.008  -0.048045  0.004696  3.967747  0.005  -0.061611  0.003498  3.992697  0.004  -0.01252  -0.039804  0.005594  3.952289  0.006
C  C40  1  0.09053677  0.58696008  0.12598262  1  -0.072217  0.007187  3.727406  0.008  -0.047936  0.00469  3.968109  0.005  -0.061502  0.0035  3.993063  0.004  -0.012454  -0.039686  0.005592  3.952633  0.006
C  C41  1  0.78334071  0.42878119  0.96634064  1  -0.017307  -0.001184  3.590181  0.0  -0.060772  -4.2e-05  3.838343  0.0  -0.054697  -0.000319  3.855107  0.0  -0.050141  -0.064518  0.000138  3.828066  0.001
C  C42  1  0.21663931  0.57124670  0.03368202  1  -0.017384  -0.00094  3.589984  0.0  -0.060884  -3.7e-05  3.838242  0.0  -0.054817  -0.000324  3.855019  0.0  -0.050238  -0.064627  0.000138  3.827951  0.001
C  C43  1  0.79360590  0.38973756  0.08557181  1  -0.046951  0.001055  3.705678  0.001  -0.019238  0.00039  3.940295  0.0  -0.031056  0.00035  3.964116  0.0  -0.005386  -0.012464  0.000495  3.925316  0.001
C  C44  1  0.20637991  0.61027192  0.91444007  1  -0.047011  0.00093  3.70579  0.001  -0.019226  0.00039  3.940389  0.0  -0.031042  0.000352  3.964211  0.0  -0.005369  -0.012455  0.000495  3.925406  0.001
C  C45  1  0.92997907  0.33445624  0.11232212  1  -0.054525  -0.002028  3.6427  -0.001  -0.097364  -0.000701  3.899862  0.0  -0.091329  -0.000785  3.915403  0.0  -0.056332  -0.101083  -0.000688  3.890069  0.0
C  C46  1  0.07001093  0.66553971  0.88769958  1  -0.054451  -0.00182  3.643009  -0.001  -0.097323  -0.0007  3.900221  0.0  -0.09128  -0.000786  3.915757  0.0  -0.056427  -0.101039  -0.000687  3.890422  0.0
C  C47  1  0.05432568  0.31688338  0.01805036  1  0.048746  0.000526  3.706726  0.001  0.048609  7.3e-05  3.962945  0.0  0.041666  0.000126  3.986969  0.0  0.076156  0.052856  3.4e-05  3.946649  0.0
C  C48  1  0.94566573  0.68311999  0.98198302  1  0.048384  0.000399  3.706976  0.001  0.048304  7.7e-05  3.963159  0.0  0.041356  0.000127  3.987183  0.0  0.07616  0.052552  3.4e-05  3.946862  0.0
C  C49  1  0.04672749  0.35483455  0.89925079  1  -0.055697  -0.001938  3.677227  -0.001  -0.099816  -0.000326  3.939144  0.0  -0.092963  -0.000512  3.954145  0.0  -0.058053  -0.103799  -0.000201  3.928972  0.0
C  C50  1  0.95324862  0.64518783  0.10078030  1  -0.055661  -0.001651  3.677699  -0.001  -0.099831  -0.000321  3.939664  0.0  -0.09297  -0.000513  3.954654  0.0  -0.058193  -0.103822  -0.0002  3.9295  0.0
C  C51  1  0.89810258  0.45827233  0.74786791  1  0.70739  -0.006615  3.850698  -0.007  0.657144  -0.00216  4.152684  -0.003  0.695717  -0.002663  4.142463  -0.003  0.231203  0.630485  -0.001612  4.15687  -0.003
C  C52  1  0.10189991  0.54172766  0.25213812  1  0.707174  -0.006628  3.85083  -0.007  0.656992  -0.002159  4.152708  -0.003  0.695564  -0.002662  4.14249  -0.003  0.23115  0.630329  -0.001611  4.156886  -0.003
C  C53  1  0.65851315  0.40384060  0.18314664  1  0.657446  7.8e-05  3.907847  0.0  0.610285  6.4e-05  4.199742  0.0  0.644325  4.2e-05  4.193536  0.0  0.205685  0.588146  0.000111  4.196158  0.0
C  C54  1  0.34147172  0.59615758  0.81685551  1  0.657595  9.5e-05  3.907383  0.0  0.610397  6.4e-05  4.19934  0.0  0.644437  4.3e-05  4.193133  0.0  0.205842  0.588257  0.000111  4.195757  0.0
N  N55  1  0.94633681  0.95059348  0.27434271  1  0.497305  2.9e-05  3.914174  0.0  0.528244  -2.6e-05  4.21069  0.0  0.54874  -2e-05  4.220198  0.0  0.058181  0.514441  -2e-06  4.204403  0.0
N  N56  1  0.05367630  0.04939636  0.72563923  1  0.496961  -1.3e-05  3.914904  0.0  0.527869  -2.9e-05  4.211418  0.0  0.548365  -2.2e-05  4.22093  0.0  0.057967  0.514063  -2e-06  4.205126  0.0
N  N57  1  0.19846628  0.25870382  0.04515801  1  0.500634  -2.6e-05  3.905796  0.0  0.529558  -1.5e-05  4.20203  0.0  0.550295  -4e-06  4.212261  0.0  0.058487  0.51571  1e-06  4.195153  0.0
N  N58  1  0.80151994  0.74132131  0.95487236  1  0.501304  -3.7e-05  3.905846  0.0  0.530244  -1.7e-05  4.202019  0.0  0.550983  -5e-06  4.212256  0.0  0.058879  0.516395  1e-06  4.195144  0.0
O  O59  1  0.39852399  0.61066974  0.39732205  1  -0.758112  0.00041  2.06298  0.001  -0.71886  0.000151  2.32211  0.0  -0.744925  8.7e-05  2.308685  0.0  -0.409299  -0.687861  0.000204  2.331901  0.0
O  O60  1  0.60149958  0.38933265  0.60265663  1  -0.757944  0.000411  2.062905  0.001  -0.718767  0.00015  2.321895  0.0  -0.744812  8.8e-05  2.308506  0.0  -0.409191  -0.687777  0.000204  2.33168  0.0
O  O61  1  0.45859116  0.74279834  0.50831012  1  -0.713603  7e-05  2.027668  0.0  -0.677242  3.1e-05  2.271795  0.0  -0.702299  2.9e-05  2.258888  0.0  -0.399685  -0.649295  9.3e-05  2.282836  0.0
O  O62  1  0.54141062  0.25719282  0.49169759  1  -0.713485  8.1e-05  2.027875  0.0  -0.677186  3e-05  2.271838  0.0  -0.702219  3.1e-05  2.258967  0.0  -0.399622  -0.649241  9.3e-05  2.282881  0.0
O  O63  1  0.28657796  0.24537494  0.42275090  1  -0.718023  -0.001422  2.028078  0.0  -0.678543  -0.00113  2.278601  0.0  -0.704682  -0.001736  2.265531  -0.001  -0.365771  -0.650798  -0.000579  2.288541  0.001
O  O64  1  0.71343621  0.75460407  0.57723335  1  -0.717862  -0.001408  2.028259  0.0  -0.678454  -0.00113  2.2787  0.0  -0.704589  -0.001736  2.265628  -0.001  -0.365735  -0.650716  -0.000577  2.28863  0.001
O  O65  1  0.04075426  0.31734220  0.45477213  1  -0.585535  0.081689  2.103598  0.113  -0.562889  0.050896  2.397625  0.077  -0.604601  0.038618  2.387031  0.063  -0.315165  -0.533168  0.059139  2.404196  0.085
O  O66  1  0.95924541  0.68264979  0.54525390  1  -0.58539  0.081682  2.103896  0.113  -0.562738  0.050891  2.397764  0.077  -0.604449  0.038616  2.387183  0.063  -0.315063  -0.533021  0.059132  2.404321  0.085
O  O67  1  0.88105387  0.04972935  0.22282748  1  -0.339413  -7.3e-05  1.714812  0.0  -0.329654  -2.8e-05  1.908112  0.0  -0.34048  -2.7e-05  1.90465  0.0  -0.126244  -0.322639  -1e-06  1.911054  0.0
O  O68  1  0.11894682  0.95026431  0.77716867  1  -0.339333  -8e-06  1.714912  0.0  -0.329553  -3.2e-05  1.908197  0.0  -0.340376  -2.2e-05  1.904738  0.0  -0.126198  -0.322537  -2e-06  1.911137  0.0
O  O69  1  0.91977603  0.84658415  0.28536315  1  -0.358176  -4.6e-05  1.780224  0.0  -0.341034  -3.9e-05  1.988769  0.0  -0.354901  -4.8e-05  1.986863  0.0  -0.126556  -0.331947  -6.2e-05  1.990415  0.0
O  O70  1  0.08023064  0.15340431  0.71463020  1  -0.358008  -7.5e-05  1.780537  0.0  -0.340958  -3.6e-05  1.989149  0.0  -0.354821  -5.5e-05  1.987244  0.0  -0.12652  -0.331873  -6.2e-05  1.990794  0.0
O  O71  1  0.01647361  0.44819672  0.66971566  1  -0.605322  0.073461  2.12037  0.102  -0.559946  0.052402  2.385819  0.079  -0.600567  0.040443  2.376359  0.066  -0.302845  -0.532386  0.060077  2.392962  0.085
O  O72  1  0.98352723  0.55179169  0.33029693  1  -0.605255  0.073475  2.120368  0.102  -0.559884  0.052407  2.385764  0.079  -0.600518  0.040445  2.376306  0.066  -0.302774  -0.532318  0.060083  2.392904  0.085
O  O73  1  0.77455108  0.50312897  0.72403188  1  -0.760657  -0.001819  2.11303  0.0  -0.733851  -0.001506  2.395753  0.0  -0.758693  -0.002107  2.379798  0.0  -0.403071  -0.703681  -0.000953  2.408287  0.001
O  O74  1  0.22544307  0.49686621  0.27597372  1  -0.760603  -0.001839  2.113183  0.0  -0.733818  -0.001507  2.395859  0.0  -0.758635  -0.00211  2.379859  0.0  -0.403119  -0.70365  -0.000954  2.408402  0.001
O  O75  1  0.53700803  0.43888560  0.15551888  1  -0.659687  6.2e-05  1.94574  0.0  -0.622313  9e-06  2.174394  0.0  -0.646309  1.8e-05  2.164701  0.0  -0.353257  -0.599001  1.6e-05  2.180869  0.0
O  O76  1  0.46297825  0.56110094  0.84449002  1  -0.659814  4.3e-05  1.945404  0.0  -0.622407  7e-06  2.174061  0.0  -0.646407  1.4e-05  2.164367  0.0  -0.353355  -0.599097  1.6e-05  2.180534  0.0
O  O77  1  0.66894418  0.37565789  0.29419829  1  -0.717241  0.000206  2.038459  0.0  -0.666886  0.000102  2.269761  0.0  -0.693603  6.5e-05  2.260208  0.0  -0.369269  -0.640684  0.000147  2.275499  0.0
O  O78  1  0.33103066  0.62433471  0.70580833  1  -0.71711  0.000201  2.038234  0.0  -0.666778  0.000102  2.26959  0.0  -0.693494  6.7e-05  2.260037  0.0  -0.369147  -0.640582  0.000147  2.275324  0.0
O  O79  1  0.20262177  0.22922158  0.15302971  1  -0.371018  3.5e-05  1.779286  0.0  -0.350588  -3.2e-05  1.990556  0.0  -0.365028  -1e-05  1.98866  0.0  -0.12353  -0.341064  -3.2e-05  1.992143  0.0
O  O80  1  0.79737673  0.77078416  0.84699294  1  -0.371331  3.1e-05  1.779406  0.0  -0.350933  -3.2e-05  1.9907  0.0  -0.365375  -1.3e-05  1.988806  0.0  -0.123696  -0.341406  -3.2e-05  1.99229  0.0
O  O81  1  0.30800134  0.24378515  0.96048050  1  -0.351034  -6e-06  1.694289  0.0  -0.33717  -1e-05  1.878737  0.0  -0.347955  -1.3e-05  1.875088  0.0  -0.13031  -0.329993  -2.7e-05  1.88158  0.0
O  O82  1  0.69197968  0.75626195  0.03955131  1  -0.351246  -4e-06  1.694229  0.0  -0.337384  -1.3e-05  1.878664  0.0  -0.348172  -9e-06  1.875023  0.0  -0.130505  -0.330203  -2.7e-05  1.881507  0.0
O  O83  1  0.50380722  0.79161533  0.78205795  1  -0.876293  -3.4e-05  1.845594  0.0  -0.841437  -4.7e-05  2.017385  0.0  -0.857616  -3.4e-05  1.987165  0.0  -0.61304  -0.820678  -4.6e-05  2.044703  0.0
O  O84  1  0.49618758  0.20838251  0.21791779  1  -0.876179  -3.2e-05  1.845808  0.0  -0.841314  -4.7e-05  2.01752  0.0  -0.857496  -3.5e-05  1.987311  0.0  -0.613018  -0.820546  -4.7e-05  2.044831  0.0
O  O85  1  0.73603246  0.52085590  0.43756935  1  -0.958095  -0.001192  1.918155  0.0  -0.930938  -0.001333  2.124326  0.0  -0.947826  -0.001414  2.086908  0.0  -0.657891  -0.907249  -0.001178  2.154165  0.0
O  O86  1  0.26397703  0.47914921  0.56242041  1  -0.958213  -0.001194  1.917904  0.0  -0.930986  -0.001331  2.124307  0.0  -0.947872  -0.001414  2.086893  0.0  -0.6579  -0.907293  -0.001178  2.154143  0.0
