# generated using pymatgen
data_CdH8C8S2(N2O)2
_symmetry_space_group_name_H-M   'P 1'
_cell_length_a   8.70113464
_cell_length_b   8.70115117
_cell_length_c   8.92138806
_cell_angle_alpha   96.74231119
_cell_angle_beta   96.74228934
_cell_angle_gamma   113.07047222
_symmetry_Int_Tables_number   1
_chemical_formula_structural   CdH8C8S2(N2O)2
_chemical_formula_sum   'Cd2 H16 C16 S4 N8 O4'
_cell_volume   607.17017277
_cell_formula_units_Z   2
loop_
 _symmetry_equiv_pos_site_id
 _symmetry_equiv_pos_as_xyz
  1  'x, y, z'
loop_
 _atom_site_type_symbol
 _atom_site_label
 _atom_site_symmetry_multiplicity
 _atom_site_fract_x
 _atom_site_fract_y
 _atom_site_fract_z
 _atom_site_occupancy
 _atom_site_hle17_bader_spin_density
 _atom_site_hle17_ddec_charge
 _atom_site_hle17_ddec_spin_density
 _atom_site_hle17_ddec_sum_bond_order
 _atom_site_hle17_magmom
 _atom_site_hse06_10hf_bader_spin_density
 _atom_site_hse06_10hf_ddec_charge
 _atom_site_hse06_10hf_ddec_spin_density
 _atom_site_hse06_10hf_ddec_sum_bond_order
 _atom_site_hse06_10hf_magmom
 _atom_site_hse06_bader_spin_density
 _atom_site_hse06_ddec_charge
 _atom_site_hse06_ddec_spin_density
 _atom_site_hse06_ddec_sum_bond_order
 _atom_site_hse06_magmom
 _atom_site_pbe_bader_spin_density
 _atom_site_pbe_cm5_charge
 _atom_site_pbe_ddec_charge
 _atom_site_pbe_ddec_spin_density
 _atom_site_pbe_ddec_sum_bond_order
 _atom_site_pbe_magmom
Cd  Cd0  1  0.22714182  0.77286613  0.75000467  1  0  1.031653  0  1.976443  0  0  0.865406  0  2.459601  0  0  0.911849  0  2.413114  0  0  0.720786  0.833003  0  2.491025  0
Cd  Cd1  1  0.77286312  0.22714222  0.24999995  1  0  1.03167  0  1.976403  0  0  0.865398  0  2.459577  0  0  0.911838  0  2.413096  0  0  0.720793  0.832996  0  2.490999  0
H  H2  1  0.02965648  0.85605587  0.10684402  1  0  0.119101  0  0.965067  0  0  0.121706  0  1.037114  0  0  0.125821  0  1.033637  0  0  0.121597  0.11868  0  1.039751  0
H  H3  1  0.14395966  0.97035940  0.39316327  1  0  0.118998  0  0.965046  0  0  0.121597  0  1.037129  0  0  0.1257  0  1.033676  0  0  0.121528  0.118571  0  1.039766  0
H  H4  1  0.97034756  0.14394744  0.89315540  1  0  0.119149  0  0.96505  0  0  0.121722  0  1.037131  0  0  0.125857  0  1.033643  0  0  0.121596  0.118696  0  1.039769  0
H  H5  1  0.85604542  0.02964646  0.60683658  1  0  0.119098  0  0.964988  0  0  0.121708  0  1.037065  0  0  0.12581  0  1.033612  0  0  0.121566  0.118681  0  1.039702  0
H  H6  1  0.24081468  0.39896831  0.10434876  1  0  0.130634  0  0.947104  0  0  0.146564  0  1.017946  0  0  0.148728  0  1.01702  0  0  0.094927  0.144965  0  1.018676  0
H  H7  1  0.60102211  0.75917374  0.39565543  1  0  0.130707  0  0.947115  0  0  0.146611  0  1.017978  0  0  0.148774  0  1.017052  0  0  0.094972  0.14501  0  1.018711  0
H  H8  1  0.75917834  0.60102228  0.89565121  1  0  0.130685  0  0.947153  0  0  0.146614  0  1.017981  0  0  0.148777  0  1.017055  0  0  0.094955  0.145015  0  1.018711  0
H  H9  1  0.39897014  0.24082064  0.60434602  1  0  0.130673  0  0.947107  0  0  0.146594  0  1.01797  0  0  0.148759  0  1.017043  0  0  0.094952  0.144997  0  1.018698  0
H  H10  1  0.45540889  0.54768628  0.12339853  1  0  0.129928  0  0.945387  0  0  0.152917  0  1.000357  0  0  0.153707  0  1.001538  0  0  0.099651  0.152274  0  0.999631  0
H  H11  1  0.45230707  0.54458538  0.37660667  1  0  0.129942  0  0.945441  0  0  0.152951  0  1.000388  0  0  0.153738  0  1.001572  0  0  0.09968  0.152308  0  0.999661  0
H  H12  1  0.54458916  0.45230811  0.87660361  1  0  0.129929  0  0.945414  0  0  0.152929  0  1.000368  0  0  0.153717  0  1.001549  0  0  0.099658  0.152286  0  0.999642  0
H  H13  1  0.54768918  0.45541028  0.62339540  1  0  0.129912  0  0.945434  0  0  0.152924  0  1.000376  0  0  0.15371  0  1.001561  0  0  0.099659  0.152279  0  0.99965  0
H  H14  1  0.30021726  0.52668652  0.96184483  1  0  0.137593  0  0.954889  0  0  0.152172  0  1.021588  0  0  0.155217  0  1.019429  0  0  0.099881  0.149984  0  1.023137  0
H  H15  1  0.47330455  0.69977127  0.53815448  1  0  0.137661  0  0.954916  0  0  0.152209  0  1.021643  0  0  0.155252  0  1.019475  0  0  0.099904  0.150022  0  1.023187  0
H  H16  1  0.69977915  0.47330664  0.03815136  1  0  0.137608  0  0.954897  0  0  0.15217  0  1.021605  0  0  0.155212  0  1.019443  0  0  0.099892  0.149982  0  1.023152  0
H  H17  1  0.52668669  0.30022061  0.46184318  1  0  0.137605  0  0.954812  0  0  0.152186  0  1.021522  0  0  0.155229  0  1.019359  0  0  0.099896  0.149997  0  1.023072  0
C  C18  1  0.11891671  0.82004223  0.17351408  1  0  -0.012569  0  3.632044  0  0  -0.057231  0  3.90544  0  0  -0.053095  0  3.915817  0  0  0.040996  -0.060075  0  3.898859  0
C  C19  1  0.17996908  0.88109109  0.32648946  1  0  -0.012344  0  3.632033  0  0  -0.056989  0  3.90539  0  0  -0.05285  0  3.915773  0  0  0.041047  -0.059833  0  3.898808  0
C  C20  1  0.88108294  0.17995601  0.82648310  1  0  -0.012582  0  3.631912  0  0  -0.057215  0  3.905326  0  0  -0.053106  0  3.915686  0  0  0.040986  -0.060058  0  3.898746  0
C  C21  1  0.82003393  0.11890970  0.67350842  1  0  -0.01241  0  3.631954  0  0  -0.057096  0  3.905379  0  0  -0.052957  0  3.915765  0  0  0.041022  -0.059939  0  3.898797  0
C  C22  1  0.27983248  0.65475836  0.17215920  1  0  0.142605  0  3.593818  0  0  0.136386  0  3.852072  0  0  0.142034  0  3.868074  0  0  0.126245  0.132506  0  3.841353  0
C  C23  1  0.34523962  0.72015970  0.32784976  1  0  0.142729  0  3.593789  0  0  0.136499  0  3.852046  0  0  0.142148  0  3.868042  0  0  0.126313  0.132616  0  3.84133  0
C  C24  1  0.72016197  0.34523856  0.82784392  1  0  0.142805  0  3.593911  0  0  0.136565  0  3.852174  0  0  0.142207  0  3.868171  0  0  0.126311  0.132682  0  3.841459  0
C  C25  1  0.65475959  0.27983470  0.67215140  1  0  0.14261  0  3.593912  0  0  0.136405  0  3.852167  0  0  0.142057  0  3.868162  0  0  0.126302  0.132524  0  3.841448  0
C  C26  1  0.39648456  0.13095679  0.02535879  1  0  0.312293  0  3.997127  0  0  0.29363  0  4.294978  0  0  0.314124  0  4.312414  0  0  0.150741  0.279606  0  4.282775  0
C  C27  1  0.86905718  0.60351316  0.47462562  1  0  0.312366  0  3.996819  0  0  0.29371  0  4.294668  0  0  0.314205  0  4.312101  0  0  0.150734  0.279685  0  4.282466  0
C  C28  1  0.60351470  0.86905167  0.97463060  1  0  0.31233  0  3.99695  0  0  0.29367  0  4.294808  0  0  0.314166  0  4.312239  0  0  0.150734  0.279646  0  4.282609  0
C  C29  1  0.13095006  0.39648383  0.52537231  1  0  0.312433  0  3.997145  0  0  0.293772  0  4.294985  0  0  0.314269  0  4.312417  0  0  0.150775  0.279749  0  4.282781  0
C  C30  1  0.32316129  0.52564273  0.08482121  1  0  -0.359428  0  3.71118  0  0  -0.442854  0  3.949522  0  0  -0.445833  0  3.956015  0  0  -0.239527  -0.440545  0  3.945089  0
C  C31  1  0.47435121  0.67682500  0.41518315  1  0  -0.3596  0  3.71122  0  0  -0.443006  0  3.949619  0  0  -0.44597  0  3.956097  0  0  -0.23964  -0.440697  0  3.945187  0
C  C32  1  0.67683317  0.47435420  0.91517968  1  0  -0.35955  0  3.71121  0  0  -0.442957  0  3.949604  0  0  -0.445927  0  3.956088  0  0  -0.239587  -0.44065  0  3.945173  0
C  C33  1  0.52564297  0.32316558  0.58481695  1  0  -0.359471  0  3.711082  0  0  -0.442913  0  3.949451  0  0  -0.445885  0  3.955934  0  0  -0.2396  -0.440606  0  3.945018  0
S  S34  1  0.24871717  0.08366534  0.87549240  1  0  -0.346491  0  2.161313  0  0  -0.304956  0  2.482663  0  0  -0.324422  0  2.476351  0  0  -0.134753  -0.29112  0  2.486587  0
S  S35  1  0.91634677  0.75129524  0.62451325  1  0  -0.346547  0  2.160819  0  0  -0.305011  0  2.482163  0  0  -0.324476  0  2.47584  0  0  -0.134766  -0.291173  0  2.486087  0
S  S36  1  0.75129183  0.91634171  0.12451815  1  0  -0.34652  0  2.160984  0  0  -0.304988  0  2.482331  0  0  -0.324458  0  2.47601  0  0  -0.134745  -0.29115  0  2.486257  0
S  S37  1  0.08366275  0.24872444  0.37550671  1  0  -0.346523  0  2.161311  0  0  -0.304966  0  2.482642  0  0  -0.324431  0  2.476321  0  0  -0.134756  -0.291131  0  2.486566  0
N  N38  1  0.16798622  0.70780157  0.09572262  1  0  0.255283  0  3.684448  0  0  0.297711  0  3.949629  0  0  0.300788  0  3.970191  0  0  -0.100707  0.295348  0  3.935863  0
N  N39  1  0.29220185  0.83201002  0.40428080  1  0  0.25515  0  3.684614  0  0  0.297593  0  3.949794  0  0  0.300667  0  3.970352  0  0  -0.100725  0.295232  0  3.936025  0
N  N40  1  0.83201048  0.29219794  0.90427436  1  0  0.255188  0  3.684476  0  0  0.297631  0  3.949639  0  0  0.300714  0  3.970203  0  0  -0.100721  0.295267  0  3.935874  0
N  N41  1  0.70779738  0.16798440  0.59571811  1  0  0.25514  0  3.684475  0  0  0.297567  0  3.94968  0  0  0.300642  0  3.970237  0  0  -0.100777  0.295205  0  3.935912  0
N  N42  1  0.50336052  0.16745662  0.13450213  1  0  -0.524951  0  2.862245  0  0  -0.469882  0  3.134197  0  0  -0.490893  0  3.141656  0  0  -0.391452  -0.45543  0  3.128942  0
N  N43  1  0.83256434  0.49664049  0.36548572  1  0  -0.52497  0  2.862501  0  0  -0.469921  0  3.134484  0  0  -0.490932  0  3.141939  0  0  -0.391422  -0.45547  0  3.129231  0
N  N44  1  0.49663859  0.83255435  0.86549202  1  0  -0.524946  0  2.862441  0  0  -0.469885  0  3.134403  0  0  -0.490894  0  3.141858  0  0  -0.391431  -0.455435  0  3.129152  0
N  N45  1  0.16744561  0.50336030  0.63451410  1  0  -0.525076  0  2.862298  0  0  -0.470027  0  3.134275  0  0  -0.491038  0  3.141727  0  0  -0.391487  -0.455575  0  3.129022  0
O  O46  1  0.10473556  0.64968112  0.95012534  1  0  -0.499913  0  1.867869  0  0  -0.458949  0  2.12559  0  0  -0.48218  0  2.12544  0  0  -0.22802  -0.442775  0  2.125309  0
O  O47  1  0.35032387  0.89525998  0.54987769  1  0  -0.499831  0  1.86792  0  0  -0.458867  0  2.125595  0  0  -0.482117  0  2.125507  0  0  -0.228002  -0.442693  0  2.125314  0
O  O48  1  0.89526293  0.35031712  0.04987170  1  0  -0.499915  0  1.867844  0  0  -0.458973  0  2.125576  0  0  -0.4822  0  2.125411  0  0  -0.228027  -0.442798  0  2.125296  0
O  O49  1  0.64967642  0.10473701  0.45011830  1  0  -0.499844  0  1.867757  0  0  -0.458829  0  2.125449  0  0  -0.482053  0  2.125297  0  0  -0.227949  -0.442654  0  2.125167  0
