# generated using pymatgen
data_Hf3H24(C7O4)4
_symmetry_space_group_name_H-M   'P 1'
_cell_length_a   17.51494676
_cell_length_b   19.60788141
_cell_length_c   27.58295479
_cell_angle_alpha   90.07004683
_cell_angle_beta   89.96171256
_cell_angle_gamma   89.95200654
_symmetry_Int_Tables_number   1
_chemical_formula_structural   Hf3H24(C7O4)4
_chemical_formula_sum   'Hf12 H96 C112 O64'
_cell_volume   9472.82919557
_cell_formula_units_Z   4
loop_
 _symmetry_equiv_pos_site_id
 _symmetry_equiv_pos_as_xyz
  1  'x, y, z'
loop_
 _atom_site_type_symbol
 _atom_site_label
 _atom_site_symmetry_multiplicity
 _atom_site_fract_x
 _atom_site_fract_y
 _atom_site_fract_z
 _atom_site_occupancy
 _atom_site_pbe_bader_charge
 _atom_site_pbe_bader_spin_density
 _atom_site_pbe_cm5_charge
 _atom_site_pbe_ddec_charge
 _atom_site_pbe_ddec_spin_density
 _atom_site_pbe_ddec_sum_bond_order
 _atom_site_pbe_magmom
Hf  Hf0  1  0.90208210  0.08805230  0.00463462  1  2.616757  0  1.455505  2.150479  0  3.315881  0
Hf  Hf1  1  0.10388964  0.08352479  0.00445856  1  2.615787  0  1.455284  2.154977  0  3.317699  0
Hf  Hf2  1  0.89674408  0.90804701  0.00388634  1  2.613231  0  1.45807  2.149041  0  3.323383  0
Hf  Hf3  1  0.09828861  0.90392086  0.00376804  1  2.607208  0  1.452451  2.139769  0  3.332061  0
Hf  Hf4  1  0.00011972  0.99600006  0.91502251  1  2.611307  0  1.496162  2.123853  0  3.375729  0
Hf  Hf5  1  0.00017365  0.99560823  0.09346512  1  2.603649  0  1.496151  2.126043  0  3.371163  0
Hf  Hf6  1  0.40405036  0.40345630  0.50487467  1  2.608863  0  1.452059  2.137617  0  3.336665  0
Hf  Hf7  1  0.60558992  0.40927003  0.50416994  1  2.616983  0  1.456528  2.154874  0  3.314889  0
Hf  Hf8  1  0.39654221  0.58354684  0.50464114  1  2.6149  0  1.456117  2.146994  0  3.33151  0
Hf  Hf9  1  0.59753955  0.58857563  0.50470344  1  2.610808  0  1.451152  2.139876  0  3.328746  0
Hf  Hf10  1  0.50041539  0.49599100  0.59390691  1  2.609901  0  1.497426  2.121777  0  3.377453  0
Hf  Hf11  1  0.50049498  0.49555748  0.41517582  1  2.6182  0  1.494767  2.126436  0  3.373542  0
H  H12  1  0.99905732  0.13815100  0.07497350  1  0.590262  0  0.336877  0.415792  0  0.856777  0
H  H13  1  0.15937121  0.99253004  0.93336578  1  0.612468  0  0.338396  0.419159  0  0.852341  0
H  H14  1  0.00176649  0.85321031  0.07424726  1  0.605426  0  0.335797  0.414719  0  0.856858  0
H  H15  1  0.84163869  0.99640488  0.93321788  1  0.617372  0  0.337228  0.416357  0  0.854903  0
H  H16  1  0.25136445  0.07912109  0.97829939  1  0.591778  0  0.300533  0.383685  0  0.92003  0
H  H17  1  0.22799755  0.98660230  0.00645790  1  0.623983  0  0.283817  0.402985  0  0.939623  0
H  H18  1  0.09278758  0.77439278  0.97818748  1  0.582181  0  0.301654  0.389103  0  0.913845  0
H  H19  1  0.98873832  0.79217293  0.00303556  1  0.635154  0  0.283143  0.402317  0  0.941501  0
H  H20  1  0.75258668  0.91675260  0.03256927  1  0.57347  0  0.301784  0.388172  0  0.914041  0
H  H21  1  0.77213568  0.00779520  0.00555615  1  0.642208  0  0.282674  0.402804  0  0.94109  0
H  H22  1  0.91028232  0.21721401  0.97742713  1  0.582038  0  0.301277  0.38801  0  0.915235  0
H  H23  1  0.01270710  0.19895583  0.00281975  1  0.627066  0  0.282809  0.403096  0  0.941185  0
H  H24  1  0.90865808  0.77074342  0.03099290  1  0.606003  0  0.32535  0.399087  0  0.88223  0
H  H25  1  0.74966693  0.07852680  0.97573022  1  0.598363  0  0.325524  0.399894  0  0.881032  0
H  H26  1  0.09303023  0.21894952  0.03152065  1  0.620432  0  0.325102  0.399449  0  0.88463  0
H  H27  1  0.24098759  0.91735787  0.03852885  1  0.618048  0  0.323983  0.405769  0  0.883741  0
H  H28  1  0.50040062  0.35306047  0.43422353  1  0.599566  0  0.336554  0.416197  0  0.85545  0
H  H29  1  0.66021021  0.50078970  0.57494483  1  0.608339  0  0.337863  0.41853  0  0.852332  0
H  H30  1  0.50169014  0.63844452  0.43402857  1  0.620704  0  0.335494  0.41487  0  0.855587  0
H  H31  1  0.34018785  0.49311919  0.57503704  1  0.609463  0  0.343573  0.430591  0  0.831115  0
H  H32  1  0.75357928  0.41528763  0.52922416  1  0.591565  0  0.300519  0.383582  0  0.920085  0
H  H33  1  0.72824322  0.50758066  0.50188174  1  0.630732  0  0.283818  0.403022  0  0.939764  0
H  H34  1  0.59086280  0.71797892  0.52984845  1  0.603745  0  0.30068  0.387944  0  0.91695  0
H  H35  1  0.48713202  0.70006269  0.50456916  1  0.618725  0  0.283212  0.40104  0  0.943159  0
H  H36  1  0.25146501  0.57832698  0.47799845  1  0.60203  0  0.299566  0.384703  0  0.918948  0
H  H37  1  0.27353193  0.48350856  0.50275798  1  0.625112  0  0.284013  0.402403  0  0.941169  0
H  H38  1  0.41182743  0.27388389  0.53006882  1  0.591692  0  0.300061  0.386238  0  0.918901  0
H  H39  1  0.51496610  0.29310804  0.50567067  1  0.63481  0  0.283038  0.402628  0  0.941412  0
H  H40  1  0.40759185  0.71980817  0.47570457  1  0.600609  0  0.324495  0.397927  0  0.885195  0
H  H41  1  0.26085847  0.41323848  0.47140962  1  0.620944  0  0.321329  0.400429  0  0.893155  0
H  H42  1  0.59620388  0.27312403  0.47814732  1  0.606354  0  0.326101  0.4009  0  0.882059  0
H  H43  1  0.74046367  0.57742746  0.47023847  1  0.637034  0  0.323891  0.406033  0  0.88456  0
H  H44  1  0.31251253  0.73580243  0.18048131  1  0.058496  0  0.101357  0.098998  0  1.009118  0
H  H45  1  0.25113721  0.80136999  0.11447059  1  0.084168  0  0.106337  0.107938  0  0.996907  0
H  H46  1  0.08455030  0.87878215  0.21462326  1  0.115637  0  0.108449  0.112834  0  0.995839  0
H  H47  1  0.14094639  0.80902494  0.28038111  1  0.062223  0  0.101159  0.098733  0  1.00942  0
H  H48  1  0.22558701  0.79111614  0.33319401  1  0.057673  0  0.101821  0.100222  0  1.008017  0
H  H49  1  0.28148169  0.72089638  0.39861449  1  0.062624  0  0.103173  0.10414  0  1.003002  0
H  H50  1  0.37656451  0.58409789  0.29295098  1  0.1173  0  0.109491  0.114076  0  0.991938  0
H  H51  1  0.31585806  0.65055846  0.22695818  1  0.0262  0  0.102193  0.100136  0  1.00828  0
H  H52  1  0.81743255  0.83770711  0.28091524  1  0.065945  0  0.102151  0.100585  0  1.008055  0
H  H53  1  0.87852419  0.90437669  0.21512965  1  0.104733  0  0.11015  0.114811  0  0.991506  0
H  H54  1  0.77795206  0.77212522  0.10877461  1  0.068267  0  0.103355  0.104409  0  1.003669  0
H  H55  1  0.72114306  0.70180206  0.17392825  1  0.057835  0  0.101719  0.100253  0  1.007674  0
H  H56  1  0.63696593  0.68471063  0.22807661  1  0.036043  0  0.101202  0.098838  0  1.009132  0
H  H57  1  0.58100539  0.61496270  0.29403634  1  0.096093  0  0.108362  0.112757  0  0.996791  0
H  H58  1  0.75370165  0.68597313  0.39216459  1  0.091057  0  0.105952  0.107368  0  0.997748  0
H  H59  1  0.81480293  0.75089395  0.32574406  1  0.077172  0  0.101516  0.099017  0  1.009072  0
H  H60  1  0.18850203  0.23361520  0.33065773  1  0.047555  0  0.101582  0.099822  0  1.008293  0
H  H61  1  0.25151374  0.29933433  0.39600833  1  0.076051  0  0.105723  0.107454  0  0.998558  0
H  H62  1  0.41199228  0.38036946  0.29352473  1  0.08444  0  0.107963  0.112557  0  0.995681  0
H  H63  1  0.35400929  0.31054842  0.22834014  1  0.050774  0  0.101366  0.098921  0  1.010386  0
H  H64  1  0.26856425  0.29272094  0.17711933  1  0.080071  0  0.101057  0.098618  0  1.010615  0
H  H65  1  0.21334065  0.22225937  0.11143811  1  0.075742  0  0.104783  0.106176  0  1.000996  0
H  H66  1  0.12252442  0.08304561  0.21656593  1  0.094603  0  0.108726  0.113468  0  0.992625  0
H  H67  1  0.18306736  0.14941086  0.28275528  1  0.06943  0  0.101406  0.099277  0  1.009497  0
H  H68  1  0.14333691  0.80679370  0.72821951  1  0.05158  0  0.101361  0.099048  0  1.008709  0
H  H69  1  0.08242257  0.87358999  0.79414988  1  0.099911  0  0.107491  0.110677  0  0.998935  0
H  H70  1  0.24282965  0.79234893  0.89653455  1  0.111566  0  0.106161  0.109087  0  0.997046  0
H  H71  1  0.30842827  0.72949087  0.83059665  1  0.033601  0  0.101165  0.099147  0  1.009675  0
H  H72  1  0.23188331  0.79198805  0.67734413  1  0.092571  0  0.100573  0.097544  0  1.010839  0
H  H73  1  0.29303251  0.72498011  0.61150737  1  0.089356  0  0.108895  0.113214  0  0.992231  0
H  H74  1  0.38132920  0.58378974  0.71610238  1  0.09354  0  0.107271  0.111136  0  0.997113  0
H  H75  1  0.31592629  0.64677733  0.78216685  1  0.029715  0  0.100151  0.097583  0  1.011558  0
H  H76  1  0.83412009  0.16397998  0.72675282  1  0.07757  0  0.102196  0.100181  0  1.007937  0
H  H77  1  0.89727808  0.10003981  0.79311772  1  0.079955  0  0.109441  0.113999  0  0.994102  0
H  H78  1  0.77423354  0.21794018  0.89862325  1  0.06275  0  0.103412  0.104755  0  1.0031  0
H  H79  1  0.71316494  0.28459350  0.83302450  1  0.062856  0  0.10142  0.099818  0  1.00766  0
H  H80  1  0.62988929  0.29292525  0.77613940  1  0.054554  0  0.101407  0.099369  0  1.008621  0
H  H81  1  0.57099392  0.36114481  0.71028372  1  0.090404  0  0.108876  0.112933  0  0.994746  0
H  H82  1  0.76101239  0.31574602  0.61722622  1  0.084426  0  0.105122  0.105365  0  0.998387  0
H  H83  1  0.82485055  0.25404115  0.68422765  1  0.056624  0  0.101703  0.099807  0  1.008586  0
H  H84  1  0.85302483  0.81384342  0.72734669  1  0.039263  0  0.100563  0.098291  0  1.010282  0
H  H85  1  0.91403439  0.88062638  0.79313524  1  0.075546  0  0.106855  0.110348  0  0.998749  0
H  H86  1  0.75875310  0.79478751  0.89670681  1  0.06868  0  0.108999  0.113078  0  0.992655  0
H  H87  1  0.69266948  0.73175354  0.83094410  1  0.029419  0  0.101258  0.099065  0  1.009964  0
H  H88  1  0.68589451  0.64966832  0.78159323  1  0.044413  0  0.101527  0.099331  0  1.008785  0
H  H89  1  0.62017768  0.58696332  0.71566425  1  0.111472  0  0.109094  0.113696  0  0.992685  0
H  H90  1  0.70321473  0.73174567  0.61166756  1  0.081201  0  0.105179  0.105951  0  1.000065  0
H  H91  1  0.76360481  0.79854290  0.67743971  1  0.057263  0  0.100897  0.098642  0  1.009341  0
H  H92  1  0.68278280  0.24831040  0.18086379  1  0.049128  0  0.100521  0.097857  0  1.010876  0
H  H93  1  0.74528118  0.18246322  0.11498689  1  0.103556  0  0.109539  0.114159  0  0.989733  0
H  H94  1  0.92104884  0.11876133  0.21333983  1  0.094231  0  0.106812  0.110813  0  0.998238  0
H  H95  1  0.86374793  0.18923936  0.27852548  1  0.045584  0  0.100492  0.097858  0  1.011182  0
H  H96  1  0.78189838  0.20559525  0.33270033  1  0.063132  0  0.100876  0.098807  0  1.010507  0
H  H97  1  0.72527294  0.27602992  0.39800855  1  0.080441  0  0.104959  0.107046  0  1.00032  0
H  H98  1  0.61390742  0.40141437  0.29203846  1  0.095347  0  0.108036  0.111633  0  0.995152  0
H  H99  1  0.67447618  0.33478435  0.22594307  1  0.056872  0  0.101047  0.098664  0  1.010075  0
H  H100  1  0.14216345  0.18161072  0.72771091  1  0.037763  0  0.101159  0.098812  0  1.008858  0
H  H101  1  0.08216129  0.11481771  0.79385774  1  0.106256  0  0.108276  0.111571  0  0.99586  0
H  H102  1  0.24676893  0.19262215  0.89490315  1  0.089689  0  0.10546  0.106791  0  0.999168  0
H  H103  1  0.31192824  0.25473952  0.82857770  1  0.062418  0  0.100631  0.098392  0  1.010622  0
H  H104  1  0.31702604  0.33910686  0.78140614  1  0.05413  0  0.101008  0.098701  0  1.009557  0
H  H105  1  0.38264839  0.40244615  0.71577622  1  0.110605  0  0.108088  0.111818  0  0.996081  0
H  H106  1  0.29214447  0.26329896  0.61029709  1  0.103107  0  0.106033  0.10724  0  0.998432  0
H  H107  1  0.23099166  0.19609799  0.67559063  1  0.065183  0  0.101452  0.099413  0  1.00847  0
C  C108  1  0.87757720  0.11502316  0.88918335  1  1.543432  0  0.235755  0.624518  0  4.111505  0
C  C109  1  0.12751252  0.10822571  0.12034834  1  1.557153  0  0.23623  0.623624  0  4.109868  0
C  C110  1  0.12356296  0.10994251  0.88795317  1  1.520031  0  0.23815  0.626884  0  4.106791  0
C  C111  1  0.87383044  0.10607203  0.12091550  1  1.566475  0  0.238158  0.624268  0  4.107476  0
C  C112  1  0.87026452  0.88257099  0.11895024  1  1.539445  0  0.235429  0.623156  0  4.114857  0
C  C113  1  0.12081635  0.87677326  0.88866241  1  1.535486  0  0.237139  0.625112  0  4.1057  0
C  C114  1  0.12749676  0.88470005  0.12111365  1  1.551186  0  0.237306  0.625149  0  4.109353  0
C  C115  1  0.87786493  0.88145622  0.88812137  1  1.536952  0  0.238769  0.626248  0  4.103294  0
C  C116  1  0.38059041  0.37626618  0.61995240  1  1.539923  0  0.238388  0.627265  0  4.105359  0
C  C117  1  0.62851432  0.38317339  0.38849932  1  1.542664  0  0.235935  0.624545  0  4.108939  0
C  C118  1  0.62553233  0.38270832  0.62031436  1  1.545929  0  0.238928  0.629816  0  4.102962  0
C  C119  1  0.37279572  0.38478871  0.38784214  1  1.543658  0  0.236218  0.62343  0  4.111405  0
C  C120  1  0.37033800  0.60799607  0.38909860  1  1.545137  0  0.23445  0.622496  0  4.116981  0
C  C121  1  0.61972366  0.61569499  0.62022005  1  1.548833  0  0.238692  0.628119  0  4.098414  0
C  C122  1  0.62700078  0.60652269  0.38689250  1  1.531845  0  0.236672  0.624611  0  4.110813  0
C  C123  1  0.37845724  0.61070072  0.62045093  1  1.533286  0  0.240008  0.627689  0  4.104432  0
C  C124  1  0.16697643  0.80834979  0.24445260  1  -0.074878  0  -0.090216  -0.133681  0  3.98643  0
C  C125  1  0.23151721  0.76720120  0.23566304  1  -0.025497  0  -0.002733  0.072908  0  3.991957  0
C  C126  1  0.26165838  0.76600551  0.18828900  1  -0.015167  0  -0.089587  -0.131515  0  3.982436  0
C  C127  1  0.22828535  0.80353429  0.15120102  1  -0.061059  0  -0.082829  -0.085437  0  3.995141  0
C  C128  1  0.16465224  0.84481953  0.16061389  1  -0.052473  0  -0.01999  -0.048889  0  3.984005  0
C  C129  1  0.13451520  0.84707247  0.20770319  1  0.023342  0  -0.081349  -0.082934  0  3.985938  0
C  C130  1  0.26617920  0.72630478  0.27485635  1  0.009301  0  -0.001501  0.076175  0  3.98878  0
C  C131  1  0.25714297  0.74495417  0.32388078  1  -0.058385  0  -0.090593  -0.131908  0  3.982309  0
C  C132  1  0.28924679  0.70622485  0.36080037  1  0.015367  0  -0.087622  -0.093201  0  4.008359  0
C  C133  1  0.33295262  0.64827947  0.34985768  1  -0.073219  0  -0.023341  -0.053238  0  3.993096  0
C  C134  1  0.34278958  0.62935160  0.30120680  1  -0.053669  0  -0.081311  -0.081959  0  3.984554  0
C  C135  1  0.30929676  0.66736232  0.26443726  1  -0.022791  0  -0.089044  -0.13252  0  3.981471  0
C  C136  1  0.75426541  0.74694424  0.18344668  1  0.004272  0  -0.090863  -0.133192  0  3.985213  0
C  C137  1  0.76497765  0.76418610  0.23257413  1  -0.043048  0  -0.001389  0.077319  0  3.988643  0
C  C138  1  0.80978102  0.82191811  0.24330794  1  -0.038857  0  -0.089032  -0.133968  0  3.981751  0
C  C139  1  0.84349359  0.86002646  0.20669639  1  -0.020057  0  -0.080547  -0.080038  0  3.983229  0
C  C140  1  0.83229990  0.84233731  0.15794832  1  -0.079818  0  -0.022437  -0.052483  0  3.991813  0
C  C141  1  0.78677324  0.78572121  0.14669050  1  -0.011931  0  -0.087262  -0.092647  0  4.008844  0
C  C142  1  0.73047141  0.72314765  0.27172301  1  -0.035563  0  -0.00247  0.072994  0  3.993103  0
C  C143  1  0.66435851  0.68392739  0.26357414  1  -0.050717  0  -0.090413  -0.133476  0  3.986244  0
C  C144  1  0.63214976  0.64526108  0.30046008  1  -0.038204  0  -0.081712  -0.084408  0  3.98688  0
C  C145  1  0.66407159  0.64584402  0.34707427  1  0.026554  0  -0.020223  -0.047355  0  3.984299  0
C  C146  1  0.72937939  0.68514330  0.35581486  1  -0.064776  0  -0.082642  -0.085894  0  3.998059  0
C  C147  1  0.76259834  0.72238316  0.31854219  1  -0.029403  0  -0.090007  -0.131887  0  3.983775  0
C  C148  1  0.32956558  0.30914784  0.26469173  1  -0.049896  0  -0.090285  -0.133072  0  3.985404  0
C  C149  1  0.26611958  0.26706956  0.27422798  1  -0.014302  0  -0.001629  0.074382  0  3.989283  0
C  C150  1  0.23827289  0.26476817  0.32213953  1  -0.008241  0  -0.090558  -0.133391  0  3.982611  0
C  C151  1  0.27259591  0.30236132  0.35889177  1  -0.075025  0  -0.083973  -0.086751  0  3.997478  0
C  C152  1  0.33492312  0.34477471  0.34868487  1  0.020347  0  -0.021133  -0.05066  0  3.989437  0
C  C153  1  0.36294944  0.34791708  0.30111189  1  -0.04045  0  -0.08237  -0.084567  0  3.989756  0
C  C154  1  0.23057187  0.22644203  0.23515690  1  -0.013615  0  -0.002816  0.07621  0  3.98774  0
C  C155  1  0.23813216  0.24598293  0.18624824  1  -0.032447  0  -0.09094  -0.133966  0  3.986181  0
C  C156  1  0.20631890  0.20727494  0.14921042  1  -0.006732  0  -0.084032  -0.087819  0  4.001503  0
C  C157  1  0.16413680  0.14849621  0.15993853  1  -0.098241  0  -0.020006  -0.0473  0  3.983515  0
C  C158  1  0.15531424  0.12885996  0.20847713  1  -0.054777  0  -0.082153  -0.084775  0  3.986493  0
C  C159  1  0.18864230  0.16686060  0.24538895  1  -0.019846  0  -0.09071  -0.135164  0  3.983754  0
C  C160  1  0.25772250  0.75958624  0.82230438  1  -0.034272  0  -0.091158  -0.133713  0  3.984061  0
C  C161  1  0.23088399  0.76298956  0.77420843  1  -0.044248  0  -0.001252  0.075868  0  3.989022  0
C  C162  1  0.16668373  0.80428505  0.76481827  1  -0.00302  0  -0.090443  -0.133583  0  3.982445  0
C  C163  1  0.13162603  0.84123281  0.80163591  1  -0.064985  0  -0.08173  -0.082615  0  3.986928  0
C  C164  1  0.15855515  0.83680747  0.84939737  1  -0.029666  0  -0.021207  -0.051334  0  3.990827  0
C  C165  1  0.22173083  0.79524062  0.85942761  1  -0.034944  0  -0.084554  -0.08835  0  3.998051  0
C  C166  1  0.26884467  0.72446146  0.73493153  1  0.011844  0  -0.003652  0.07295  0  3.99386  0
C  C167  1  0.26316624  0.74555168  0.68624419  1  -0.083116  0  -0.090414  -0.133942  0  3.985448  0
C  C168  1  0.29793425  0.70882731  0.64917491  1  -0.043688  0  -0.080368  -0.082379  0  3.985674  0
C  C169  1  0.34085740  0.65043394  0.65985275  1  -0.00782  0  -0.0176  -0.045373  0  3.983597  0
C  C170  1  0.34786959  0.62929836  0.70817149  1  -0.053524  0  -0.082172  -0.084729  0  3.991233  0
C  C171  1  0.31177476  0.66535872  0.74501163  1  0.010084  0  -0.090809  -0.134711  0  3.988999  0
C  C172  1  0.75257228  0.24348565  0.82377046  1  -0.034812  0  -0.090555  -0.13345  0  3.983831  0
C  C173  1  0.76896123  0.22952522  0.77473222  1  0.030658  0  -0.000976  0.077927  0  3.987424  0
C  C174  1  0.82160507  0.17710926  0.76436203  1  -0.110051  0  -0.090059  -0.13352  0  3.982962  0
C  C175  1  0.85674358  0.14065353  0.80127439  1  0.01178  0  -0.08075  -0.081696  0  3.987286  0
C  C176  1  0.83987354  0.15499495  0.84994265  1  -0.053896  0  -0.02334  -0.053624  0  3.991324  0
C  C177  1  0.78719155  0.20669434  0.86078968  1  -0.027677  0  -0.086849  -0.091548  0  4.006097  0
C  C178  1  0.73220912  0.26849641  0.73534991  1  -0.087491  0  -0.003214  0.072317  0  3.994235  0
C  C179  1  0.66024499  0.29930689  0.74190664  1  -0.016154  0  -0.090351  -0.13427  0  3.986553  0
C  C180  1  0.62637068  0.33682292  0.70500158  1  -0.02671  0  -0.08035  -0.082555  0  3.982751  0
C  C181  1  0.66241156  0.34273855  0.65981354  1  -0.01752  0  -0.01737  -0.04309  0  3.981777  0
C  C182  1  0.73327444  0.31122124  0.65245689  1  0.001097  0  -0.083658  -0.087232  0  4.000248  0
C  C183  1  0.76819169  0.27570184  0.68995460  1  -0.041311  0  -0.090783  -0.1339  0  3.987312  0
C  C184  1  0.74229807  0.76302177  0.82232238  1  -0.079755  0  -0.09106  -0.135121  0  3.984067  0
C  C185  1  0.76775021  0.76776149  0.77396123  1  0.0392  0  -0.002428  0.074364  0  3.990151  0
C  C186  1  0.83064991  0.81034979  0.76416500  1  -0.037431  0  -0.091239  -0.135509  0  3.987804  0
C  C187  1  0.86578884  0.84730392  0.80088550  1  -0.03445  0  -0.082739  -0.085564  0  3.992842  0
C  C188  1  0.84019257  0.84161715  0.84886084  1  0.053126  0  -0.018689  -0.046725  0  3.985579  0
C  C189  1  0.77840478  0.79873201  0.85931797  1  -0.044844  0  -0.080679  -0.083032  0  3.986239  0
C  C190  1  0.72972202  0.72927596  0.73474775  1  -0.048303  0  -0.0017  0.075682  0  3.989316  0
C  C191  1  0.68849462  0.66918659  0.74461650  1  -0.014023  0  -0.090186  -0.134032  0  3.98259  0
C  C192  1  0.65225966  0.63324481  0.70780566  1  -0.119921  0  -0.080983  -0.081717  0  3.98305  0
C  C193  1  0.65750976  0.65540298  0.65959207  1  -0.043638  0  -0.020491  -0.05095  0  3.985636  0
C  C194  1  0.69900340  0.71468760  0.64916272  1  0.023668  0  -0.084183  -0.08671  0  4.000307  0
C  C195  1  0.73371095  0.75138008  0.68621562  1  -2.4e-05  0  -0.090334  -0.132817  0  3.983495  0
C  C196  1  0.83589260  0.18670097  0.24322565  1  -0.014239  0  -0.091936  -0.133314  0  3.989878  0
C  C197  1  0.76830878  0.22394086  0.23496117  1  -0.008957  0  -0.004118  0.070139  0  3.992283  0
C  C198  1  0.73595500  0.22127815  0.18821514  1  -0.001843  0  -0.090076  -0.133018  0  3.983466  0
C  C199  1  0.76997182  0.18377143  0.15123756  1  -0.077974  0  -0.080486  -0.083099  0  3.984146  0
C  C200  1  0.83644498  0.14612247  0.16030808  1  0.019018  0  -0.018218  -0.044824  0  3.983072  0
C  C201  1  0.86891969  0.14768462  0.20673222  1  -0.103143  0  -0.083885  -0.089051  0  3.995004  0
C  C202  1  0.73284958  0.26468441  0.27407511  1  -0.029488  0  -0.001802  0.077028  0  3.988736  0
C  C203  1  0.74632460  0.24924449  0.32321845  1  -0.065418  0  -0.091487  -0.134535  0  3.985551  0
C  C204  1  0.71392125  0.28796807  0.36011268  1  -0.02495  0  -0.085258  -0.088443  0  4.000231  0
C  C205  1  0.66560261  0.34282357  0.34910624  1  -0.006646  0  -0.021821  -0.051872  0  3.989053  0
C  C206  1  0.65124525  0.35852051  0.30037319  1  -0.084886  0  -0.082264  -0.082901  0  3.988545  0
C  C207  1  0.68480303  0.32042423  0.26355841  1  -0.01103  0  -0.090576  -0.134212  0  3.983863  0
C  C208  1  0.26046769  0.22551630  0.82069800  1  -0.010166  0  -0.091294  -0.134717  0  3.98791  0
C  C209  1  0.23197815  0.22331980  0.77295846  1  -0.09384  0  -0.002382  0.07453  0  3.989199  0
C  C210  1  0.16678476  0.18317444  0.76401368  1  0.005764  0  -0.090333  -0.134205  0  3.982664  0
C  C211  1  0.13223925  0.14621662  0.80096269  1  -0.055886  0  -0.080865  -0.081229  0  3.983655  0
C  C212  1  0.16078821  0.14956727  0.84838421  1  -0.008466  0  -0.01948  -0.047402  0  3.985219  0
C  C213  1  0.22493765  0.19000890  0.85795763  1  -0.007019  0  -0.083592  -0.086204  0  3.999635  0
C  C214  1  0.26947249  0.26215557  0.73372729  1  -0.048024  0  -0.001807  0.074794  0  3.988884  0
C  C215  1  0.31281330  0.32089383  0.74412800  1  -0.028818  0  -0.090837  -0.133541  0  3.987062  0
C  C216  1  0.34903175  0.35715548  0.70752278  1  -0.023297  0  -0.082725  -0.085783  0  3.994332  0
C  C217  1  0.34196981  0.33660574  0.65902415  1  -0.008598  0  -0.020267  -0.049594  0  3.98356  0
C  C218  1  0.29808736  0.27888599  0.64804597  1  -0.04936  0  -0.08299  -0.084953  0  3.993825  0
C  C219  1  0.26305995  0.24194960  0.68485201  1  -0.068101  0  -0.090632  -0.13361  0  3.982564  0
O  O220  1  0.85923199  0.12915370  0.93319991  1  -1.202034  0  -0.347693  -0.62905  0  2.321301  0
O  O221  1  0.92476186  0.06907617  0.87614574  1  -1.174708  0  -0.333493  -0.571374  0  2.329936  0
O  O222  1  0.14325439  0.12481854  0.07665631  1  -1.186901  0  -0.338805  -0.599487  0  2.318957  0
O  O223  1  0.08157417  0.06100957  0.13318684  1  -1.177756  0  -0.341554  -0.581832  0  2.323782  0
O  O224  1  0.14312073  0.12294458  0.93153990  1  -1.175728  0  -0.335267  -0.593916  0  2.317981  0
O  O225  1  0.07514236  0.06464033  0.87491216  1  -1.177989  0  -0.348183  -0.585875  0  2.330088  0
O  O226  1  0.85449814  0.11855005  0.07738708  1  -1.17059  0  -0.329492  -0.568992  0  2.306094  0
O  O227  1  0.92466233  0.06278319  0.13421418  1  -1.177697  0  -0.353473  -0.594248  0  2.331193  0
O  O228  1  0.93196362  0.19320053  0.00497399  1  -1.229614  0  -0.639657  -0.892277  0  1.953449  0
O  O229  1  0.77615726  0.06301343  0.00464617  1  -1.236694  0  -0.594632  -0.788902  0  2.050765  0
O  O230  1  0.07459947  0.19524426  0.00284753  1  -1.241849  0  -0.596585  -0.790057  0  2.050949  0
O  O231  1  0.22195983  0.06097808  0.00517407  1  -1.233362  0  -0.642217  -0.892449  0  1.942614  0
O  O232  1  0.00211467  0.07146068  0.96661090  1  -1.205676  0  -0.756625  -1.060145  0  2.170627  0
O  O233  1  0.00072597  0.09776075  0.05472555  1  -1.226314  0  -0.659272  -0.975289  0  2.377451  0
O  O234  1  0.85311155  0.86774418  0.07485473  1  -1.198356  0  -0.348927  -0.62922  0  2.326154  0
O  O235  1  0.91816806  0.92765488  0.13211852  1  -1.17178  0  -0.331053  -0.568378  0  2.325272  0
O  O236  1  0.13841945  0.86229550  0.93256392  1  -1.187233  0  -0.34304  -0.602921  0  2.312206  0
O  O237  1  0.07415105  0.92323837  0.87554280  1  -1.180502  0  -0.338986  -0.578348  0  2.326995  0
O  O238  1  0.14919483  0.87389367  0.07753115  1  -1.188183  0  -0.33233  -0.603543  0  2.307685  0
O  O239  1  0.07473721  0.92604479  0.13397078  1  -1.180257  0  -0.343746  -0.581825  0  2.333193  0
O  O240  1  0.86061634  0.86729302  0.93180462  1  -1.170026  0  -0.333862  -0.572885  0  2.31467  0
O  O241  1  0.92441575  0.92822411  0.87469706  1  -1.177304  0  -0.351241  -0.59294  0  2.331547  0
O  O242  1  0.92726806  0.79568763  0.00295811  1  -1.24179  0  -0.593101  -0.786688  0  2.05398  0
O  O243  1  0.77911757  0.93538967  0.00462838  1  -1.219817  0  -0.639606  -0.892888  0  1.949863  0
O  O244  1  0.07054038  0.79851700  0.00558285  1  -1.222681  0  -0.642539  -0.896896  0  1.947348  0
O  O245  1  0.22352358  0.93219653  0.00667563  1  -1.242021  0  -0.600111  -0.792901  0  2.034955  0
O  O246  1  0.99968801  0.89364875  0.05412376  1  -1.239402  0  -0.657303  -0.9683  0  2.36615  0
O  O247  1  0.99858736  0.92069003  0.96642895  1  -1.206779  0  -0.761206  -1.057223  0  2.192348  0
O  O248  1  0.91644529  0.99651608  0.04176220  1  -1.201605  0  -0.760921  -1.059468  0  2.190583  0
O  O249  1  0.11461559  0.99288265  0.95403390  1  -1.247982  0  -0.659678  -0.979948  0  2.376553  0
O  O250  1  0.88594028  0.99786958  0.95421391  1  -1.252036  0  -0.659042  -0.973953  0  2.37388  0
O  O251  1  0.08491067  0.99538604  0.04207551  1  -1.204389  0  -0.759872  -1.058274  0  2.181422  0
O  O252  1  0.36544925  0.36043162  0.57596208  1  -1.18995  0  -0.341712  -0.603534  0  2.317769  0
O  O253  1  0.42574032  0.42375368  0.63332379  1  -1.179667  0  -0.338463  -0.581349  0  2.330058  0
O  O254  1  0.64478028  0.36747877  0.43229771  1  -1.185024  0  -0.340116  -0.601555  0  2.320491  0
O  O255  1  0.58164401  0.42969102  0.37556511  1  -1.180292  0  -0.34248  -0.583178  0  2.324598  0
O  O256  1  0.64642076  0.37073608  0.57679787  1  -1.186041  0  -0.336998  -0.596204  0  2.311658  0
O  O257  1  0.57602038  0.42698913  0.63347183  1  -1.17052  0  -0.346169  -0.584234  0  2.32975  0
O  O258  1  0.35236086  0.37349374  0.43160039  1  -1.18842  0  -0.33435  -0.604408  0  2.316033  0
O  O259  1  0.42456710  0.42684727  0.37471119  1  -1.178832  0  -0.343391  -0.581359  0  2.32849  0
O  O260  1  0.43358277  0.29818446  0.50265931  1  -1.232559  0  -0.641332  -0.893561  0  1.950609  0
O  O261  1  0.27830606  0.42911609  0.50303048  1  -1.242654  0  -0.5997  -0.788244  0  2.040618  0
O  O262  1  0.57655637  0.29735499  0.50629848  1  -1.243131  0  -0.595444  -0.789363  0  2.052069  0
O  O263  1  0.72325177  0.43342971  0.50277731  1  -1.230964  0  -0.641096  -0.891081  0  1.945085  0
O  O264  1  0.50387149  0.42073739  0.54228501  1  -1.211591  0  -0.759089  -1.06048  0  2.181178  0
O  O265  1  0.50138549  0.39384707  0.45408864  1  -1.23326  0  -0.658944  -0.970081  0  2.3719  0
O  O266  1  0.35319117  0.62336439  0.43307443  1  -1.201106  0  -0.34728  -0.627861  0  2.327666  0
O  O267  1  0.41774631  0.56220871  0.37614696  1  -1.17468  0  -0.333  -0.570727  0  2.323832  0
O  O268  1  0.63530164  0.63170031  0.57629808  1  -1.18473  0  -0.341495  -0.603078  0  2.307031  0
O  O269  1  0.57492671  0.56776789  0.63334637  1  -1.171302  0  -0.340741  -0.580299  0  2.327137  0
O  O270  1  0.64850800  0.61803762  0.43038171  1  -1.190135  0  -0.330563  -0.602123  0  2.30428  0
O  O271  1  0.57431683  0.56499600  0.37432258  1  -1.178359  0  -0.344907  -0.583283  0  2.334325  0
O  O272  1  0.36247841  0.62585524  0.57679260  1  -1.173143  0  -0.332268  -0.572352  0  2.315788  0
O  O273  1  0.42389621  0.56297385  0.63380922  1  -1.171491  0  -0.352957  -0.594557  0  2.338078  0
O  O274  1  0.42582557  0.69636192  0.50449350  1  -1.223324  0  -0.592416  -0.784123  0  2.055508  0
O  O275  1  0.27953674  0.55776187  0.50459092  1  -1.242551  0  -0.641938  -0.893822  0  1.949618  0
O  O276  1  0.56933115  0.69379827  0.50228453  1  -1.241942  0  -0.643151  -0.897204  0  1.946245  0
O  O277  1  0.72296947  0.56203534  0.50196262  1  -1.269078  0  -0.600641  -0.793411  0  2.03522  0
O  O278  1  0.49937733  0.59803253  0.45416624  1  -1.257665  0  -0.656694  -0.967065  0  2.362623  0
O  O279  1  0.49817582  0.57083791  0.54217279  1  -1.204144  0  -0.762359  -1.060492  0  2.198705  0
O  O280  1  0.41747838  0.49498558  0.46704688  1  -1.218286  0  -0.764242  -1.073733  0  2.221061  0
O  O281  1  0.61531525  0.50011700  0.55444138  1  -1.245861  0  -0.658991  -0.978865  0  2.372584  0
O  O282  1  0.38495865  0.49301190  0.55430641  1  -1.237434  0  -0.651107  -0.953344  0  2.308888  0
O  O283  1  0.58529051  0.49680589  0.46637623  1  -1.200221  0  -0.759725  -1.056879  0  2.181666  0
