# generated using pymatgen
data_CdH28C28(N4Cl)2
_symmetry_space_group_name_H-M   'P 1'
_cell_length_a   7.77257006
_cell_length_b   8.79065474
_cell_length_c   11.12969840
_cell_angle_alpha   106.75970529
_cell_angle_beta   91.11625516
_cell_angle_gamma   108.63815914
_symmetry_Int_Tables_number   1
_chemical_formula_structural   CdH28C28(N4Cl)2
_chemical_formula_sum   'Cd1 H28 C28 N8 Cl2'
_cell_volume   684.71585732
_cell_formula_units_Z   1
loop_
 _symmetry_equiv_pos_site_id
 _symmetry_equiv_pos_as_xyz
  1  'x, y, z'
loop_
 _atom_site_type_symbol
 _atom_site_label
 _atom_site_symmetry_multiplicity
 _atom_site_fract_x
 _atom_site_fract_y
 _atom_site_fract_z
 _atom_site_occupancy
 _atom_site_hle17_bader_spin_density
 _atom_site_hle17_ddec_charge
 _atom_site_hle17_ddec_spin_density
 _atom_site_hle17_ddec_sum_bond_order
 _atom_site_hle17_magmom
 _atom_site_hse06_10hf_bader_spin_density
 _atom_site_hse06_10hf_ddec_charge
 _atom_site_hse06_10hf_ddec_spin_density
 _atom_site_hse06_10hf_ddec_sum_bond_order
 _atom_site_hse06_10hf_magmom
 _atom_site_hse06_bader_spin_density
 _atom_site_hse06_ddec_charge
 _atom_site_hse06_ddec_spin_density
 _atom_site_hse06_ddec_sum_bond_order
 _atom_site_hse06_magmom
 _atom_site_pbe_bader_spin_density
 _atom_site_pbe_cm5_charge
 _atom_site_pbe_ddec_charge
 _atom_site_pbe_ddec_spin_density
 _atom_site_pbe_ddec_sum_bond_order
 _atom_site_pbe_magmom
Cd  Cd0  1  0.99999946  0.99999994  0.00000241  1  0  0.973342  0  1.911829  0  0  0.784011  0  2.365533  0  0  0.830628  0  2.327933  0  0  0.679401  0.751709  0  2.390642  0
H  H1  1  0.65918631  0.18002277  0.13007852  1  0  0.094375  0  0.990901  0  0  0.097179  0  1.068745  0  0  0.100033  0  1.06514  0  0  0.117003  0.094983  0  1.071505  0
H  H2  1  0.34081288  0.81998057  0.86992208  1  0  0.094387  0  0.990999  0  0  0.097204  0  1.068815  0  0  0.100058  0  1.065209  0  0  0.11703  0.095008  0  1.071577  0
H  H3  1  0.13739489  0.18278763  0.31918975  1  0  0.094476  0  0.994188  0  0  0.101506  0  1.061261  0  0  0.103763  0  1.060533  0  0  0.108648  0.099862  0  1.061859  0
H  H4  1  0.86260614  0.81722454  0.68081199  1  0  0.094454  0  0.994144  0  0  0.101455  0  1.061266  0  0  0.103706  0  1.060537  0  0  0.108642  0.09981  0  1.061864  0
H  H5  1  0.95666682  0.35406936  0.49366147  1  0  0.107294  0  0.97034  0  0  0.116719  0  1.034379  0  0  0.119728  0  1.032627  0  0  0.118567  0.114717  0  1.035531  0
H  H6  1  0.04333068  0.64593647  0.50634147  1  0  0.107246  0  0.970236  0  0  0.116668  0  1.034295  0  0  0.119674  0  1.032541  0  0  0.118543  0.114667  0  1.035445  0
H  H7  1  0.53938563  0.34547292  0.29484213  1  0  0.09623  0  0.949267  0  0  0.107803  0  1.016606  0  0  0.10932  0  1.015487  0  0  0.10744  0.10649  0  1.017716  0
H  H8  1  0.46060649  0.65451776  0.70515458  1  0  0.096167  0  0.949297  0  0  0.107744  0  1.016622  0  0  0.109259  0  1.0155  0  0  0.107426  0.106433  0  1.017729  0
H  H9  1  0.70582113  0.50454786  0.41807417  1  0  0.081231  0  0.924027  0  0  0.097637  0  0.98313  0  0  0.098234  0  0.983639  0  0  0.108686  0.097199  0  0.98274  0
H  H10  1  0.29416941  0.49545286  0.58192482  1  0  0.081213  0  0.924028  0  0  0.097616  0  0.983116  0  0  0.0982  0  0.983638  0  0  0.108667  0.097178  0  0.982727  0
H  H11  1  0.34360796  0.07994886  0.33261983  1  0  0.093879  0  0.962785  0  0  0.102878  0  1.029046  0  0  0.105367  0  1.027919  0  0  0.09899  0.101003  0  1.030056  0
H  H12  1  0.65637825  0.92005055  0.66737790  1  0  0.093856  0  0.962837  0  0  0.102872  0  1.029081  0  0  0.105361  0  1.027953  0  0  0.098983  0.101  0  1.030093  0
H  H13  1  0.18345387  0.95580567  0.49131195  1  0  0.083943  0  0.960213  0  0  0.094845  0  1.019879  0  0  0.097238  0  1.01969  0  0  0.097206  0.093022  0  1.020234  0
H  H14  1  0.81654617  0.04419642  0.50869287  1  0  0.08398  0  0.960208  0  0  0.094836  0  1.019925  0  0  0.097232  0  1.019728  0  0  0.097192  0.09303  0  1.020251  0
H  H15  1  0.29991453  0.09000079  0.72028913  1  0  0.099084  0  0.96782  0  0  0.10687  0  1.034976  0  0  0.108973  0  1.035269  0  0  0.099155  0.105177  0  1.035251  0
H  H16  1  0.70009669  0.91000018  0.27971468  1  0  0.099087  0  0.967888  0  0  0.106868  0  1.035063  0  0  0.108973  0  1.035354  0  0  0.09916  0.105174  0  1.035339  0
H  H17  1  0.72123021  0.48453281  0.63302097  1  0  0.083161  0  0.986493  0  0  0.091387  0  1.059617  0  0  0.093395  0  1.060009  0  0  0.093311  0.08991  0  1.059507  0
H  H18  1  0.27876937  0.51546803  0.36697457  1  0  0.083161  0  0.986535  0  0  0.091377  0  1.059661  0  0  0.093388  0  1.060049  0  0  0.093321  0.089899  0  1.059547  0
H  H19  1  0.64404062  0.50861018  0.85821992  1  0  0.095983  0  0.965171  0  0  0.106531  0  1.033457  0  0  0.108737  0  1.031187  0  0  0.096883  0.104884  0  1.035079  0
H  H20  1  0.35596970  0.49138828  0.14177881  1  0  0.095982  0  0.965148  0  0  0.106522  0  1.033445  0  0  0.108727  0  1.031169  0  0  0.096865  0.104867  0  1.035062  0
H  H21  1  0.50407246  0.32310082  0.89012668  1  0  0.090306  0  0.95563  0  0  0.101406  0  1.024489  0  0  0.103269  0  1.022616  0  0  0.101103  0.099793  0  1.026265  0
H  H22  1  0.49593184  0.67689882  0.10987045  1  0  0.090319  0  0.955576  0  0  0.101452  0  1.024392  0  0  0.103317  0  1.022512  0  0  0.101098  0.099829  0  1.026165  0
H  H23  1  0.63846786  0.10453036  0.90825004  1  0  0.089731  0  0.974342  0  0  0.092616  0  1.052259  0  0  0.095317  0  1.04874  0  0  0.11855  0.090557  0  1.054911  0
H  H24  1  0.36153943  0.89546680  0.09174835  1  0  0.089714  0  0.974356  0  0  0.092613  0  1.052267  0  0  0.095295  0  1.048764  0  0  0.118532  0.090553  0  1.054922  0
H  H25  1  0.98003016  0.52056704  0.80892673  1  0  0.112446  0  0.98243  0  0  0.11966  0  1.049068  0  0  0.121937  0  1.048868  0  0  0.115932  0.118034  0  1.049277  0
H  H26  1  0.01997231  0.47942377  0.19106925  1  0  0.112371  0  0.982417  0  0  0.119622  0  1.049019  0  0  0.121877  0  1.048842  0  0  0.115925  0.117994  0  1.04923  0
H  H27  1  0.18909469  0.33908636  0.86645708  1  0  0.101086  0  0.958703  0  0  0.112643  0  1.017091  0  0  0.114879  0  1.016135  0  0  0.111614  0.110967  0  1.017951  0
H  H28  1  0.81090444  0.66091320  0.13354894  1  0  0.101113  0  0.958645  0  0  0.112678  0  1.017016  0  0  0.114916  0  1.016058  0  0  0.11165  0.111  0  1.017877  0
C  C29  1  0.76898090  0.20282100  0.20214136  1  0  0.154176  0  3.656252  0  0  0.094484  0  3.922947  0  0  0.10745  0  3.935843  0  0  0.13603  0.086065  0  3.914301  0
C  C30  1  0.23101818  0.79717479  0.79786200  1  0  0.154115  0  3.656185  0  0  0.094413  0  3.922886  0  0  0.10738  0  3.935787  0  0  0.135968  0.085991  0  3.914244  0
C  C31  1  0.01255635  0.20849008  0.30518863  1  0  -0.001131  0  3.777954  0  0  -0.032605  0  4.043533  0  0  -0.029516  0  4.061269  0  0  -0.006223  -0.034471  0  4.031466  0
C  C32  1  0.98744503  0.79151581  0.69481078  1  0  -0.001169  0  3.778094  0  0  -0.032632  0  4.043697  0  0  -0.029535  0  4.061426  0  0  -0.006224  -0.034497  0  4.031626  0
C  C33  1  0.92615454  0.29477111  0.39230376  1  0  -0.090165  0  3.70719  0  0  -0.128517  0  3.966385  0  0  -0.127009  0  3.983426  0  0  -0.00793  -0.129667  0  3.955004  0
C  C34  1  0.07384037  0.70523469  0.60770093  1  0  -0.090082  0  3.707188  0  0  -0.12843  0  3.96639  0  0  -0.126917  0  3.983425  0  0  -0.0079  -0.129582  0  3.955008  0
C  C35  1  0.63656982  0.36763701  0.37628719  1  0  -0.050953  0  3.653156  0  0  -0.117536  0  3.898801  0  0  -0.11319  0  3.909035  0  0  -0.051504  -0.120232  0  3.891815  0
C  C36  1  0.36342370  0.63236124  0.62371037  1  0  -0.050933  0  3.653241  0  0  -0.117463  0  3.898749  0  0  -0.113104  0  3.908977  0  0  -0.051494  -0.12016  0  3.891762  0
C  C37  1  0.54111805  0.29185151  0.47271126  1  0  0.069829  0  3.769776  0  0  0.090254  0  4.010039  0  0  0.089337  0  4.034652  0  0  -0.017288  0.090848  0  3.993307  0
C  C38  1  0.45887288  0.70814670  0.52728715  1  0  0.06974  0  3.769867  0  0  0.090178  0  4.010058  0  0  0.089263  0  4.034667  0  0  -0.017301  0.090773  0  3.993327  0
C  C39  1  0.39063233  0.14166475  0.43339978  1  0  -0.120797  0  3.739265  0  0  -0.139706  0  3.98471  0  0  -0.142244  0  4.006139  0  0  -0.092452  -0.13764  0  3.969991  0
C  C40  1  0.60935647  0.85833468  0.56660248  1  0  -0.120736  0  3.739198  0  0  -0.139675  0  3.984633  0  0  -0.142211  0  4.006059  0  0  -0.092446  -0.137615  0  3.969914  0
C  C41  1  0.30230057  0.07115963  0.52227322  1  0  -0.054815  0  3.786826  0  0  -0.066103  0  4.033251  0  0  -0.067656  0  4.055119  0  0  -0.092033  -0.064979  0  4.018226  0
C  C42  1  0.69769598  0.92883990  0.47773096  1  0  -0.05486  0  3.786739  0  0  -0.066097  0  4.033158  0  0  -0.067648  0  4.055029  0  0  -0.092032  -0.064977  0  4.018131  0
C  C43  1  0.36768392  0.14634922  0.65081816  1  0  -0.122427  0  3.735362  0  0  -0.144346  0  3.984412  0  0  -0.147231  0  4.006882  0  0  -0.090844  -0.142052  0  3.969041  0
C  C44  1  0.63232089  0.85365544  0.34918372  1  0  -0.122441  0  3.73539  0  0  -0.144373  0  3.984454  0  0  -0.147257  0  4.00692  0  0  -0.090846  -0.142085  0  3.969085  0
C  C45  1  0.52151042  0.29343043  0.69117394  1  0  0.080793  0  3.756085  0  0  0.102348  0  3.992454  0  0  0.101412  0  4.01716  0  0  -0.012341  0.102933  0  3.97565  0
C  C46  1  0.47849518  0.70656922  0.30882410  1  0  0.080876  0  3.756027  0  0  0.102391  0  3.992454  0  0  0.101453  0  4.017155  0  0  -0.012289  0.102976  0  3.975626  0
C  C47  1  0.60464010  0.36680350  0.60146401  1  0  -0.169894  0  3.725872  0  0  -0.195987  0  3.971051  0  0  -0.199344  0  3.993015  0  0  -0.096142  -0.193735  0  3.956305  0
C  C48  1  0.39535819  0.63319732  0.39853241  1  0  -0.169895  0  3.725918  0  0  -0.195971  0  3.971084  0  0  -0.199324  0  3.99304  0  0  -0.096166  -0.19372  0  3.95634  0
C  C49  1  0.60248792  0.36993455  0.82841699  1  0  -0.062626  0  3.639962  0  0  -0.12613  0  3.878832  0  0  -0.122029  0  3.888089  0  0  -0.057116  -0.128557  0  3.872414  0
C  C50  1  0.39751683  0.63006635  0.17158133  1  0  -0.062686  0  3.640088  0  0  -0.126151  0  3.878879  0  0  -0.122077  0  3.888202  0  0  -0.057091  -0.128536  0  3.872399  0
C  C51  1  0.76164140  0.19016180  0.88820634  1  0  0.145908  0  3.681656  0  0  0.088054  0  3.94684  0  0  0.100658  0  3.960967  0  0  0.129533  0.079898  0  3.937246  0
C  C52  1  0.23836639  0.80984040  0.11179232  1  0  0.145955  0  3.68147  0  0  0.088086  0  3.946642  0  0  0.100714  0  3.960774  0  0  0.129531  0.079932  0  3.937052  0
C  C53  1  0.94193496  0.40547405  0.83469323  1  0  -0.075074  0  3.685096  0  0  -0.114398  0  3.944543  0  0  -0.112856  0  3.963563  0  0  -0.008918  -0.115409  0  3.931648  0
C  C54  1  0.05806586  0.59452303  0.16530326  1  0  -0.074751  0  3.685158  0  0  -0.1141  0  3.944584  0  0  -0.112534  0  3.96362  0  0  -0.008805  -0.115113  0  3.931693  0
C  C55  1  0.04299592  0.31478053  0.86379080  1  0  -0.004258  0  3.772568  0  0  -0.037327  0  4.04007  0  0  -0.034936  0  4.05928  0  0  -0.011801  -0.038838  0  4.027042  0
C  C56  1  0.95700705  0.68521531  0.13621442  1  0  -0.004408  0  3.772702  0  0  -0.03749  0  4.04023  0  0  -0.035104  0  4.059436  0  0  -0.011902  -0.039  0  4.027201  0
N  N57  1  0.91359802  0.15213269  0.18744049  1  0  -0.376153  0  3.260355  0  0  -0.305898  0  3.542538  0  0  -0.325873  0  3.560597  0  0  -0.356488  -0.292372  0  3.530031  0
N  N58  1  0.08640162  0.84787192  0.81256220  1  0  -0.376094  0  3.26025  0  0  -0.305834  0  3.54243  0  0  -0.325811  0  3.560489  0  0  -0.35648  -0.292305  0  3.529917  0
N  N59  1  0.77259248  0.29094368  0.32518740  1  0  -0.059248  0  3.568015  0  0  0.037737  0  3.781709  0  0  0.022984  0  3.808193  0  0  -0.244246  0.047587  0  3.763521  0
N  N60  1  0.22740756  0.70905842  0.67481202  1  0  -0.059181  0  3.567805  0  0  0.03777  0  3.781484  0  0  0.023017  0  3.807964  0  0  -0.244215  0.04762  0  3.7633  0
N  N61  1  0.76392894  0.32511735  0.85142669  1  0  -0.051935  0  3.566145  0  0  0.044691  0  3.778611  0  0  0.029577  0  3.805878  0  0  -0.242362  0.054675  0  3.760066  0
N  N62  1  0.23607358  0.67487723  0.14857195  1  0  -0.052065  0  3.566131  0  0  0.044535  0  3.778646  0  0  0.029419  0  3.805895  0  0  -0.242397  0.054507  0  3.760093  0
N  N63  1  0.92898228  0.18061689  0.89693320  1  0  -0.381676  0  3.239432  0  0  -0.309739  0  3.517816  0  0  -0.329571  0  3.536621  0  0  -0.358319  -0.296312  0  3.504683  0
N  N64  1  0.07101855  0.81938019  0.10306778  1  0  -0.381661  0  3.239246  0  0  -0.309726  0  3.517661  0  0  -0.329558  0  3.536463  0  0  -0.358289  -0.2963  0  3.504526  0
Cl  Cl65  1  0.64760383  0.80481300  0.93513775  1  0  -0.639447  0  0.769056  0  0  -0.580965  0  1.009296  0  0  -0.595468  0  0.989929  0  0  -0.352351  -0.570202  0  1.023109  0
Cl  Cl66  1  0.35239486  0.19518531  0.06486079  1  0  -0.639447  0  0.769049  0  0  -0.580961  0  1.009294  0  0  -0.595462  0  0.989925  0  0  -0.352346  -0.570195  0  1.023108  0
