# generated using pymatgen
data_CuPH8C8N3O4
_symmetry_space_group_name_H-M   'P 1'
_cell_length_a   7.03184527
_cell_length_b   10.92640753
_cell_length_c   12.97158493
_cell_angle_alpha   108.91636850
_cell_angle_beta   90.00008035
_cell_angle_gamma   90.00030991
_symmetry_Int_Tables_number   1
_chemical_formula_structural   CuPH8C8N3O4
_chemical_formula_sum   'Cu4 P4 H32 C32 N12 O16'
_cell_volume   942.81735131
_cell_formula_units_Z   4
loop_
 _symmetry_equiv_pos_site_id
 _symmetry_equiv_pos_as_xyz
  1  'x, y, z'
loop_
 _atom_site_type_symbol
 _atom_site_label
 _atom_site_symmetry_multiplicity
 _atom_site_fract_x
 _atom_site_fract_y
 _atom_site_fract_z
 _atom_site_occupancy
 _atom_site_hle17_ddec_charge
 _atom_site_hle17_ddec_spin_density
 _atom_site_hle17_ddec_sum_bond_order
 _atom_site_hle17_magmom
 _atom_site_hse06_10hf_ddec_charge
 _atom_site_hse06_10hf_ddec_spin_density
 _atom_site_hse06_10hf_ddec_sum_bond_order
 _atom_site_hse06_10hf_magmom
 _atom_site_hse06_ddec_charge
 _atom_site_hse06_ddec_spin_density
 _atom_site_hse06_ddec_sum_bond_order
 _atom_site_hse06_magmom
 _atom_site_pbe_cm5_charge
 _atom_site_pbe_ddec_charge
 _atom_site_pbe_ddec_spin_density
 _atom_site_pbe_ddec_sum_bond_order
 _atom_site_pbe_magmom
Cu  Cu0  1  0.96693217  0.01269942  0.78811141  1  0.9431  -0.72014  1.823943  -0.529  0.937137  -0.818224  2.217774  -0.662  1.017623  -0.892501  2.158564  -0.749  0.770028  0.87962  -0.746724  2.266178  -0.59
Cu  Cu1  1  0.46693657  0.98729994  0.71189146  1  0.943036  0.720147  1.824129  0.529  0.937121  0.818236  2.217923  0.662  1.017549  0.892506  2.15876  0.749  0.77006  0.879576  0.746727  2.266322  0.59
Cu  Cu2  1  0.03306546  0.98730098  0.21189176  1  0.943085  0.720144  1.823967  0.529  0.937159  0.818232  2.217774  0.662  1.017596  0.892499  2.158585  0.749  0.770063  0.879606  0.746726  2.2662  0.59
Cu  Cu3  1  0.53306391  0.01270046  0.28811017  1  0.942995  -0.720153  1.824204  -0.529  0.937078  -0.818243  2.218009  -0.662  1.017537  -0.892517  2.158862  -0.749  0.77005  0.879544  -0.74673  2.26642  -0.59
P  P4  1  0.78484356  0.78821110  0.56901376  1  1.432249  0.003477  4.930984  0.002  1.290672  0.001839  5.445068  0.001  1.350208  0.001087  5.402815  0.001  0.323614  1.248052  0.00255  5.472046  0.001
P  P5  1  0.28485191  0.21178943  0.93098542  1  1.432212  -0.00348  4.930834  -0.002  1.290648  -0.001839  5.444924  -0.001  1.350185  -0.00109  5.402681  -0.001  0.323598  1.248027  -0.002549  5.471906  -0.001
P  P6  1  0.21515265  0.21178737  0.43098657  1  1.43213  -0.003479  4.930985  -0.002  1.290517  -0.00184  5.445086  -0.001  1.350048  -0.001091  5.402863  -0.001  0.323585  1.247897  -0.00255  5.47207  -0.001
P  P7  1  0.71515425  0.78821387  0.06901622  1  1.432174  0.003478  4.930955  0.002  1.290579  0.001838  5.445074  0.001  1.350115  0.001088  5.402836  0.001  0.323606  1.247959  0.002549  5.472043  0.001
H  H8  1  0.90629092  0.70154515  0.74654712  1  0.087535  0.000249  0.988437  0.0  0.094759  0.000214  1.057785  0.0  0.096456  0.000181  1.057509  0.0  0.101536  0.093444  0.000225  1.058116  0.0
H  H9  1  0.40630240  0.29845879  0.75345077  1  0.087538  -0.000249  0.988439  0.0  0.094783  -0.000214  1.057775  0.0  0.096479  -0.000181  1.057498  0.0  0.101532  0.093465  -0.000225  1.05812  0.0
H  H10  1  0.09370672  0.29845332  0.25345244  1  0.087555  -0.000251  0.988397  0.0  0.094763  -0.000214  1.05777  0.0  0.096458  -0.000181  1.057496  0.0  0.101521  0.093448  -0.000225  1.058104  0.0
H  H11  1  0.59370946  0.70154547  0.24654651  1  0.087559  0.00025  0.988478  0.0  0.094814  0.000214  1.057794  0.0  0.096511  0.000181  1.057518  0.0  0.101537  0.093498  0.000224  1.058133  0.0
H  H12  1  0.90115058  0.48935373  0.77678919  1  0.09645  7.5e-05  0.976474  0.0  0.108218  3.6e-05  1.037846  0.0  0.110658  2.3e-05  1.037115  0.0  0.104602  0.106416  4.6e-05  1.038547  0.0
H  H13  1  0.40115382  0.51064340  0.72320686  1  0.096488  -7.7e-05  0.976439  0.0  0.108238  -3.6e-05  1.037844  0.0  0.110677  -2.3e-05  1.037114  0.0  0.104606  0.106436  -4.6e-05  1.038542  0.0
H  H14  1  0.09884563  0.51064376  0.22321088  1  0.096467  -7.7e-05  0.976466  0.0  0.10825  -3.6e-05  1.037816  0.0  0.11069  -2.3e-05  1.037084  0.0  0.10461  0.106447  -4.6e-05  1.038519  0.0
H  H15  1  0.59885376  0.48935989  0.27679170  1  0.096458  7.7e-05  0.976446  0.0  0.108234  3.6e-05  1.037812  0.0  0.110673  2.3e-05  1.037081  0.0  0.104591  0.10643  4.6e-05  1.038511  0.0
H  H16  1  0.68293784  0.31011170  0.45205590  1  0.131873  9.9e-05  0.950367  0.0  0.140604  1.5e-05  1.009723  0.0  0.143829  3e-05  1.008459  0.0  0.110898  0.138211  2e-06  1.010805  0.0
H  H17  1  0.18293647  0.68989036  0.04794015  1  0.131704  -9.9e-05  0.950179  0.0  0.140413  -1.5e-05  1.009595  0.0  0.143634  -3e-05  1.008342  0.0  0.110832  0.138018  -2e-06  1.010679  0.0
H  H18  1  0.31705837  0.68988676  0.54794289  1  0.131875  -9.7e-05  0.95029  0.0  0.140625  -1.5e-05  1.009627  0.0  0.143851  -3e-05  1.00836  0.0  0.110893  0.138224  -2e-06  1.010726  0.0
H  H19  1  0.81705974  0.31011294  0.95206072  1  0.131892  9.9e-05  0.950306  0.0  0.140626  1.5e-05  1.009658  0.0  0.143849  3e-05  1.008397  0.0  0.11092  0.138229  2e-06  1.01075  0.0
H  H20  1  0.70177587  0.52420244  0.42065232  1  0.080037  -0.000142  0.979291  0.0  0.090342  -4.3e-05  1.043859  0.0  0.092726  -2.6e-05  1.043079  0.0  0.097641  0.088543  -5.9e-05  1.044575  0.0
H  H21  1  0.20177845  0.47579486  0.07934167  1  0.080118  0.000142  0.979213  0.0  0.090371  4.3e-05  1.043823  0.0  0.092751  2.6e-05  1.043055  0.0  0.097646  0.088572  5.9e-05  1.044541  0.0
H  H22  1  0.29822319  0.47579505  0.57934543  1  0.080087  0.000142  0.979251  0.0  0.090338  4.3e-05  1.043879  0.0  0.092722  2.6e-05  1.043098  0.0  0.097633  0.08854  5.9e-05  1.044595  0.0
H  H23  1  0.79822345  0.52420360  0.92065403  1  0.080095  -0.000144  0.979236  0.0  0.090345  -4.3e-05  1.043867  0.0  0.092729  -2.6e-05  1.043087  0.0  0.097644  0.088547  -5.9e-05  1.044583  0.0
H  H24  1  0.50161240  0.19109850  0.56922609  1  0.137188  -6.7e-05  0.954882  0.0  0.144851  -0.000129  1.013372  0.0  0.14836  -0.000103  1.009818  0.0  0.153258  0.141772  -0.000124  1.016378  0.0
H  H25  1  0.00161868  0.80890761  0.93077979  1  0.137196  6.8e-05  0.954892  0.0  0.144847  0.000129  1.01339  0.0  0.148357  0.000102  1.009832  0.0  0.153264  0.141774  0.000124  1.016379  0.0
H  H26  1  0.49838239  0.80889900  0.43077629  1  0.137273  6.9e-05  0.954882  0.0  0.144936  0.000129  1.013361  0.0  0.148435  0.000102  1.00982  0.0  0.153254  0.141859  0.000124  1.016361  0.0
H  H27  1  0.99838179  0.19109956  0.06922599  1  0.137245  -6.6e-05  0.954913  0.0  0.144846  -0.000129  1.013453  0.0  0.148392  -0.000102  1.009847  0.0  0.15324  0.141768  -0.000124  1.016454  0.0
H  H28  1  0.03028149  0.27504589  0.73589698  1  0.126023  0.000284  0.933942  0.0  0.135045  0.000285  0.994172  0.0  0.13754  0.000207  0.991089  0.0  0.151795  0.132689  0.000333  0.997151  0.0
H  H29  1  0.53027025  0.72495259  0.76410068  1  0.126061  -0.000286  0.933958  0.0  0.13509  -0.000285  0.994183  0.0  0.137588  -0.000207  0.991094  0.0  0.151819  0.132737  -0.000333  0.997161  0.0
H  H30  1  0.96972041  0.72495354  0.26410361  1  0.125975  -0.000285  0.934044  0.0  0.135003  -0.000285  0.994262  0.0  0.137498  -0.000207  0.991179  0.0  0.151792  0.132654  -0.000333  0.997241  0.0
H  H31  1  0.46973023  0.27505167  0.23590046  1  0.126067  0.000284  0.933935  0.0  0.135085  0.000285  0.99418  0.0  0.137583  0.000207  0.991091  0.0  0.151775  0.132725  0.000333  0.99716  0.0
H  H32  1  0.62459699  0.04499281  0.90058217  1  0.422286  -0.000313  0.882643  0.0  0.394804  -0.000228  0.94317  0.0  0.406752  -0.000219  0.925297  0.0  0.281359  0.386398  -0.000217  0.95572  0.0
H  H33  1  0.12460225  0.95500317  0.59941720  1  0.422217  0.000313  0.882719  0.0  0.394733  0.000228  0.943251  0.0  0.406679  0.000218  0.925381  0.0  0.281351  0.386327  0.000217  0.955801  0.0
H  H34  1  0.37540349  0.95500759  0.09941946  1  0.422283  0.000313  0.882642  0.0  0.394799  0.000228  0.943173  0.0  0.406747  0.000218  0.925299  0.0  0.281371  0.386394  0.000217  0.955721  0.0
H  H35  1  0.87539681  0.04499626  0.40058416  1  0.422214  -0.000313  0.88272  0.0  0.394722  -0.000228  0.943265  0.0  0.40667  -0.000219  0.925394  0.0  0.281344  0.386317  -0.000217  0.955813  0.0
H  H36  1  0.71183669  0.91658764  0.92094546  1  0.425481  6.2e-05  0.881615  0.0  0.399777  1e-05  0.938403  0.0  0.4116  3e-06  0.921463  0.0  0.279162  0.391261  1.6e-05  0.950519  0.0
H  H37  1  0.21184733  0.08341163  0.57905872  1  0.425514  -6.3e-05  0.881573  0.0  0.399801  -1e-05  0.938375  0.0  0.411623  -4e-06  0.921435  0.0  0.279188  0.391287  -1.6e-05  0.950489  0.0
H  H38  1  0.28816237  0.08341180  0.07905590  1  0.425482  -6.3e-05  0.881608  0.0  0.399778  -1e-05  0.938395  0.0  0.411599  -4e-06  0.921456  0.0  0.279166  0.391261  -1.6e-05  0.950511  0.0
H  H39  1  0.78815030  0.91658781  0.42094341  1  0.425498  6.3e-05  0.881581  0.0  0.399795  1e-05  0.938367  0.0  0.411617  3e-06  0.921427  0.0  0.279197  0.391281  1.6e-05  0.95048  0.0
C  C40  1  0.80408394  0.62729552  0.58126561  1  -0.217739  0.004381  3.736494  0.004  -0.177367  0.002657  3.970334  0.003  -0.186757  0.00148  3.991454  0.002  -0.021697  -0.171535  0.003645  3.956924  0.004
C  C41  1  0.30409362  0.37269927  0.91872818  1  -0.217683  -0.00437  3.736431  -0.004  -0.177396  -0.002657  3.97039  -0.003  -0.186784  -0.001478  3.991499  -0.002  -0.02171  -0.171564  -0.003644  3.956985  -0.004
C  C42  1  0.19591654  0.37270101  0.41873342  1  -0.217664  -0.00439  3.736567  -0.004  -0.177264  -0.002656  3.970343  -0.003  -0.186646  -0.001477  3.991439  -0.002  -0.021632  -0.171434  -0.003645  3.956932  -0.004
C  C43  1  0.69591539  0.62730015  0.08126933  1  -0.21768  0.004365  3.736243  0.004  -0.177332  0.002656  3.970122  0.003  -0.186713  0.001479  3.991216  0.002  -0.021645  -0.1715  0.003644  3.956719  0.004
C  C44  1  0.86204035  0.61573878  0.68104877  1  -0.03413  0.003919  3.762511  0.004  -0.056597  0.001568  4.009945  0.002  -0.056972  0.00116  4.032182  0.001  -0.085883  -0.056291  0.001905  3.995163  0.002
C  C45  1  0.36204419  0.38425530  0.81894718  1  -0.03418  -0.003928  3.762509  -0.004  -0.056626  -0.001569  4.009942  -0.002  -0.057001  -0.001159  4.032181  -0.001  -0.085884  -0.056322  -0.001905  3.995169  -0.002
C  C46  1  0.13796155  0.38425581  0.31894897  1  -0.034164  -0.003905  3.762391  -0.004  -0.05662  -0.001569  4.009811  -0.002  -0.056997  -0.00116  4.032051  -0.001  -0.085877  -0.056315  -0.001905  3.995033  -0.002
C  C47  1  0.63795771  0.61574317  0.18105469  1  -0.034136  0.003933  3.762374  0.004  -0.056614  0.001568  4.0098  0.002  -0.05699  0.00116  4.032038  0.001  -0.08587  -0.056311  0.001905  3.995026  0.002
C  C48  1  0.85759865  0.49704707  0.69861832  1  -0.146585  -0.001463  3.739098  -0.001  -0.170046  3.6e-05  3.999359  0.0  -0.173996  -0.000126  4.020623  0.0  -0.08958  -0.167346  0.000181  3.985054  0.0
C  C49  1  0.35761055  0.50294989  0.80137687  1  -0.1467  0.001475  3.739062  0.001  -0.170139  -3.5e-05  3.999314  0.0  -0.174101  0.000127  4.020571  0.0  -0.089669  -0.167437  -0.000181  3.985005  0.0
C  C50  1  0.14240041  0.50294849  0.30137814  1  -0.146635  0.001455  3.739153  0.001  -0.170115  -3.5e-05  3.999424  0.0  -0.174074  0.000127  4.020678  0.0  -0.089632  -0.167415  -0.000181  3.985117  0.0
C  C51  1  0.64239988  0.49704953  0.19861909  1  -0.146624  -0.001479  3.739338  -0.001  -0.170094  3.6e-05  3.99957  0.0  -0.174056  -0.000126  4.020827  0.0  -0.089608  -0.167391  0.000181  3.985261  0.0
C  C52  1  0.79079769  0.38824871  0.61624729  1  0.188557  0.003962  3.762105  0.004  0.17829  0.001211  4.012741  0.001  0.183393  0.000886  4.035169  0.001  0.096636  0.174632  0.001506  3.997928  0.002
C  C53  1  0.29080362  0.61174894  0.88374881  1  0.188624  -0.003974  3.762284  -0.004  0.178368  -0.001212  4.01292  -0.001  0.183504  -0.000887  4.035302  -0.001  0.096725  0.174713  -0.001506  3.998098  -0.002
C  C54  1  0.20919567  0.61174878  0.38375047  1  0.188569  -0.003953  3.762407  -0.004  0.178299  -0.001212  4.013058  -0.001  0.183433  -0.000886  4.035442  -0.001  0.096692  0.174642  -0.001506  3.998237  -0.002
C  C55  1  0.70919828  0.38825243  0.11625154  1  0.188534  0.003975  3.762361  0.004  0.178287  0.00121  4.012975  0.001  0.183423  0.000885  4.035356  0.001  0.096663  0.174631  0.001505  3.998154  0.002
C  C56  1  0.73490758  0.39596938  0.51538033  1  -0.133702  -0.002536  3.676356  -0.003  -0.153575  -0.000513  3.93018  -0.001  -0.15686  -0.000477  3.949501  -0.001  -0.082857  -0.151494  -0.000481  3.917609  -0.001
C  C57  1  0.23490942  0.60402512  0.98460947  1  -0.133574  0.002546  3.676385  0.003  -0.153443  0.000513  3.930251  0.001  -0.156745  0.000477  3.949575  0.001  -0.082809  -0.151359  0.000481  3.91767  0.001
C  C58  1  0.26509148  0.60402714  0.48461562  1  -0.133737  0.002521  3.676441  0.003  -0.153636  0.000513  3.930266  0.001  -0.156936  0.000477  3.949588  0.001  -0.08289  -0.151557  0.000481  3.917685  0.001
C  C59  1  0.76509105  0.39597333  0.01538546  1  -0.133787  -0.00255  3.67647  -0.003  -0.15368  -0.000512  3.930308  -0.001  -0.156978  -0.000476  3.949625  -0.001  -0.082906  -0.1516  -0.000481  3.91773  -0.001
C  C60  1  0.74332833  0.51595818  0.49891328  1  -0.021344  0.003923  3.752192  0.004  -0.043739  0.001114  3.997522  0.001  -0.044165  0.000807  4.020309  0.001  -0.077637  -0.04346  0.001372  3.982586  0.001
C  C61  1  0.24332936  0.48404316  0.00108185  1  -0.021361  -0.003934  3.752082  -0.004  -0.043667  -0.001115  3.997419  -0.001  -0.044094  -0.000807  4.020205  -0.001  -0.077582  -0.043389  -0.001373  3.982484  -0.001
C  C62  1  0.25667357  0.48404028  0.50108397  1  -0.021382  -0.003913  3.752271  -0.004  -0.043722  -0.001115  3.99759  -0.001  -0.044149  -0.000808  4.020382  -0.001  -0.077645  -0.043444  -0.001373  3.982656  -0.001
C  C63  1  0.75666970  0.51595916  0.99891644  1  -0.02136  0.00394  3.752228  0.004  -0.043697  0.001114  3.997571  0.001  -0.044123  0.000808  4.020362  0.001  -0.077655  -0.043418  0.001372  3.982635  0.001
C  C64  1  0.62474086  0.18559533  0.61842579  1  0.206406  -0.006925  3.539794  -0.007  0.152966  -0.001816  3.796399  -0.002  0.170102  -0.002219  3.80313  -0.002  0.184812  0.141351  -0.001403  3.79285  -0.001
C  C65  1  0.12474138  0.81440355  0.88157359  1  0.206428  0.006932  3.540015  0.007  0.153042  0.001817  3.796591  0.002  0.170175  0.002218  3.80333  0.002  0.184815  0.14143  0.001403  3.793032  0.001
C  C66  1  0.37525962  0.81440217  0.38157582  1  0.206249  0.006932  3.539956  0.007  0.152833  0.001816  3.796533  0.002  0.169975  0.002218  3.803279  0.002  0.184783  0.141221  0.001403  3.792979  0.001
C  C67  1  0.87526052  0.18559781  0.11842367  1  0.206228  -0.006931  3.539969  -0.007  0.152896  -0.001816  3.796517  -0.002  0.170004  -0.002218  3.803231  -0.002  0.184764  0.141284  -0.001403  3.792955  -0.001
C  C68  1  0.89438446  0.23121334  0.70660416  1  0.20907  0.008184  3.56443  0.008  0.151648  0.003034  3.827161  0.003  0.170625  0.003244  3.832989  0.003  0.181913  0.138594  0.002805  3.82416  0.003
C  C69  1  0.39438011  0.76878958  0.79339653  1  0.208989  -0.008194  3.564336  -0.008  0.15152  -0.003033  3.827118  -0.003  0.170498  -0.003246  3.832941  -0.003  0.181808  0.138462  -0.002806  3.82411  -0.003
C  C70  1  0.10561317  0.76878609  0.29339643  1  0.209118  -0.008185  3.564409  -0.008  0.151674  -0.003033  3.827149  -0.003  0.170651  -0.003245  3.832973  -0.003  0.181892  0.138611  -0.002806  3.824152  -0.003
C  C71  1  0.60562037  0.23121468  0.20660538  1  0.208945  0.008186  3.564304  0.008  0.151503  0.003035  3.827051  0.003  0.170481  0.003245  3.832877  0.003  0.181876  0.138454  0.002805  3.824041  0.003
N  N72  1  0.82135628  0.12900967  0.72457955  1  -0.217631  -0.054653  3.230751  -0.069  -0.184657  -0.042613  3.545159  -0.058  -0.207675  -0.036245  3.56193  -0.051  -0.253756  -0.170111  -0.044558  3.535375  -0.058
N  N73  1  0.32134564  0.87099584  0.77542256  1  -0.217588  0.054666  3.230617  0.069  -0.184543  0.042612  3.544973  0.058  -0.207548  0.036246  3.561742  0.051  -0.25371  -0.16999  0.044561  3.535174  0.058
N  N74  1  0.17864419  0.87099169  0.27542157  1  -0.217626  0.05466  3.230677  0.069  -0.184613  0.042613  3.54508  0.058  -0.207619  0.036247  3.561845  0.051  -0.253722  -0.170058  0.044559  3.535296  0.058
N  N75  1  0.67865058  0.12900843  0.22458089  1  -0.217548  -0.054653  3.230557  -0.069  -0.184536  -0.042612  3.544951  -0.058  -0.207552  -0.036245  3.561734  -0.051  -0.2537  -0.16999  -0.044558  3.535159  -0.058
N  N76  1  0.65197950  0.10086985  0.67002661  1  -0.216832  0.057601  3.226393  0.074  -0.184933  0.043048  3.542141  0.059  -0.208849  0.036021  3.559824  0.052  -0.253642  -0.169865  0.045325  3.531625  0.06
N  N77  1  0.15197065  0.89912723  0.82997693  1  -0.21693  -0.057606  3.226562  -0.074  -0.185096  -0.043048  3.542343  -0.059  -0.209027  -0.036018  3.560037  -0.052  -0.253692  -0.170038  -0.045326  3.531828  -0.06
N  N78  1  0.34802098  0.89912959  0.32997476  1  -0.216771  -0.05761  3.226422  -0.074  -0.184946  -0.04305  3.542216  -0.059  -0.208874  -0.03602  3.559914  -0.052  -0.253677  -0.169884  -0.045328  3.531703  -0.06
N  N79  1  0.84802556  0.10087221  0.17002674  1  -0.216787  0.057606  3.226388  0.074  -0.184961  0.043048  3.542161  0.059  -0.208881  0.036022  3.559854  0.052  -0.253635  -0.169891  0.045327  3.53164  0.06
N  N80  1  0.77391546  0.27052025  0.64095972  1  -0.11041  0.000323  3.537857  0.0  -0.021132  0.000276  3.749365  0.0  -0.037478  0.000232  3.768312  0.0  -0.206128  -0.010755  0.000314  3.737323  0.0
N  N81  1  0.27391236  0.72947829  0.85903814  1  -0.110334  -0.000327  3.537861  0.0  -0.021066  -0.000276  3.749364  0.0  -0.037422  -0.000232  3.768306  0.0  -0.20607  -0.010693  -0.000315  3.737316  0.0
N  N82  1  0.22608218  0.72947725  0.35903957  1  -0.110359  -0.000329  3.537983  0.0  -0.021074  -0.000276  3.749465  0.0  -0.037427  -0.000231  3.768404  0.0  -0.206086  -0.010697  -0.000314  3.73742  0.0
N  N83  1  0.72608670  0.27052404  0.14096170  1  -0.110273  0.000326  3.537813  0.0  -0.021002  0.000276  3.749292  0.0  -0.037359  0.000232  3.768242  0.0  -0.206088  -0.010626  0.000314  3.737243  0.0
O  O84  1  0.58193119  0.82769803  0.61415348  1  -0.83726  0.081349  2.071912  0.109  -0.810007  0.049256  2.396231  0.072  -0.855539  0.036903  2.380391  0.057  -0.392036  -0.776811  0.054561  2.405877  0.077
O  O85  1  0.08193767  0.17230068  0.88584736  1  -0.837207  -0.08136  2.071694  -0.109  -0.809929  -0.049261  2.395994  -0.072  -0.855463  -0.036904  2.380134  -0.057  -0.392004  -0.776729  -0.054565  2.405625  -0.077
O  O86  1  0.41806360  0.17229753  0.38584528  1  -0.837206  -0.081355  2.071857  -0.109  -0.809947  -0.049257  2.396204  -0.072  -0.855484  -0.036902  2.380358  -0.057  -0.392018  -0.776736  -0.054562  2.405814  -0.077
O  O87  1  0.91806707  0.82770165  0.11415248  1  -0.837199  0.081354  2.071772  0.109  -0.809938  0.049258  2.396087  0.072  -0.855466  0.036904  2.380239  0.057  -0.392048  -0.776735  0.054564  2.405735  0.077
O  O88  1  0.94319789  0.87180422  0.64184592  1  -0.848782  -0.074284  2.084093  -0.099  -0.806636  -0.043518  2.38561  -0.063  -0.84828  -0.032063  2.365832  -0.049  -0.386851  -0.775559  -0.05097  2.397675  -0.071
O  O89  1  0.44320393  0.12819213  0.85815302  1  -0.848818  0.074294  2.08406  0.099  -0.806695  0.043522  2.385592  0.063  -0.848339  0.032066  2.365832  0.049  -0.386895  -0.775595  0.050975  2.397623  0.071
O  O90  1  0.05679548  0.12819521  0.35815544  1  -0.848801  0.074288  2.084178  0.099  -0.80661  0.043521  2.385606  0.063  -0.848233  0.032066  2.365792  0.049  -0.38685  -0.775524  0.050972  2.39767  0.071
O  O91  1  0.55680081  0.87180537  0.14185090  1  -0.848794  -0.074288  2.084104  -0.099  -0.806644  -0.043519  2.3856  -0.063  -0.84828  -0.032063  2.365814  -0.049  -0.386873  -0.775563  -0.050972  2.397675  -0.071
O  O92  1  0.74304218  0.99666901  0.90257612  1  -0.87538  0.00087  1.871393  0.0  -0.841222  -0.000541  2.077687  -0.001  -0.861085  -0.000323  2.036971  -0.001  -0.60794  -0.825715  -0.000549  2.106427  -0.001
O  O93  1  0.24304793  0.00333135  0.59742993  1  -0.875325  -0.00087  1.871439  0.0  -0.841185  0.000541  2.077772  0.001  -0.861039  0.000324  2.037062  0.001  -0.607971  -0.825649  0.000548  2.106457  0.001
O  O94  1  0.25695687  0.00332945  0.09742344  1  -0.875366  -0.00087  1.871381  0.0  -0.841215  0.000541  2.07768  0.001  -0.86107  0.000324  2.036967  0.001  -0.607957  -0.825689  0.000549  2.106394  0.001
O  O95  1  0.75695113  0.99666614  0.40256937  1  -0.875307  0.000869  1.871471  0.0  -0.841167  -0.000541  2.077798  -0.001  -0.86103  -0.000322  2.037087  -0.001  -0.60797  -0.825633  -0.000548  2.106483  -0.001
O  O96  1  0.80425790  0.77827296  0.44979974  1  -0.826454  -0.014903  1.884671  -0.019  -0.769222  -0.004491  2.128756  -0.006  -0.802205  -0.002368  2.112805  -0.003  -0.37926  -0.742068  -0.007294  2.137112  -0.01
O  O97  1  0.30426964  0.22173349  0.05020222  1  -0.82644  0.014904  1.884613  0.019  -0.769209  0.00449  2.128702  0.006  -0.802203  0.002369  2.112762  0.003  -0.37923  -0.742062  0.007293  2.137074  0.01
O  O98  1  0.19573689  0.22172937  0.55020164  1  -0.826409  0.014905  1.884654  0.019  -0.769157  0.00449  2.128725  0.006  -0.802144  0.002369  2.112778  0.003  -0.379255  -0.74201  0.007293  2.137096  0.01
O  O99  1  0.69573510  0.77827272  0.94980021  1  -0.82642  -0.014899  1.884691  -0.019  -0.769162  -0.004489  2.128739  -0.006  -0.802148  -0.002367  2.112786  -0.003  -0.379228  -0.742017  -0.007292  2.137122  -0.01
