# generated using pymatgen
data_ZnH16C24(NO2)2
_symmetry_space_group_name_H-M   'P 1'
_cell_length_a   14.35781660
_cell_length_b   15.09357961
_cell_length_c   15.19837385
_cell_angle_alpha   90.00016186
_cell_angle_beta   105.90432654
_cell_angle_gamma   89.99985442
_symmetry_Int_Tables_number   1
_chemical_formula_structural   ZnH16C24(NO2)2
_chemical_formula_sum   'Zn4 H64 C96 N8 O16'
_cell_volume   3167.57350644
_cell_formula_units_Z   4
loop_
 _symmetry_equiv_pos_site_id
 _symmetry_equiv_pos_as_xyz
  1  'x, y, z'
loop_
 _atom_site_type_symbol
 _atom_site_label
 _atom_site_symmetry_multiplicity
 _atom_site_fract_x
 _atom_site_fract_y
 _atom_site_fract_z
 _atom_site_occupancy
 _atom_site_pbe_bader_charge
 _atom_site_pbe_bader_spin_density
 _atom_site_pbe_cm5_charge
 _atom_site_pbe_ddec_charge
 _atom_site_pbe_ddec_spin_density
 _atom_site_pbe_ddec_sum_bond_order
 _atom_site_pbe_magmom
Zn  Zn0  1  0.99383969  0.26454479  0.74795626  1  1.25519  0  0.678939  0.746075  0  2.365201  0
Zn  Zn1  1  0.50616191  0.76454469  0.25204517  1  1.255176  0  0.678949  0.746138  0  2.365174  0
Zn  Zn2  1  0.00616117  0.73545412  0.25204632  1  1.2552  0  0.678945  0.746105  0  2.365147  0
Zn  Zn3  1  0.49383970  0.23545422  0.74795498  1  1.25519  0  0.678953  0.746083  0  2.36519  0
H  H4  1  0.82332881  0.47776380  0.51068511  1  0.086584  0  0.103356  0.104809  0  1.025523  0
H  H5  1  0.67667237  0.97776727  0.48931615  1  0.086563  0  0.103355  0.104795  0  1.025536  0
H  H6  1  0.17666699  0.52223180  0.48931547  1  0.086647  0  0.103362  0.104785  0  1.025569  0
H  H7  1  0.32333140  0.02223429  0.51068523  1  0.086597  0  0.103346  0.104767  0  1.025546  0
H  H8  1  0.04875985  0.31019608  0.47384164  1  0.091809  0  0.104023  0.106589  0  1.0034  0
H  H9  1  0.45124307  0.81019966  0.52615647  1  0.092134  0  0.104029  0.106641  0  1.003404  0
H  H10  1  0.95123886  0.68980217  0.52615839  1  0.092072  0  0.104034  0.106609  0  1.003359  0
H  H11  1  0.54876073  0.18980124  0.47384163  1  0.092082  0  0.104061  0.10664  0  1.00337  0
H  H12  1  0.18760178  0.47156062  0.98384519  1  0.090805  0  0.101122  0.101055  0  1.028585  0
H  H13  1  0.31240008  0.97156043  0.01615639  1  0.090827  0  0.101102  0.101011  0  1.028598  0
H  H14  1  0.81239765  0.52843896  0.01615570  1  0.090825  0  0.101103  0.101012  0  1.028598  0
H  H15  1  0.68760225  0.02844047  0.98384461  1  0.090803  0  0.101122  0.101056  0  1.028563  0
H  H16  1  0.91266128  0.49658326  0.26138637  1  0.103878  0  0.105248  0.113589  0  1.029551  0
H  H17  1  0.58733698  0.99658633  0.73861351  1  0.103812  0  0.105254  0.113638  0  1.029514  0
H  H18  1  0.08733597  0.50341499  0.73861460  1  0.103811  0  0.105249  0.113627  0  1.029579  0
H  H19  1  0.41266174  0.00341523  0.26138522  1  0.103824  0  0.105259  0.113649  0  1.029555  0
H  H20  1  0.10859669  0.49357961  0.23847130  1  0.102525  0  0.106148  0.114412  0  1.018936  0
H  H21  1  0.39140439  0.99357870  0.76153079  1  0.102584  0  0.106115  0.114415  0  1.018977  0
H  H22  1  0.89140419  0.50642063  0.76152931  1  0.102556  0  0.10614  0.114427  0  1.018898  0
H  H23  1  0.60859721  0.00642021  0.23847067  1  0.102538  0  0.106128  0.114391  0  1.018939  0
H  H24  1  0.64501074  0.71111676  0.42889639  1  0.093071  0  0.119063  0.091244  0  1.000569  0
H  H25  1  0.85498663  0.21111868  0.57110311  1  0.093062  0  0.119059  0.091275  0  1.000513  0
H  H26  1  0.35498652  0.28888149  0.57110326  1  0.093068  0  0.119065  0.091272  0  1.000503  0
H  H27  1  0.14501426  0.78888222  0.42889685  1  0.093077  0  0.119064  0.091289  0  1.00051  0
H  H28  1  0.94510632  0.32709094  0.01926813  1  0.095779  0  0.104116  0.108297  0  0.995186  0
H  H29  1  0.55489661  0.82709147  0.98073382  1  0.095727  0  0.104153  0.108304  0  0.995136  0
H  H30  1  0.05489238  0.67290996  0.98073257  1  0.095814  0  0.104109  0.108278  0  0.995217  0
H  H31  1  0.44510571  0.17290943  0.01926848  1  0.095771  0  0.104122  0.108317  0  0.99519  0
H  H32  1  0.18577015  0.61500468  0.25536136  1  0.166426  0  0.108824  0.132072  0  1.050365  0
H  H33  1  0.31423241  0.11500256  0.74464071  1  0.166523  0  0.108827  0.132064  0  1.050366  0
H  H34  1  0.81423074  0.38499556  0.74463859  1  0.166393  0  0.108821  0.132072  0  1.050364  0
H  H35  1  0.68576848  0.88499503  0.25535925  1  0.166605  0  0.108818  0.132051  0  1.050408  0
H  H36  1  0.76740497  0.55098065  0.20247666  1  0.145868  0  0.112159  0.130086  0  1.007244  0
H  H37  1  0.73259562  0.05098219  0.79752324  1  0.145868  0  0.112166  0.13008  0  1.00724  0
H  H38  1  0.23259591  0.44901892  0.79752461  1  0.146246  0  0.11215  0.130069  0  1.007218  0
H  H39  1  0.26740236  0.94902004  0.20247661  1  0.145852  0  0.11213  0.130001  0  1.007316  0
H  H40  1  0.03182204  0.37600930  0.31961774  1  0.037998  0  0.099873  0.095648  0  1.02089  0
H  H41  1  0.46818003  0.87601062  0.68037967  1  0.038075  0  0.099877  0.095635  0  1.02089  0
H  H42  1  0.96817812  0.62399094  0.68038268  1  0.03798  0  0.099883  0.095677  0  1.020894  0
H  H43  1  0.53182088  0.12398962  0.31961765  1  0.038014  0  0.09988  0.095662  0  1.020873  0
H  H44  1  0.32554966  0.71722420  0.30579365  1  0.092012  0  0.119321  0.095737  0  0.997309  0
H  H45  1  0.17445198  0.21722095  0.69420715  1  0.092062  0  0.119338  0.095791  0  0.99724  0
H  H46  1  0.67445123  0.28277670  0.69420565  1  0.092006  0  0.119322  0.09574  0  0.997306  0
H  H47  1  0.82554891  0.78277664  0.30579281  1  0.092036  0  0.119322  0.09573  0  0.997325  0
H  H48  1  0.78190002  0.60731823  0.48490980  1  0.09972  0  0.111987  0.120368  0  1.001318  0
H  H49  1  0.71809611  0.10732165  0.51508973  1  0.099768  0  0.111976  0.120312  0  1.001261  0
H  H50  1  0.21809651  0.39267869  0.51509032  1  0.099766  0  0.111987  0.120348  0  1.001315  0
H  H51  1  0.28190478  0.89267991  0.48491022  1  0.099778  0  0.11199  0.120381  0  1.001263  0
H  H52  1  0.63398960  0.66120377  0.15863705  1  0.077488  0  0.120733  0.094202  0  0.984444  0
H  H53  1  0.86601151  0.16120578  0.84136198  1  0.077481  0  0.120736  0.094198  0  0.984449  0
H  H54  1  0.36601202  0.33879514  0.84136244  1  0.077484  0  0.120717  0.094178  0  0.984491  0
H  H55  1  0.13398793  0.83879578  0.15863825  1  0.0775  0  0.120716  0.094178  0  0.984507  0
H  H56  1  0.45658182  0.61702223  0.11627027  1  0.073971  0  0.115397  0.079524  0  0.998744  0
H  H57  1  0.04341857  0.11702050  0.88372991  1  0.073985  0  0.1154  0.079531  0  0.998767  0
H  H58  1  0.54342052  0.38297668  0.88373073  1  0.074009  0  0.115404  0.079533  0  0.998811  0
H  H59  1  0.95658303  0.88297775  0.11627089  1  0.074006  0  0.115395  0.07954  0  0.99878  0
H  H60  1  0.97214747  0.39044919  0.17566801  1  0.071074  0  0.099727  0.094999  0  1.025031  0
H  H61  1  0.52785534  0.89044868  0.82433343  1  0.071051  0  0.099702  0.094953  0  1.025049  0
H  H62  1  0.02785414  0.60955171  0.82433213  1  0.07106  0  0.09972  0.094972  0  1.025041  0
H  H63  1  0.47214771  0.10955156  0.17566842  1  0.071066  0  0.099744  0.095017  0  1.024988  0
H  H64  1  0.32665120  0.50598834  0.06111642  1  0.051206  0  0.109088  0.116659  0  1.001193  0
H  H65  1  0.17335013  0.00598579  0.93888502  1  0.051159  0  0.109083  0.116594  0  1.001224  0
H  H66  1  0.67335041  0.49401256  0.93888439  1  0.051207  0  0.109089  0.116627  0  1.001205  0
H  H67  1  0.82665220  0.99401312  0.06111663  1  0.051181  0  0.109099  0.116663  0  1.001206  0
C  C68  1  0.85719841  0.49525445  0.38048217  1  -0.046161  0  -0.010312  0.051467  0  3.987924  0
C  C69  1  0.64280276  0.99525639  0.61951650  1  -0.046294  0  -0.010246  0.051575  0  3.987908  0
C  C70  1  0.14279886  0.50474380  0.61951551  1  -0.046082  0  -0.010236  0.051491  0  3.987962  0
C  C71  1  0.35719812  0.00474584  0.38048411  1  -0.046228  0  -0.010279  0.051528  0  3.987911  0
C  C72  1  0.78356212  0.56475955  0.34857804  1  -0.067508  0  0.022547  0.130215  0  3.954835  0
C  C73  1  0.71643627  0.06476336  0.65142131  1  -0.067496  0  0.022564  0.130242  0  3.954817  0
C  C74  1  0.21643514  0.43523804  0.65142161  1  -0.067601  0  0.02257  0.130277  0  3.954806  0
C  C75  1  0.28356388  0.93523953  0.34857977  1  -0.067526  0  0.022571  0.130224  0  3.954876  0
C  C76  1  0.94864381  0.35889667  0.59648869  1  1.55019  0  0.193117  0.550084  0  4.241179  0
C  C77  1  0.55135836  0.85889954  0.40351052  1  1.550361  0  0.193125  0.550029  0  4.241228  0
C  C78  1  0.05135346  0.64110224  0.40351096  1  1.550092  0  0.193183  0.550131  0  4.241242  0
C  C79  1  0.44864543  0.14110136  0.59648955  1  1.550167  0  0.193138  0.550087  0  4.241186  0
C  C80  1  0.93760892  0.39242140  0.50137921  1  -0.026444  0  -0.02031  -0.032616  0  3.999909  0
C  C81  1  0.56239101  0.89242385  0.49861884  1  -0.02646  0  -0.020327  -0.032532  0  3.999814  0
C  C82  1  0.06238979  0.60757818  0.49862148  1  -0.026515  0  -0.020281  -0.032509  0  3.999852  0
C  C83  1  0.43760917  0.10757970  0.50137895  1  -0.026478  0  -0.02032  -0.032661  0  3.999965  0
C  C84  1  0.86846455  0.45759020  0.46716306  1  0.026913  0  -0.077295  -0.127705  0  3.933372  0
C  C85  1  0.63153381  0.95759391  0.53283410  1  0.026965  0  -0.077312  -0.127779  0  3.933487  0
C  C86  1  0.13152839  0.54240738  0.53283347  1  0.026921  0  -0.077401  -0.127784  0  3.933517  0
C  C87  1  0.36846780  0.04240898  0.46716605  1  0.026974  0  -0.07725  -0.127623  0  3.933419  0
C  C88  1  0.06674855  0.39492356  0.99370859  1  -0.025996  0  -0.019183  -0.026953  0  3.987667  0
C  C89  1  0.43325419  0.89492437  0.00629300  1  -0.026098  0  -0.019181  -0.026942  0  3.987598  0
C  C90  1  0.93324944  0.60507668  0.00629125  1  -0.025953  0  -0.01917  -0.02701  0  3.987713  0
C  C91  1  0.56674887  0.10507719  0.99370819  1  -0.026057  0  -0.019183  -0.027017  0  3.987692  0
C  C92  1  0.16094925  0.48873957  0.11723895  1  0.006009  0  -0.010526  0.048724  0  3.995867  0
C  C93  1  0.33905185  0.98873780  0.88276181  1  0.005912  0  -0.010629  0.048642  0  3.996065  0
C  C94  1  0.83905092  0.51126067  0.88276081  1  0.006044  0  -0.01055  0.048667  0  3.9959  0
C  C95  1  0.66094976  0.01126177  0.11723833  1  0.006023  0  -0.010567  0.048681  0  3.995895  0
C  C96  1  0.24224138  0.55078776  0.15184488  1  -0.046095  0  0.019531  0.126727  0  3.958827  0
C  C97  1  0.25775842  0.05078540  0.84815561  1  -0.046096  0  0.019531  0.12669  0  3.958835  0
C  C98  1  0.75775807  0.44921248  0.84815403  1  -0.046098  0  0.019507  0.126695  0  3.958846  0
C  C99  1  0.74224175  0.94921152  0.15184415  1  -0.046086  0  0.019508  0.126683  0  3.958845  0
C  C100  1  0.99548236  0.36180691  0.44701952  1  -0.093327  0  -0.081431  -0.087551  0  3.969182  0
C  C101  1  0.50451835  0.86181032  0.55297931  1  -0.093819  0  -0.08142  -0.087627  0  3.969125  0
C  C102  1  0.00451490  0.63818935  0.55298013  1  -0.093802  0  -0.08141  -0.08756  0  3.969048  0
C  C103  1  0.49548399  0.13819058  0.44701972  1  -0.09382  0  -0.081464  -0.087548  0  3.969094  0
C  C104  1  0.14350284  0.45301964  0.02893408  1  -0.065427  0  -0.079183  -0.132527  0  3.93869  0
C  C105  1  0.35649907  0.95301875  0.97106613  1  -0.065465  0  -0.079114  -0.132437  0  3.938637  0
C  C106  1  0.85649804  0.54697927  0.97106718  1  -0.065498  0  -0.079195  -0.13248  0  3.938688  0
C  C107  1  0.64350255  0.04698149  0.02893336  1  -0.065437  0  -0.079141  -0.132409  0  3.938569  0
C  C108  1  0.91700188  0.46523690  0.32718394  1  -0.039811  0  -0.07822  -0.104672  0  3.915165  0
C  C109  1  0.58299935  0.96524046  0.67281466  1  -0.039308  0  -0.078209  -0.104752  0  3.915085  0
C  C110  1  0.08299683  0.53476068  0.67281609  1  -0.039408  0  -0.078205  -0.104701  0  3.915222  0
C  C111  1  0.41700227  0.03476110  0.32718418  1  -0.039397  0  -0.078236  -0.10478  0  3.915101  0
C  C112  1  0.05088964  0.35975617  0.89846932  1  1.562593  0  0.193977  0.559219  0  4.222526  0
C  C113  1  0.44911171  0.85975788  0.10153246  1  1.562665  0  0.194023  0.559282  0  4.222546  0
C  C114  1  0.94910835  0.64024473  0.10153052  1  1.56229  0  0.193929  0.559192  0  4.222579  0
C  C115  1  0.55088916  0.14024501  0.89847012  1  1.562341  0  0.193983  0.559253  0  4.222667  0
C  C116  1  0.09806874  0.46553515  0.17018791  1  -0.07922  0  -0.07947  -0.107961  0  3.92509  0
C  C117  1  0.40193457  0.96553507  0.82981469  1  -0.079104  0  -0.079455  -0.108062  0  3.925188  0
C  C118  1  0.90193214  0.53446509  0.82981336  1  -0.07925  0  -0.079476  -0.107993  0  3.925107  0
C  C119  1  0.59806920  0.03446517  0.17018734  1  -0.079225  0  -0.079469  -0.108005  0  3.925123  0
C  C120  1  0.67400536  0.67373719  0.38105184  1  0.49604  0  0.045329  0.092852  0  3.966041  0
C  C121  1  0.82599281  0.17373865  0.61894776  1  0.495957  0  0.045322  0.092816  0  3.96601  0
C  C122  1  0.32599262  0.32626106  0.61894800  1  0.496025  0  0.045351  0.092887  0  3.965926  0
C  C123  1  0.17400735  0.82626092  0.38105200  1  0.496042  0  0.045312  0.092789  0  3.965866  0
C  C124  1  0.00545973  0.37177867  0.04750774  1  -0.057726  0  -0.078352  -0.081399  0  3.962405  0
C  C125  1  0.49454377  0.87177938  0.95249399  1  -0.057709  0  -0.078432  -0.081423  0  3.962325  0
C  C126  1  0.99454042  0.62822024  0.95249334  1  -0.057792  0  -0.078339  -0.081355  0  3.962387  0
C  C127  1  0.50545928  0.12822086  0.04750785  1  -0.05771  0  -0.078414  -0.081512  0  3.96229  0
C  C128  1  0.24421710  0.61152295  0.22254025  1  0.000352  0  -0.078197  -0.16556  0  3.891572  0
C  C129  1  0.25578475  0.11152106  0.77746031  1  0.000229  0  -0.078194  -0.165508  0  3.891439  0
C  C130  1  0.75578380  0.38847729  0.77745840  1  0.000286  0  -0.078232  -0.165587  0  3.891667  0
C  C131  1  0.74421686  0.88847719  0.22253984  1  0.00018  0  -0.078199  -0.16554  0  3.891579  0
C  C132  1  0.74180641  0.58329715  0.25545630  1  0.028091  0  -0.07639  -0.161806  0  3.91685  0
C  C133  1  0.75819412  0.08329980  0.74454367  1  0.028124  0  -0.076423  -0.161805  0  3.916919  0
C  C134  1  0.25818941  0.41669912  0.74454296  1  0.028234  0  -0.07639  -0.161775  0  3.916815  0
C  C135  1  0.24180966  0.91670044  0.25545771  1  0.028519  0  -0.076346  -0.161643  0  3.916856  0
C  C136  1  0.98495198  0.39857276  0.36062990  1  0.008115  0  -0.093218  -0.089006  0  4.024251  0
C  C137  1  0.51504721  0.89857772  0.63936863  1  0.007969  0  -0.093261  -0.089004  0  4.024217  0
C  C138  1  0.01504383  0.60142217  0.63937003  1  0.00799  0  -0.093303  -0.089113  0  4.024264  0
C  C139  1  0.48495441  0.10142252  0.36063020  1  0.007994  0  -0.093285  -0.089097  0  4.024159  0
C  C140  1  0.32171944  0.66954889  0.25104202  1  0.445478  0  0.050076  0.105058  0  3.919442  0
C  C141  1  0.17828302  0.16954579  0.74895820  1  0.444962  0  0.050052  0.10494  0  3.919317  0
C  C142  1  0.67828291  0.33045267  0.74895700  1  0.445433  0  0.050055  0.104989  0  3.9196  0
C  C143  1  0.82171932  0.83045180  0.25104148  1  0.445013  0  0.050105  0.105098  0  3.919447  0
C  C144  1  0.74964887  0.61464314  0.41165800  1  -0.065517  0  -0.080898  -0.17543  0  3.949587  0
C  C145  1  0.75035087  0.11464603  0.58834250  1  -0.065595  0  -0.080906  -0.175376  0  3.949489  0
C  C146  1  0.25035057  0.38535511  0.58834222  1  -0.065571  0  -0.080905  -0.175431  0  3.949525  0
C  C147  1  0.24964929  0.88535686  0.41165857  1  -0.06561  0  -0.080908  -0.17544  0  3.949451  0
C  C148  1  0.66725648  0.64473193  0.23024621  1  0.469283  0  0.045856  0.083521  0  3.962513  0
C  C149  1  0.83274537  0.14473116  0.76975362  1  0.469274  0  0.04584  0.083489  0  3.962507  0
C  C150  1  0.33274222  0.35526698  0.76975448  1  0.468803  0  0.045833  0.083458  0  3.962507  0
C  C151  1  0.16725697  0.85526908  0.23024606  1  0.468899  0  0.045839  0.083462  0  3.962443  0
C  C152  1  0.39539845  0.61346587  0.14563213  1  0.485969  0  0.040741  0.087893  0  3.991791  0
C  C153  1  0.10460267  0.11346456  0.85436824  1  0.485935  0  0.040731  0.087819  0  3.991933  0
C  C154  1  0.60460317  0.38653305  0.85436736  1  0.485916  0  0.040709  0.087828  0  3.991713  0
C  C155  1  0.89539966  0.88653435  0.14563276  1  0.485919  0  0.040776  0.0879  0  3.99172  0
C  C156  1  0.02132459  0.40745686  0.13501138  1  -0.005984  0  -0.093568  -0.0881  0  4.027992  0
C  C157  1  0.47867738  0.90745735  0.86499071  1  -0.006012  0  -0.093473  -0.087953  0  4.027968  0
C  C158  1  0.97867629  0.59254206  0.86498989  1  -0.005944  0  -0.093522  -0.088018  0  4.028  0
C  C159  1  0.52132494  0.09254288  0.13501160  1  -0.005983  0  -0.09355  -0.088014  0  4.027836  0
C  C160  1  0.32160840  0.55255856  0.11429040  1  0.016148  0  -0.087617  -0.184964  0  3.966259  0
C  C161  1  0.17839283  0.05255650  0.88571114  1  0.016172  0  -0.087591  -0.18483  0  3.966333  0
C  C162  1  0.67839321  0.44744035  0.88570975  1  0.016246  0  -0.087573  -0.184872  0  3.966231  0
C  C163  1  0.82160805  0.94744175  0.11428947  1  0.016154  0  -0.087609  -0.184937  0  3.966147  0
N  N164  1  0.39624485  0.67153701  0.21309328  1  -1.252181  0  -0.332263  -0.235578  0  3.573287  0
N  N165  1  0.10375616  0.17153486  0.78690722  1  -1.251634  0  -0.332219  -0.235441  0  3.573267  0
N  N166  1  0.60375749  0.32846256  0.78690640  1  -1.252143  0  -0.332177  -0.235395  0  3.57316  0
N  N167  1  0.89624546  0.82846406  0.21309292  1  -1.251719  0  -0.33228  -0.235594  0  3.573327  0
N  N168  1  0.63143318  0.68784841  0.29156596  1  -1.245415  0  -0.331967  -0.238649  0  3.57826  0
N  N169  1  0.86856715  0.18784870  0.70843359  1  -1.24537  0  -0.331951  -0.238647  0  3.578175  0
N  N170  1  0.36856626  0.31215249  0.70843426  1  -1.245409  0  -0.331965  -0.238658  0  3.578196  0
N  N171  1  0.13143448  0.81215220  0.29156525  1  -1.245391  0  -0.331963  -0.238641  0  3.578021  0
O  O172  1  0.98131218  0.30268637  0.87048812  1  -1.17508  0  -0.338681  -0.563435  0  2.288178  0
O  O173  1  0.51869008  0.80268787  0.12951358  1  -1.175042  0  -0.338674  -0.563452  0  2.288157  0
O  O174  1  0.01868582  0.69731453  0.12951107  1  -1.175031  0  -0.338633  -0.563365  0  2.288149  0
O  O175  1  0.48131152  0.19731435  0.87048853  1  -1.174803  0  -0.338657  -0.563387  0  2.28811  0
O  O176  1  0.89516333  0.38835966  0.64289883  1  -1.185738  0  -0.322888  -0.558946  0  2.172831  0
O  O177  1  0.60484166  0.88835829  0.35710318  1  -1.185822  0  -0.322888  -0.558942  0  2.172918  0
O  O178  1  0.10483322  0.61163992  0.35709997  1  -1.185666  0  -0.322968  -0.559011  0  2.172939  0
O  O179  1  0.39516501  0.11163996  0.64289963  1  -1.185719  0  -0.322902  -0.558946  0  2.172897  0
O  O180  1  0.01406375  0.29869079  0.62700140  1  -1.17045  0  -0.335354  -0.556624  0  2.283725  0
O  O181  1  0.48593557  0.79869583  0.37299704  1  -1.170598  0  -0.335359  -0.556593  0  2.283712  0
O  O182  1  0.98593278  0.70130746  0.37299871  1  -1.170451  0  -0.335336  -0.556634  0  2.283772  0
O  O183  1  0.51406534  0.20130772  0.62700095  1  -1.170472  0  -0.335372  -0.556624  0  2.283729  0
O  O184  1  0.10382099  0.38467259  0.84960668  1  -1.182478  0  -0.324984  -0.561681  0  2.15721  0
O  O185  1  0.39617887  0.88467324  0.15039345  1  -1.182506  0  -0.325028  -0.561753  0  2.157224  0
O  O186  1  0.89617917  0.61532699  0.15039373  1  -1.182222  0  -0.324974  -0.561679  0  2.157194  0
O  O187  1  0.60381911  0.11532766  0.84960704  1  -1.182457  0  -0.324994  -0.561724  0  2.157325  0
