# generated using pymatgen
data_TbPH15C21NO11
_symmetry_space_group_name_H-M   'P 1'
_cell_length_a   11.57681602
_cell_length_b   15.01097653
_cell_length_c   17.58267114
_cell_angle_alpha   89.99981769
_cell_angle_beta   89.99977777
_cell_angle_gamma   91.23124598
_symmetry_Int_Tables_number   1
_chemical_formula_structural   TbPH15C21NO11
_chemical_formula_sum   'Tb4 P4 H60 C84 N4 O44'
_cell_volume   3054.79904889
_cell_formula_units_Z   4
loop_
 _symmetry_equiv_pos_site_id
 _symmetry_equiv_pos_as_xyz
  1  'x, y, z'
loop_
 _atom_site_type_symbol
 _atom_site_label
 _atom_site_symmetry_multiplicity
 _atom_site_fract_x
 _atom_site_fract_y
 _atom_site_fract_z
 _atom_site_occupancy
 _atom_site_pbe_bader_charge
 _atom_site_pbe_bader_spin_density
 _atom_site_pbe_cm5_charge
 _atom_site_pbe_ddec_charge
 _atom_site_pbe_ddec_spin_density
 _atom_site_pbe_ddec_sum_bond_order
 _atom_site_pbe_magmom
Tb  Tb0  1  0.08126446  0.59388789  0.57209646  1  2.198913  0  1.534974  2.109495  0  2.180657  0
Tb  Tb1  1  0.41873158  0.90610841  0.07209763  1  2.198829  0  1.534898  2.109442  0  2.180805  0
Tb  Tb2  1  0.91873456  0.40610564  0.42790538  1  2.198819  0  1.534825  2.10932  0  2.181039  0
Tb  Tb3  1  0.58126673  0.09389045  0.92790478  1  2.198914  0  1.534973  2.109503  0  2.180632  0
P  P4  1  0.33704855  0.75223949  0.57751319  1  2.754778  0  0.28177  0.88483  0  4.788097  0
P  P5  1  0.16295173  0.74775544  0.07751316  1  2.755003  0  0.281871  0.884994  0  4.787697  0
P  P6  1  0.66295486  0.24775670  0.42248923  1  2.755091  0  0.28179  0.884799  0  4.787623  0
P  P7  1  0.83704815  0.25223808  0.92249266  1  2.754617  0  0.281707  0.884719  0  4.787906  0
H  H8  1  0.10346104  0.13083180  0.32620325  1  0.643964  0  0.307357  0.35588  0  0.972522  0
H  H9  1  0.39654498  0.36917271  0.82620565  1  0.644048  0  0.307435  0.355948  0  0.972599  0
H  H10  1  0.89654252  0.86916973  0.67379404  1  0.643975  0  0.307397  0.355913  0  0.972621  0
H  H11  1  0.60345880  0.63083614  0.17379506  1  0.643975  0  0.307368  0.355922  0  0.972586  0
H  H12  1  0.19329115  0.48069538  0.70956250  1  0.649885  0  0.319679  0.429181  0  0.868371  0
H  H13  1  0.30671109  0.01930425  0.20956899  1  0.649884  0  0.319663  0.429184  0  0.868385  0
H  H14  1  0.80670540  0.51930282  0.29043252  1  0.649878  0  0.319662  0.429194  0  0.868363  0
H  H15  1  0.69329078  0.98069861  0.79042774  1  0.650188  0  0.319652  0.429198  0  0.868379  0
H  H16  1  0.14968688  0.57435167  0.72795327  1  0.605742  0  0.314752  0.39282  0  0.925089  0
H  H17  1  0.35031784  0.92564803  0.22795626  1  0.605633  0  0.314794  0.392902  0  0.925014  0
H  H18  1  0.85031492  0.42564853  0.27204232  1  0.605633  0  0.314793  0.392926  0  0.924964  0
H  H19  1  0.64967621  0.07435283  0.77204274  1  0.605567  0  0.31479  0.392875  0  0.925037  0
H  H20  1  0.40312981  0.61139017  0.47730383  1  0.094571  0  0.115775  0.118024  0  0.989709  0
H  H21  1  0.09687007  0.88861257  0.97730410  1  0.094485  0  0.115745  0.118002  0  0.98977  0
H  H22  1  0.59686757  0.38860669  0.52270199  1  0.094569  0  0.115777  0.118015  0  0.989793  0
H  H23  1  0.90313869  0.11138962  0.02270173  1  0.094605  0  0.115783  0.118021  0  0.989727  0
H  H24  1  0.59356015  0.54106421  0.45163750  1  0.116479  0  0.111741  0.117128  0  1.000596  0
H  H25  1  0.90644207  0.95893992  0.95163565  1  0.116469  0  0.111743  0.117119  0  1.00057  0
H  H26  1  0.40643644  0.45893531  0.54836207  1  0.116463  0  0.11172  0.117078  0  1.000663  0
H  H27  1  0.09356849  0.04106493  0.04836221  1  0.116557  0  0.111719  0.117082  0  1.000548  0
H  H28  1  0.76124009  0.72624940  0.60389718  1  0.111957  0  0.107522  0.113321  0  1.009534  0
H  H29  1  0.73875979  0.77375207  0.10390030  1  0.11198  0  0.107525  0.113317  0  1.009525  0
H  H30  1  0.23876426  0.27374946  0.39609727  1  0.111841  0  0.10752  0.113303  0  1.009453  0
H  H31  1  0.26123959  0.22625412  0.89609870  1  0.111767  0  0.107494  0.113264  0  1.009532  0
H  H32  1  0.57413791  0.79724331  0.63083066  1  0.120903  0  0.100895  0.106373  0  1.03455  0
H  H33  1  0.92586457  0.70276405  0.13083179  1  0.120936  0  0.100955  0.106529  0  1.034507  0
H  H34  1  0.42587443  0.20276287  0.36916834  1  0.120814  0  0.100966  0.106535  0  1.034527  0
H  H35  1  0.07413302  0.29724014  0.86916949  1  0.120872  0  0.100991  0.106472  0  1.034588  0
H  H36  1  0.47097023  0.83689062  0.45273152  1  0.091835  0  0.107992  0.110059  0  1.003694  0
H  H37  1  0.02902807  0.66311221  0.95273200  1  0.091793  0  0.107995  0.110025  0  1.003686  0
H  H38  1  0.52903431  0.16311490  0.54726521  1  0.09188  0  0.107972  0.110052  0  1.003658  0
H  H39  1  0.97096277  0.33689731  0.04726586  1  0.091995  0  0.107911  0.109932  0  1.003697  0
H  H40  1  0.42260208  0.95928648  0.36296121  1  0.10263  0  0.107314  0.107509  0  1.013341  0
H  H41  1  0.07740288  0.54071936  0.86295622  1  0.102578  0  0.107282  0.107477  0  1.013336  0
H  H42  1  0.57740088  0.04072438  0.63703950  1  0.102484  0  0.107299  0.107421  0  1.013492  0
H  H43  1  0.92258368  0.45929149  0.13703596  1  0.102713  0  0.107258  0.107457  0  1.013448  0
H  H44  1  0.08652289  0.97838398  0.46511276  1  0.07419  0  0.112135  0.116374  0  1.001453  0
H  H45  1  0.41348240  0.52162413  0.96510639  1  0.074225  0  0.112139  0.116357  0  1.001417  0
H  H46  1  0.91348317  0.02161421  0.53489250  1  0.074042  0  0.112161  0.11638  0  1.001373  0
H  H47  1  0.58650389  0.47837740  0.03488238  1  0.074048  0  0.112163  0.116348  0  1.00133  0
H  H48  1  0.13325403  0.85726201  0.55563665  1  0.157688  0  0.115047  0.1258  0  1.012792  0
H  H49  1  0.36674490  0.64274167  0.05563298  1  0.157729  0  0.115109  0.125918  0  1.012693  0
H  H50  1  0.86675905  0.14274017  0.44436861  1  0.157445  0  0.115019  0.125823  0  1.012707  0
H  H51  1  0.63325068  0.35725252  0.94436261  1  0.157907  0  0.115048  0.125805  0  1.012808  0
H  H52  1  0.31630832  0.67166937  0.72179515  1  0.112954  0  0.108636  0.111572  0  1.020085  0
H  H53  1  0.18370747  0.82832368  0.22179713  1  0.112864  0  0.108613  0.111523  0  1.020074  0
H  H54  1  0.68369515  0.32832882  0.27820214  1  0.112765  0  0.108617  0.111519  0  1.02013  0
H  H55  1  0.81630341  0.17166185  0.77819902  1  0.112628  0  0.108611  0.111497  0  1.020113  0
H  H56  1  0.35548948  0.72737139  0.85445121  1  0.105486  0  0.107048  0.111836  0  1.010837  0
H  H57  1  0.14451087  0.77262249  0.35444718  1  0.105549  0  0.107089  0.11186  0  1.010932  0
H  H58  1  0.64450355  0.27262414  0.14555121  1  0.10556  0  0.107046  0.111845  0  1.010911  0
H  H59  1  0.85548824  0.22737437  0.64554840  1  0.105476  0  0.107062  0.111898  0  1.010795  0
H  H60  1  0.43283334  0.98888792  0.76640668  1  0.124566  0  0.11075  0.112293  0  1.021125  0
H  H61  1  0.06715373  0.51110696  0.26640470  1  0.124511  0  0.110769  0.112384  0  1.021065  0
H  H62  1  0.56717187  0.01111093  0.23359915  1  0.124621  0  0.1108  0.112415  0  1.02099  0
H  H63  1  0.93282618  0.48888324  0.73359601  1  0.124703  0  0.110781  0.112369  0  1.021018  0
H  H64  1  0.38901927  0.93578942  0.63452070  1  0.063043  0  0.102909  0.098296  0  1.010684  0
H  H65  1  0.11097894  0.56420531  0.13452416  1  0.06318  0  0.102904  0.098297  0  1.010776  0
H  H66  1  0.61099118  0.06421144  0.36548171  1  0.06305  0  0.102928  0.098311  0  1.010699  0
H  H67  1  0.88901470  0.43578156  0.86547826  1  0.063187  0  0.102971  0.09842  0  1.010715  0
C  C68  1  0.47684524  0.70915540  0.55489762  1  -0.620403  0  -0.022992  -0.153001  0  4.00888  0
C  C69  1  0.02315216  0.79085495  0.05489897  1  -0.620061  0  -0.023001  -0.153061  0  4.009014  0
C  C70  1  0.52315241  0.29085079  0.44510195  1  -0.620073  0  -0.022992  -0.153  0  4.008906  0
C  C71  1  0.97685424  0.20915524  0.94510230  1  -0.620191  0  -0.022943  -0.152989  0  4.00893  0
C  C72  1  0.48209890  0.63740847  0.50384688  1  -0.015485  0  -0.07193  -0.068241  0  3.965014  0
C  C73  1  0.01790038  0.86259675  0.00384748  1  -0.016037  0  -0.071864  -0.06812  0  3.965518  0
C  C74  1  0.51790038  0.36259439  0.49615326  1  -0.016045  0  -0.071905  -0.068234  0  3.965423  0
C  C75  1  0.98210422  0.13741077  0.99615493  1  -0.015487  0  -0.071919  -0.068235  0  3.965113  0
C  C76  1  0.58764421  0.59781875  0.48991091  1  -0.055498  0  -0.074732  -0.085142  0  3.946031  0
C  C77  1  0.91235950  0.90218457  0.98990977  1  -0.055171  0  -0.074761  -0.085258  0  3.945987  0
C  C78  1  0.41235588  0.40218210  0.51008923  1  -0.055254  0  -0.07474  -0.085159  0  3.945955  0
C  C79  1  0.08764944  0.09782362  0.01008753  1  -0.055601  0  -0.074715  -0.085041  0  3.945771  0
C  C80  1  0.68799776  0.62929629  0.52654397  1  -0.030428  0  -0.005585  -0.021549  0  3.920945  0
C  C81  1  0.81200592  0.87070148  0.02654266  1  -0.031009  0  -0.005637  -0.021494  0  3.920746  0
C  C82  1  0.31200385  0.37069724  0.47345333  1  -0.030647  0  -0.005667  -0.021436  0  3.920746  0
C  C83  1  0.18800119  0.12930337  0.97345406  1  -0.030721  0  -0.005674  -0.021638  0  3.920875  0
C  C84  1  0.68265565  0.70227864  0.57596982  1  -0.042279  0  -0.076623  -0.073867  0  3.931767  0
C  C85  1  0.81734272  0.79772493  0.07597495  1  -0.041698  0  -0.076592  -0.073778  0  3.931602  0
C  C86  1  0.31734782  0.29771955  0.42402521  1  -0.041624  0  -0.076552  -0.073805  0  3.931544  0
C  C87  1  0.18265844  0.20228325  0.92402519  1  -0.041822  0  -0.076665  -0.073888  0  3.931743  0
C  C88  1  0.57748321  0.74210146  0.59057348  1  -0.042531  0  -0.081941  -0.085274  0  3.990336  0
C  C89  1  0.92251934  0.75790006  0.09057674  1  -0.042677  0  -0.082007  -0.085482  0  3.990224  0
C  C90  1  0.42252120  0.25789940  0.40942097  1  -0.042757  0  -0.082025  -0.085462  0  3.990186  0
C  C91  1  0.07748605  0.24210479  0.90942396  1  -0.042717  0  -0.081985  -0.085288  0  3.990478  0
C  C92  1  0.80047178  0.58295971  0.51501663  1  1.61673  0  0.239773  0.660523  0  4.138166  0
C  C93  1  0.69953137  0.91704744  0.01501207  1  1.617218  0  0.239648  0.660247  0  4.138351  0
C  C94  1  0.19953192  0.41704648  0.48499204  1  1.617211  0  0.23967  0.660147  0  4.138594  0
C  C95  1  0.30047424  0.08296542  0.98498579  1  1.616919  0  0.239786  0.660413  0  4.138333  0
C  C96  1  0.30616074  0.84039865  0.51075021  1  -0.573545  0  -0.012907  -0.134405  0  3.966985  0
C  C97  1  0.19384013  0.65960321  0.01075376  1  -0.573813  0  -0.01288  -0.134296  0  3.967201  0
C  C98  1  0.69385413  0.15960554  0.48924879  1  -0.573657  0  -0.012984  -0.134362  0  3.966976  0
C  C99  1  0.80615574  0.34040098  0.98924922  1  -0.573211  0  -0.012948  -0.134335  0  3.967144  0
C  C100  1  0.38720677  0.86849076  0.45599616  1  -0.030552  0  -0.076509  -0.076794  0  3.986826  0
C  C101  1  0.11279326  0.63151272  0.95599993  1  -0.030671  0  -0.076461  -0.076729  0  3.986727  0
C  C102  1  0.61279689  0.13151409  0.54400625  1  -0.030622  0  -0.076517  -0.076895  0  3.986392  0
C  C103  1  0.88720011  0.36849480  0.04400078  1  -0.030929  0  -0.076397  -0.076652  0  3.986897  0
C  C104  1  0.36012719  0.93647061  0.40545600  1  -0.087322  0  -0.079922  -0.093948  0  3.965121  0
C  C105  1  0.13987668  0.56353573  0.90545534  1  -0.086951  0  -0.079943  -0.094038  0  3.965209  0
C  C106  1  0.63988164  0.06353358  0.59454755  1  -0.086905  0  -0.079869  -0.093784  0  3.965238  0
C  C107  1  0.86011763  0.43647446  0.09453969  1  -0.087208  0  -0.079827  -0.09386  0  3.965058  0
C  C108  1  0.25201710  0.97654025  0.40892541  1  -0.007638  0  -0.012268  -0.039102  0  3.974702  0
C  C109  1  0.24798756  0.52346475  0.90892173  1  -0.007592  0  -0.012246  -0.039045  0  3.974483  0
C  C110  1  0.74798907  0.02346194  0.59107814  1  -0.007773  0  -0.012272  -0.039164  0  3.974709  0
C  C111  1  0.75200143  0.47654078  0.09106874  1  -0.007049  0  -0.012367  -0.039165  0  3.974327  0
C  C112  1  0.17065754  0.94747538  0.46324893  1  0.003851  0  -0.071404  -0.078885  0  3.929866  0
C  C113  1  0.32934517  0.55253274  0.96324610  1  0.003594  0  -0.071312  -0.078736  0  3.92962  0
C  C114  1  0.82935040  0.05252814  0.53675519  1  0.003646  0  -0.071461  -0.078865  0  3.929896  0
C  C115  1  0.67064469  0.44747278  0.03674608  1  0.003359  0  -0.071329  -0.078791  0  3.929635  0
C  C116  1  0.19731969  0.87994411  0.51407289  1  -0.049626  0  -0.06549  -0.06012  0  3.931641  0
C  C117  1  0.30267866  0.62006107  0.01407342  1  -0.049544  0  -0.065632  -0.060373  0  3.931844  0
C  C118  1  0.80269080  0.12005808  0.48593464  1  -0.049319  0  -0.065347  -0.060066  0  3.931861  0
C  C119  1  0.69731104  0.37993913  0.98592729  1  -0.050005  0  -0.065486  -0.060153  0  3.931831  0
C  C120  1  0.22545511  0.04978922  0.35439346  1  1.531775  0  0.234454  0.580685  0  4.125999  0
C  C121  1  0.27456104  0.45021318  0.85439425  1  1.531462  0  0.23457  0.580824  0  4.125728  0
C  C122  1  0.77455183  0.95020964  0.64560895  1  1.531381  0  0.234465  0.580617  0  4.125936  0
C  C123  1  0.72544680  0.54978701  0.14560419  1  1.53118  0  0.234634  0.58102  0  4.125868  0
C  C124  1  0.35147861  0.80045573  0.67058542  1  -0.584826  0  -0.021259  -0.150816  0  4.014763  0
C  C125  1  0.14851163  0.69953953  0.17058500  1  -0.584845  0  -0.021353  -0.151073  0  4.014998  0
C  C126  1  0.64853018  0.19954713  0.32941529  1  -0.58461  0  -0.021151  -0.150716  0  4.014526  0
C  C127  1  0.85147349  0.30045134  0.82941287  1  -0.585039  0  -0.021242  -0.150848  0  4.014816  0
C  C128  1  0.34073389  0.74119414  0.73220414  1  -0.085625  0  -0.075234  -0.071854  0  3.963542  0
C  C129  1  0.15927234  0.75879887  0.23220182  1  -0.085463  0  -0.075146  -0.07169  0  3.963715  0
C  C130  1  0.65927480  0.25880539  0.26779429  1  -0.085464  0  -0.075213  -0.071767  0  3.96365  0
C  C131  1  0.84072302  0.24118733  0.76779718  1  -0.085267  0  -0.075068  -0.071534  0  3.963501  0
C  C132  1  0.36317364  0.77159931  0.80545688  1  -0.006807  0  -0.07376  -0.076529  0  3.935991  0
C  C133  1  0.13682538  0.72839808  0.30545754  1  -0.006669  0  -0.073796  -0.076546  0  3.936109  0
C  C134  1  0.63682215  0.22840221  0.19454326  1  -0.006823  0  -0.073743  -0.076514  0  3.936194  0
C  C135  1  0.86316932  0.27159545  0.69454430  1  -0.006387  0  -0.073818  -0.076672  0  3.936029  0
C  C136  1  0.39898517  0.86033238  0.81718701  1  -0.021618  0  -0.003399  -0.014835  0  3.920472  0
C  C137  1  0.10101368  0.63966165  0.31717663  1  -0.021459  0  -0.003468  -0.015017  0  3.920632  0
C  C138  1  0.60101744  0.13966582  0.18282280  1  -0.021252  0  -0.003463  -0.015047  0  3.920281  0
C  C139  1  0.89897837  0.36032989  0.68281839  1  -0.021093  0  -0.003524  -0.015002  0  3.920216  0
C  C140  1  0.40726916  0.91969336  0.75591693  1  -0.096238  0  -0.072228  -0.074388  0  3.926739  0
C  C141  1  0.09272143  0.58030157  0.25591641  1  -0.096582  0  -0.072247  -0.074466  0  3.927025  0
C  C142  1  0.59273775  0.08030417  0.24408662  1  -0.096372  0  -0.072272  -0.074302  0  3.926538  0
C  C143  1  0.90725689  0.41969330  0.74408601  1  -0.096123  0  -0.072241  -0.074323  0  3.926394  0
C  C144  1  0.38272447  0.88996185  0.68255102  1  0.027867  0  -0.078812  -0.0784  0  4.004902  0
C  C145  1  0.11726213  0.61002936  0.18255092  1  0.027933  0  -0.078734  -0.078257  0  4.004684  0
C  C146  1  0.61728681  0.11003768  0.31745139  1  0.027626  0  -0.078895  -0.078619  0  4.00478  0
C  C147  1  0.88271677  0.38995551  0.81744979  1  0.027368  0  -0.078902  -0.07865  0  4.005067  0
C  C148  1  0.42968396  0.89077892  0.89564031  1  1.587933  0  0.233223  0.649599  0  4.164038  0
C  C149  1  0.07032686  0.60922679  0.39564147  1  1.587879  0  0.233426  0.650075  0  4.164253  0
C  C150  1  0.57032227  0.10922526  0.10435812  1  1.588096  0  0.233515  0.650177  0  4.164012  0
C  C151  1  0.92968105  0.39077540  0.60436208  1  1.587492  0  0.233425  0.649916  0  4.163507  0
N  N152  1  0.98655309  0.72764766  0.67992231  1  0.851926  0  0.092644  0.730543  0  4.421414  0
N  N153  1  0.51344644  0.77235751  0.17992090  1  0.851959  0  0.092756  0.730817  0  4.421674  0
N  N154  1  0.01344782  0.27235186  0.32007840  1  0.85198  0  0.092745  0.730741  0  4.421559  0
N  N155  1  0.48655040  0.22765067  0.82007867  1  0.851299  0  0.092629  0.730516  0  4.421741  0
O  O156  1  0.24665279  0.67847222  0.57784214  1  -1.428915  0  -0.449571  -0.753745  0  2.371902  0
O  O157  1  0.25334421  0.82152871  0.07784680  1  -1.42888  0  -0.449693  -0.753791  0  2.371584  0
O  O158  1  0.75334922  0.32153530  0.42215402  1  -1.428983  0  -0.449684  -0.753729  0  2.371617  0
O  O159  1  0.74665748  0.17846748  0.92216187  1  -1.428963  0  -0.449532  -0.753692  0  2.371883  0
O  O160  1  0.79663925  0.50872216  0.47988840  1  -1.186467  0  -0.403966  -0.667836  0  2.287225  0
O  O161  1  0.70335540  0.99126455  0.97988641  1  -1.186888  0  -0.403921  -0.66761  0  2.287847  0
O  O162  1  0.20335430  0.49126138  0.52011458  1  -1.187013  0  -0.403891  -0.667532  0  2.288229  0
O  O163  1  0.29664463  0.00873431  0.02011487  1  -1.186513  0  -0.403943  -0.667706  0  2.287491  0
O  O164  1  0.89067852  0.62065006  0.54191738  1  -1.194766  0  -0.40146  -0.680184  0  2.344663  0
O  O165  1  0.60931370  0.87934299  0.04192510  1  -1.194744  0  -0.401411  -0.680172  0  2.344148  0
O  O166  1  0.10930825  0.37933814  0.45808048  1  -1.194719  0  -0.401443  -0.680134  0  2.343941  0
O  O167  1  0.39068464  0.12065721  0.95808471  1  -1.194854  0  -0.401483  -0.680175  0  2.344446  0
O  O168  1  0.11832867  0.07911116  0.36173147  1  -1.148646  0  -0.328689  -0.474281  0  2.309834  0
O  O169  1  0.38168232  0.42089321  0.86173092  1  -1.148457  0  -0.328784  -0.474376  0  2.310119  0
O  O170  1  0.88167224  0.92088837  0.63826867  1  -1.148345  0  -0.328708  -0.474254  0  2.31009  0
O  O171  1  0.61831969  0.57911431  0.13826353  1  -1.148324  0  -0.328775  -0.474477  0  2.309843  0
O  O172  1  0.29635780  0.07938044  0.30765413  1  -1.166316  0  -0.298936  -0.526112  0  2.141063  0
O  O173  1  0.20364900  0.42061748  0.80765745  1  -1.166292  0  -0.299031  -0.52624  0  2.140705  0
O  O174  1  0.70364138  0.92061909  0.69234601  1  -1.166301  0  -0.298954  -0.526106  0  2.140969  0
O  O175  1  0.79634557  0.57937139  0.19234326  1  -1.166182  0  -0.299062  -0.526343  0  2.141206  0
O  O176  1  0.48425377  0.96484997  0.90293027  1  -1.22037  0  -0.421183  -0.736988  0  2.433871  0
O  O177  1  0.01575218  0.53513839  0.40293007  1  -1.220188  0  -0.421378  -0.737413  0  2.433286  0
O  O178  1  0.51573920  0.03514356  0.09707100  1  -1.22026  0  -0.421384  -0.737407  0  2.433507  0
O  O179  1  0.98425077  0.46484181  0.59706609  1  -1.22024  0  -0.42123  -0.737137  0  2.43404  0
O  O180  1  0.39974633  0.84176168  0.95134697  1  -1.170995  0  -0.386461  -0.632555  0  2.241332  0
O  O181  1  0.10024373  0.65822450  0.45133996  1  -1.171359  0  -0.386426  -0.632484  0  2.242604  0
O  O182  1  0.60024920  0.15823052  0.04866000  1  -1.171442  0  -0.386484  -0.632647  0  2.2423  0
O  O183  1  0.89974441  0.34175104  0.54865051  1  -1.171199  0  -0.38657  -0.632717  0  2.240974  0
O  O184  1  0.02384292  0.75271908  0.61547085  1  -0.54646  0  -0.193049  -0.478195  0  2.029389  0
O  O185  1  0.47614609  0.74728238  0.11547457  1  -0.546486  0  -0.193079  -0.478276  0  2.029402  0
O  O186  1  0.97615101  0.24727778  0.38452986  1  -0.546566  0  -0.193149  -0.47832  0  2.029358  0
O  O187  1  0.52385764  0.25272514  0.88452500  1  -0.546455  0  -0.193124  -0.478288  0  2.029357  0
O  O188  1  0.00454953  0.64670647  0.69957030  1  -0.599879  0  -0.2369  -0.544016  0  2.017503  0
O  O189  1  0.49545199  0.85329666  0.19956913  1  -0.600006  0  -0.236866  -0.544063  0  2.017784  0
O  O190  1  0.99545225  0.35329305  0.30043098  1  -0.599919  0  -0.236855  -0.544  0  2.017543  0
O  O191  1  0.50453877  0.14671020  0.80043214  1  -0.599716  0  -0.236773  -0.543918  0  2.017622  0
O  O192  1  0.93242278  0.77868618  0.72297663  1  -0.511006  0  -0.161061  -0.391191  0  1.925157  0
O  O193  1  0.56758172  0.72132017  0.22297181  1  -0.510943  0  -0.161203  -0.391341  0  1.925311  0
O  O194  1  0.06757911  0.22131735  0.27702749  1  -0.510949  0  -0.161127  -0.391285  0  1.925491  0
O  O195  1  0.43241511  0.27868736  0.77702833  1  -0.510531  0  -0.161115  -0.3912  0  1.925372  0
O  O196  1  0.18793402  0.54081887  0.68798493  1  -1.225338  0  -0.608031  -0.819881  0  2.031772  0
O  O197  1  0.31207008  0.95918165  0.18798850  1  -1.225249  0  -0.608078  -0.819965  0  2.031803  0
O  O198  1  0.81207292  0.45917999  0.31201293  1  -1.22524  0  -0.608063  -0.819959  0  2.031783  0
O  O199  1  0.68792569  0.04081921  0.81200936  1  -1.225535  0  -0.60805  -0.81995  0  2.031836  0
