# generated using pymatgen
data_CdH16C30N4(ClO2)2
_symmetry_space_group_name_H-M   'P 1'
_cell_length_a   9.20238184
_cell_length_b   10.80712991
_cell_length_c   14.76100000
_cell_angle_alpha   87.90663322
_cell_angle_beta   72.61950511
_cell_angle_gamma   70.14665254
_symmetry_Int_Tables_number   1
_chemical_formula_structural   CdH16C30N4(ClO2)2
_chemical_formula_sum   'Cd2 H32 C60 N8 Cl4 O8'
_cell_volume   1314.25738825
_cell_formula_units_Z   2
loop_
 _symmetry_equiv_pos_site_id
 _symmetry_equiv_pos_as_xyz
  1  'x, y, z'
loop_
 _atom_site_type_symbol
 _atom_site_label
 _atom_site_symmetry_multiplicity
 _atom_site_fract_x
 _atom_site_fract_y
 _atom_site_fract_z
 _atom_site_occupancy
 _atom_site_hle17_bader_spin_density
 _atom_site_hle17_ddec_charge
 _atom_site_hle17_ddec_spin_density
 _atom_site_hle17_ddec_sum_bond_order
 _atom_site_hle17_magmom
 _atom_site_hse06_10hf_bader_spin_density
 _atom_site_hse06_10hf_ddec_charge
 _atom_site_hse06_10hf_ddec_spin_density
 _atom_site_hse06_10hf_ddec_sum_bond_order
 _atom_site_hse06_10hf_magmom
 _atom_site_hse06_bader_spin_density
 _atom_site_hse06_ddec_charge
 _atom_site_hse06_ddec_spin_density
 _atom_site_hse06_ddec_sum_bond_order
 _atom_site_hse06_magmom
 _atom_site_pbe_bader_charge
 _atom_site_pbe_bader_spin_density
 _atom_site_pbe_cm5_charge
 _atom_site_pbe_ddec_charge
 _atom_site_pbe_ddec_spin_density
 _atom_site_pbe_ddec_sum_bond_order
 _atom_site_pbe_magmom
Cd  Cd0  1  0.35784431  0.24002022  0.26340705  1  0  1.054113  0  1.793933  0  0  0.850009  0  2.240943  0  0  0.910205  0  2.191027  0  1.299934  0  0.761201  0.807337  0  2.275041  0
Cd  Cd1  1  0.64215513  0.75998100  0.73659364  1  0  1.054135  0  1.793892  0  0  0.850022  0  2.240908  0  0  0.910219  0  2.190992  0  1.299915  0  0.761199  0.807347  0  2.275007  0
H  H2  1  0.60858515  0.24561589  0.39435210  1  0  0.079058  0  0.952478  0  0  0.086331  0  1.021032  0  0  0.088748  0  1.018503  0  0.102813  0  0.108856  0.084708  0  1.022531  0
H  H3  1  0.39140817  0.75438631  0.60565375  1  0  0.079099  0  0.952419  0  0  0.086376  0  1.020953  0  0  0.088794  0  1.018423  0  0.102548  0  0.108885  0.084751  0  1.022457  0
H  H4  1  0.82876501  0.08889261  0.45173213  1  0  0.103347  0  0.950569  0  0  0.112067  0  1.012068  0  0  0.115111  0  1.011889  0  0.097829  0  0.104502  0.109763  0  1.012537  0
H  H5  1  0.17123257  0.91110762  0.54827095  1  0  0.103342  0  0.950554  0  0  0.112014  0  1.012094  0  0  0.115058  0  1.011916  0  0.097788  0  0.104483  0.109712  0  1.012561  0
H  H6  1  0.97317629  0.28276257  0.15152316  1  0  0.117427  0  0.971561  0  0  0.120627  0  1.041409  0  0  0.125107  0  1.038176  0  0.150758  0  0.102773  0.117414  0  1.04381  0
H  H7  1  0.02682356  0.71723766  0.84847814  1  0  0.117444  0  0.97154  0  0  0.120641  0  1.041396  0  0  0.125123  0  1.038161  0  0.150755  0  0.102775  0.117426  0  1.043799  0
H  H8  1  0.75858885  0.18059244  0.21550677  1  0  0.077335  0  0.936872  0  0  0.085336  0  0.999655  0  0  0.087908  0  0.997424  0  0.087388  0  0.11505  0.083518  0  1.00121  0
H  H9  1  0.24141112  0.81940484  0.78449324  1  0  0.077247  0  0.936895  0  0  0.085267  0  0.999669  0  0  0.087838  0  0.997437  0  0.08739  0  0.115011  0.083449  0  1.001225  0
H  H10  1  0.08834451  0.07962567  0.27963666  1  0  0.087648  0  0.921217  0  0  0.097376  0  0.980809  0  0  0.100124  0  0.978124  0  0.114857  0  0.118276  0.095329  0  0.98277  0
H  H11  1  0.91165534  0.92037456  0.72036126  1  0  0.087619  0  0.921264  0  0  0.097366  0  0.980843  0  0  0.100113  0  0.978159  0  0.11488  0  0.118265  0.09532  0  0.9828  0
H  H12  1  0.86676205  0.84679139  0.44578197  1  0  0.102484  0  0.925217  0  0  0.117389  0  0.97894  0  0  0.119616  0  0.977899  0  0.091176  0  0.110576  0.115624  0  0.979919  0
H  H13  1  0.13323667  0.15320884  0.55421887  1  0  0.102435  0  0.925229  0  0  0.11734  0  0.978961  0  0  0.119563  0  0.977922  0  0.091183  0  0.110559  0.115575  0  0.97994  0
H  H14  1  0.01929326  0.46385608  0.22969457  1  0  0.083921  0  0.939656  0  0  0.093956  0  1.000366  0  0  0.095966  0  0.999332  0  0.115588  0  0.115972  0.092426  0  1.001275  0
H  H15  1  0.98070815  0.53614316  0.77030512  1  0  0.083934  0  0.939666  0  0  0.093959  0  1.000377  0  0  0.095968  0  0.999343  0  0.115617  0  0.115967  0.092416  0  1.001305  0
H  H16  1  0.89671475  0.50105405  0.07953154  1  0  0.089967  0  0.954495  0  0  0.103001  0  1.01524  0  0  0.105527  0  1.013833  0  0.070094  0  0.104578  0.101145  0  1.016332  0
H  H17  1  0.10328780  0.49894519  0.92046794  1  0  0.090001  0  0.954519  0  0  0.103048  0  1.015241  0  0  0.105574  0  1.013833  0  0.070111  0  0.104596  0.10119  0  1.016334  0
H  H18  1  0.08178798  0.84869212  0.28589397  1  0  0.095647  0  0.968299  0  0  0.107034  0  1.025693  0  0  0.109413  0  1.026585  0  0.069977  0  0.101361  0.105272  0  1.025236  0
H  H19  1  0.91821498  0.15130614  0.71410342  1  0  0.09567  0  0.968322  0  0  0.107017  0  1.025756  0  0  0.109391  0  1.026653  0  0.069964  0  0.101357  0.105255  0  1.025299  0
H  H20  1  0.91830807  0.68396150  0.16298233  1  0  0.10142  0  0.959511  0  0  0.108937  0  1.023417  0  0  0.112234  0  1.022831  0  0.058078  0  0.102188  0.106708  0  1.02376  0
H  H21  1  0.08169604  0.31603676  0.83701621  1  0  0.101396  0  0.959553  0  0  0.108908  0  1.023468  0  0  0.112204  0  1.022883  0  0.058131  0  0.102153  0.106682  0  1.023808  0
H  H22  1  0.68695614  0.68548840  0.03491106  1  0  0.101168  0  0.959574  0  0  0.110134  0  1.024504  0  0  0.112822  0  1.023719  0  0.087051  0  0.10089  0.108089  0  1.025273  0
H  H23  1  0.31304413  0.31451085  0.96508952  1  0  0.101163  0  0.959533  0  0  0.110122  0  1.024473  0  0  0.11281  0  1.02369  0  0.087063  0  0.100883  0.108079  0  1.025239  0
H  H24  1  0.11900712  0.79375627  0.08332132  1  0  0.102752  0  0.940022  0  0  0.115301  0  0.998051  0  0  0.118231  0  0.995695  0  0.086751  0  0.104576  0.113188  0  0.999756  0
H  H25  1  0.88099627  0.20624100  0.91667738  1  0  0.102701  0  0.940012  0  0  0.115258  0  0.998043  0  0  0.118188  0  0.995688  0  0.087024  0  0.104553  0.113146  0  0.999747  0
H  H26  1  0.31050094  0.66812336  0.32221287  1  0  0.10696  0  0.938798  0  0  0.116567  0  1.000262  0  0  0.119233  0  0.998773  0  0.098662  0  0.106371  0.114671  0  1.001312  0
H  H27  1  0.68950503  0.33187589  0.67778326  1  0  0.106987  0  0.938837  0  0  0.116588  0  1.000288  0  0  0.119254  0  0.998799  0  0.098622  0  0.106391  0.114693  0  1.001337  0
H  H28  1  0.57178702  0.60187582  0.36167519  1  0  0.100367  0  0.960927  0  0  0.106664  0  1.029093  0  0  0.109957  0  1.027581  0  0.122841  0  0.098021  0.104443  0  1.029957  0
H  H29  1  0.42821241  0.39812540  0.63832346  1  0  0.100334  0  0.960914  0  0  0.10663  0  1.029088  0  0  0.109923  0  1.027577  0  0.122856  0  0.098001  0.104409  0  1.029954  0
H  H30  1  0.77577208  0.66692689  0.40573766  1  0  0.091375  0  0.975024  0  0  0.100729  0  1.040016  0  0  0.102068  0  1.04154  0  0.092741  0  0.096898  0.099737  0  1.039075  0
H  H31  1  0.22422550  0.33307334  0.59426475  1  0  0.091349  0  0.975071  0  0  0.100721  0  1.040042  0  0  0.102061  0  1.041565  0  0.092707  0  0.096909  0.099729  0  1.039099  0
H  H32  1  0.40112109  0.79192754  0.03595186  1  0  0.09582  0  0.972634  0  0  0.105381  0  1.037461  0  0  0.106752  0  1.038746  0  0.093606  0  0.099994  0.104114  0  1.037024  0
H  H33  1  0.59888032  0.20807171  0.96404851  1  0  0.095832  0  0.972642  0  0  0.105398  0  1.037463  0  0  0.106755  0  1.038767  0  0.093591  0  0.099999  0.104131  0  1.037027  0
C  C34  1  0.63370192  0.90375522  0.92762204  1  0  0.272224  0  3.873154  0  0  0.249741  0  4.146964  0  0  0.270922  0  4.154428  0  0.832801  0  0.09934  0.235491  0  4.141685  0
C  C35  1  0.36629243  0.09624994  0.07237881  1  0  0.272164  0  3.873244  0  0  0.249697  0  4.147088  0  0  0.270887  0  4.154554  0  0.833099  0  0.099271  0.235446  0  4.141804  0
C  C36  1  0.03899252  0.39889773  0.42496467  1  0  0.268586  0  3.87781  0  0  0.24444  0  4.154959  0  0  0.265854  0  4.161975  0  0.841686  0  0.096773  0.230239  0  4.149624  0
C  C37  1  0.96100692  0.60110349  0.57503466  1  0  0.26853  0  3.877891  0  0  0.24442  0  4.155019  0  0  0.265824  0  4.162043  0  0.841273  0  0.096746  0.230221  0  4.149682  0
C  C38  1  0.54045663  0.03907306  0.07965146  1  0  0.280542  0  3.856136  0  0  0.259246  0  4.126906  0  0  0.281428  0  4.132564  0  0.829638  0  0.101619  0.244341  0  4.122709  0
C  C39  1  0.45954011  0.96092915  0.92034969  1  0  0.280481  0  3.8563  0  0  0.259257  0  4.126972  0  0  0.281446  0  4.132625  0  0.8302  0  0.101614  0.244346  0  4.122782  0
C  C40  1  0.88023791  0.44919962  0.48775749  1  0  -0.177409  0  3.832243  0  0  -0.180427  0  4.129523  0  0  -0.197124  0  4.152732  0  -0.022737  0  -0.056422  -0.16968  0  4.114044  0
C  C41  1  0.11976183  0.55080357  0.51224105  1  0  -0.177425  0  3.83221  0  0  -0.180468  0  4.129487  0  0  -0.197161  0  4.152701  0  -0.022231  0  -0.056456  -0.169723  0  4.114004  0
C  C42  1  0.66294148  0.95021914  0.00586072  1  0  -0.174848  0  3.82568  0  0  -0.178018  0  4.122042  0  0  -0.194574  0  4.144281  0  0.009583  0  -0.05689  -0.166952  0  4.107107  0
C  C43  1  0.33705370  0.04978405  0.99414070  1  0  -0.174799  0  3.825792  0  0  -0.178  0  4.122146  0  0  -0.194564  0  4.144387  0  0.009329  0  -0.056861  -0.166931  0  4.107207  0
C  C44  1  0.83187917  0.54865132  0.56074533  1  0  0.272463  0  3.870845  0  0  0.249397  0  4.147653  0  0  0.270744  0  4.154623  0  0.852644  0  0.097006  0.235075  0  4.142545  0
C  C45  1  0.16812026  0.45134990  0.43925332  1  0  0.272423  0  3.870847  0  0  0.2494  0  4.14761  0  0  0.270738  0  4.154592  0  0.852652  0  0.097034  0.235087  0  4.142492  0
C  C46  1  0.62808776  0.14027556  0.39341882  1  0  0.131557  0  3.718292  0  0  0.099496  0  3.981485  0  0  0.106994  0  3.999081  0  0.54864  0  0.051795  0.094629  0  3.969267  0
C  C47  1  0.37190484  0.85972565  0.60658449  1  0  0.131422  0  3.71821  0  0  0.099372  0  3.981374  0  0  0.106868  0  3.998969  0  0.549004  0  0.051696  0.094506  0  3.969155  0
C  C48  1  0.36532841  0.51558328  0.15115075  1  0  0.128492  0  3.747446  0  0  0.122723  0  3.986615  0  0  0.127195  0  4.007786  0  0.557999  0  0.118984  0.11974  0  3.972327  0
C  C49  1  0.63467414  0.48441597  0.84884669  1  0  0.128437  0  3.747338  0  0  0.122641  0  3.986566  0  0  0.127113  0  4.007737  0  0.557997  0  0.11897  0.119658  0  3.972279  0
C  C50  1  0.75183137  0.05157628  0.42525790  1  0  -0.123927  0  3.753659  0  0  -0.139827  0  4.015003  0  0  -0.146568  0  4.036599  0  -0.082495  0  -0.087248  -0.135591  0  4.000595  0
C  C51  1  0.24816693  0.94842494  0.57474571  1  0  -0.123929  0  3.753718  0  0  -0.139789  0  4.015067  0  0  -0.146529  0  4.036662  0  -0.082052  0  -0.087258  -0.135552  0  4.000659  0
C  C52  1  0.54264044  0.97385256  0.36081877  1  0  0.141127  0  3.731328  0  0  0.136154  0  3.967081  0  0  0.140935  0  3.987984  0  0.519211  0  0.120926  0.132921  0  3.95292  0
C  C53  1  0.45735630  0.02614964  0.63918239  1  0  0.141156  0  3.731276  0  0  0.136133  0  3.967054  0  0  0.140915  0  3.987957  0  0.51922  0  0.120903  0.132893  0  3.952907  0
C  C54  1  0.84927875  0.33442861  0.15044640  1  0  -0.124009  0  3.746098  0  0  -0.137091  0  4.002053  0  0  -0.143424  0  4.022378  0  0.007374  0  -0.086997  -0.13285  0  3.988255  0
C  C55  1  0.15072308  0.66556965  0.84955324  1  0  -0.123983  0  3.746091  0  0  -0.137067  0  4.002033  0  0  -0.1434  0  4.022357  0  0.007334  0  -0.086988  -0.132826  0  3.988236  0
C  C56  1  0.72871789  0.27767093  0.18737448  1  0  0.14976  0  3.689714  0  0  0.118576  0  3.946507  0  0  0.12622  0  3.962868  0  0.494897  0  0.056847  0.113674  0  3.935039  0
C  C57  1  0.27128166  0.72232733  0.81262559  1  0  0.149854  0  3.689735  0  0  0.118657  0  3.946521  0  0  0.126303  0  3.962881  0  0.494905  0  0.056901  0.113756  0  3.935053  0
C  C58  1  0.53202810  0.45309380  0.15071637  1  0  0.131756  0  3.735057  0  0  0.1261  0  3.973657  0  0  0.130263  0  3.99489  0  0.511128  0  0.118852  0.123291  0  3.959367  0
C  C59  1  0.46797373  0.54690446  0.84928327  1  0  0.131791  0  3.734916  0  0  0.126106  0  3.973597  0  0  0.13027  0  3.994828  0  0.511062  0  0.118843  0.123298  0  3.959305  0
C  C60  1  0.66689487  0.87595834  0.38880957  1  0  0.025764  0  3.781891  0  0  0.041124  0  4.013001  0  0  0.038662  0  4.037164  0  0.004119  0  -0.003832  0.042469  0  3.996881  0
C  C61  1  0.33310301  0.12404387  0.61119273  1  0  0.025734  0  3.781931  0  0  0.041142  0  4.012998  0  0  0.03868  0  4.037157  0  0.004082  0  -0.003813  0.042487  0  3.996882  0
C  C62  1  0.42301603  0.93561200  0.33514850  1  0  0.132671  0  3.745912  0  0  0.12792  0  3.981021  0  0  0.132319  0  4.00267  0  0.476669  0  0.118274  0.125054  0  3.966295  0
C  C63  1  0.57698652  0.06438725  0.66484962  1  0  0.132638  0  3.745888  0  0  0.1279  0  3.980985  0  0  0.132297  0  4.002635  0  0.476746  0  0.118276  0.125035  0  3.966259  0
C  C64  1  0.18357565  0.99887380  0.29677128  1  0  0.144332  0  3.700916  0  0  0.113882  0  3.955899  0  0  0.121815  0  3.972302  0  0.518118  0  0.053153  0.108807  0  3.944574  0
C  C65  1  0.81642492  0.00112742  0.70322648  1  0  0.144388  0  3.700861  0  0  0.113905  0  3.955867  0  0  0.121838  0  3.972266  0  0.518171  0  0.053167  0.10883  0  3.944545  0
C  C66  1  0.77246591  0.91880623  0.42164686  1  0  -0.044759  0  3.686697  0  0  -0.068872  0  3.936231  0  0  -0.066182  0  3.953697  0  -0.049928  0  -0.064173  -0.070354  0  3.92438  0
C  C67  1  0.22753280  0.08119400  0.57835398  1  0  -0.044636  0  3.686555  0  0  -0.068754  0  3.936054  0  0  -0.066059  0  3.95352  0  -0.050494  0  -0.064116  -0.070235  0  3.924202  0
C  C68  1  0.43331677  0.80119350  0.33776268  1  0  0.023054  0  3.796046  0  0  0.038835  0  4.028208  0  0  0.035851  0  4.052943  0  -0.011248  0  -0.004996  0.040672  0  4.011476  0
C  C69  1  0.56668464  0.19880575  0.66223634  1  0  0.023024  0  3.796083  0  0  0.03881  0  4.028223  0  0  0.035828  0  4.052957  0  -0.011263  0  -0.005024  0.040649  0  4.011488  0
C  C70  1  0.32098381  0.63834782  0.10935859  1  0  0.022017  0  3.800122  0  0  0.039551  0  4.030731  0  0  0.037171  0  4.054796  0  -0.055012  0  -0.003554  0.040935  0  4.014563  0
C  C71  1  0.67901915  0.36165044  0.89063880  1  0  0.022085  0  3.799948  0  0  0.039603  0  4.030607  0  0  0.037224  0  4.054668  0  -0.055153  0  -0.003562  0.040989  0  4.014438  0
C  C72  1  0.10213910  0.51561188  0.19509691  1  0  0.137758  0  3.692554  0  0  0.109228  0  3.943823  0  0  0.116297  0  3.961576  0  0.512073  0  0.051502  0.104646  0  3.931818  0
C  C73  1  0.89786386  0.48438638  0.80490184  1  0  0.137695  0  3.692409  0  0  0.109191  0  3.943642  0  0  0.116259  0  3.961394  0  0.512284  0  0.051475  0.104614  0  3.931648  0
C  C74  1  0.80705617  0.45409398  0.11065750  1  0  -0.058734  0  3.716473  0  0  -0.082039  0  3.962611  0  0  -0.081091  0  3.982688  0  -0.017768  0  -0.069835  -0.082245  0  3.948706  0
C  C75  1  0.19294680  0.54590428  0.88934395  1  0  -0.05884  0  3.716543  0  0  -0.082135  0  3.962671  0  0  -0.081188  0  3.982748  0  -0.017781  0  -0.069832  -0.082341  0  3.948766  0
C  C76  1  0.18119721  0.86931021  0.29993062  1  0  -0.13073  0  3.764704  0  0  -0.141603  0  4.016359  0  0  -0.1489  0  4.038417  0  -0.080243  0  -0.091316  -0.13686  0  4.001497  0
C  C77  1  0.81880720  0.13069003  0.70006510  1  0  -0.13072  0  3.764662  0  0  -0.141553  0  4.016301  0  0  -0.148843  0  4.038361  0  -0.080238  0  -0.09128  -0.13681  0  4.001441  0
C  C78  1  0.64609976  0.51689811  0.10907699  1  0  0.024956  0  3.800483  0  0  0.040379  0  4.032591  0  0  0.038102  0  4.057263  0  -0.077279  0  -0.004266  0.041706  0  4.01582  0
C  C79  1  0.35390351  0.48310213  0.89092233  1  0  0.025058  0  3.800339  0  0  0.040448  0  4.03251  0  0  0.038171  0  4.057182  0  -0.077283  0  -0.004296  0.041774  0  4.015741  0
C  C80  1  0.04626814  0.63819296  0.15741810  1  0  -0.135795  0  3.768048  0  0  -0.149512  0  4.025743  0  0  -0.156298  0  4.04685  0  0.033771  0  -0.091641  -0.145147  0  4.011439  0
C  C81  1  0.95373567  0.36180332  0.84257986  1  0  -0.135713  0  3.76794  0  0  -0.14943  0  4.025619  0  0  -0.156214  0  4.046725  0  0.033569  0  -0.091569  -0.145068  0  4.011309  0
C  C82  1  0.59657472  0.63969915  0.06723917  1  0  -0.092947  0  3.729811  0  0  -0.115507  0  3.984791  0  0  -0.118532  0  4.007798  0  0.05115  0  -0.085601  -0.113253  0  3.969231  0
C  C83  1  0.40342753  0.36029812  0.93275838  1  0  -0.092957  0  3.729693  0  0  -0.115491  0  3.984663  0  0  -0.118516  0  4.007665  0  0.051171  0  -0.085558  -0.113237  0  3.969101  0
C  C84  1  0.15674410  0.69881326  0.11363599  1  0  -0.052726  0  3.708501  0  0  -0.077476  0  3.956234  0  0  -0.075226  0  3.974231  0  -0.085548  0  -0.067525  -0.078582  0  3.943846  0
C  C85  1  0.84325970  0.30118302  0.88636130  1  0  -0.052703  0  3.708342  0  0  -0.077454  0  3.956095  0  0  -0.075205  0  3.974091  0  -0.085525  0  -0.067506  -0.078561  0  3.943707  0
C  C86  1  0.30708120  0.77003211  0.31957082  1  0  -0.052368  0  3.705385  0  0  -0.078233  0  3.957937  0  0  -0.075703  0  3.976506  0  0.00328  0  -0.068696  -0.079797  0  3.945355  0
C  C87  1  0.69291979  0.22996812  0.68042756  1  0  -0.052443  0  3.705446  0  0  -0.078298  0  3.957973  0  0  -0.075769  0  3.97654  0  0.003308  0  -0.068725  -0.079863  0  3.945392  0
C  C88  1  0.56555395  0.70444741  0.36093152  1  0  -0.10268  0  3.753041  0  0  -0.125438  0  4.007239  0  0  -0.128492  0  4.030201  0  -0.039806  0  -0.088112  -0.12327  0  3.991528  0
C  C89  1  0.43444602  0.29554987  0.63906850  1  0  -0.102594  0  3.753019  0  0  -0.125355  0  4.007207  0  0  -0.128407  0  4.030169  0  -0.039787  0  -0.088089  -0.123186  0  3.991495  0
C  C90  1  0.67797221  0.74066394  0.38553125  1  0  -0.096297  0  3.742555  0  0  -0.116023  0  3.992932  0  0  -0.119605  0  4.017354  0  -0.072927  0  -0.088074  -0.113677  0  3.976688  0
C  C91  1  0.32202878  0.25933629  0.61446984  1  0  -0.096336  0  3.742699  0  0  -0.116094  0  3.993087  0  0  -0.119677  0  4.017508  0  -0.072885  0  -0.088106  -0.113747  0  3.976843  0
C  C92  1  0.43983075  0.69801825  0.06719520  1  0  -0.091373  0  3.734566  0  0  -0.116179  0  3.991522  0  0  -0.119512  0  4.015788  0  -0.10977  0  -0.086479  -0.113808  0  3.975382  0
C  C93  1  0.56017264  0.30197902  0.93280282  1  0  -0.091388  0  3.734591  0  0  -0.116186  0  3.991529  0  0  -0.119511  0  4.015811  0  -0.109791  0  -0.086481  -0.113813  0  3.975387  0
N  N94  1  0.52795309  0.10281325  0.36131861  1  0  -0.327527  0  3.191568  0  0  -0.268872  0  3.454162  0  0  -0.285969  0  3.472437  0  -1.200529  0  -0.311539  -0.257051  0  3.441371  0
N  N95  1  0.47204365  0.89718896  0.63868255  1  0  -0.327458  0  3.191427  0  0  -0.26878  0  3.453997  0  0  -0.285879  0  3.472279  0  -1.200451  0  -0.311469  -0.256957  0  3.441208  0
N  N96  1  0.30104691  0.03075796  0.31338599  1  0  -0.327502  0  3.211551  0  0  -0.267807  0  3.46657  0  0  -0.285157  0  3.485922  0  -1.189765  0  -0.312675  -0.255984  0  3.45309  0
N  N97  1  0.69895294  0.96924227  0.68661396  1  0  -0.327489  0  3.21152  0  0  -0.267786  0  3.466541  0  0  -0.285134  0  3.485891  0  -1.189887  0  -0.312676  -0.255964  0  3.453061  0
N  N98  1  0.57522123  0.33534297  0.18891434  1  0  -0.318492  0  3.192105  0  0  -0.256632  0  3.448636  0  0  -0.273548  0  3.467008  0  -1.214898  0  -0.308046  -0.245004  0  3.435908  0
N  N99  1  0.42477904  0.66465627  0.81108557  1  0  -0.318572  0  3.192082  0  0  -0.256686  0  3.448617  0  0  -0.273603  0  3.466989  0  -1.214806  0  -0.308081  -0.245057  0  3.43589  0
N  N100  1  0.25622865  0.45621862  0.19193722  1  0  -0.322826  0  3.205501  0  0  -0.262154  0  3.460551  0  0  -0.279271  0  3.480084  0  -1.217314  0  -0.309447  -0.25028  0  3.44721  0
N  N101  1  0.74377504  0.54378062  0.80806204  1  0  -0.322872  0  3.205438  0  0  -0.262167  0  3.460467  0  0  -0.279285  0  3.479999  0  -1.217595  0  -0.309449  -0.250293  0  3.447122  0
Cl  Cl102  1  0.73373258  0.39407537  0.47006149  1  0  -0.064384  0  1.454269  0  0  -0.049031  0  1.711467  0  0  -0.048043  0  1.706163  0  -0.232393  0  -0.002301  -0.049426  0  1.715137  0
Cl  Cl103  1  0.26626728  0.60592487  0.52993914  1  0  -0.064387  0  1.454288  0  0  -0.049029  0  1.711488  0  0  -0.048042  0  1.706183  0  -0.232438  0  -0.002305  -0.049424  0  1.715158  0
Cl  Cl104  1  0.85808387  0.89310539  0.01491498  1  0  -0.086376  0  1.438782  0  0  -0.073437  0  1.685665  0  0  -0.072993  0  1.680045  0  -0.240396  0  -0.019833  -0.073581  0  1.689729  0
Cl  Cl105  1  0.14191204  0.10689879  0.98508560  1  0  -0.086398  0  1.438751  0  0  -0.073463  0  1.685645  0  0  -0.073021  0  1.680027  0  -0.24041  0  -0.019846  -0.073606  0  1.689709  0
O  O106  1  0.56674264  0.07563679  0.15136466  1  0  -0.495975  0  2.124708  0  0  -0.443398  0  2.367167  0  0  -0.467747  0  2.364408  0  -1.104714  0  -0.291697  -0.426429  0  2.368551  0
O  O107  1  0.43325254  0.92436640  0.84863609  1  0  -0.49597  0  2.124707  0  0  -0.443398  0  2.367135  0  0  -0.46775  0  2.364375  0  -1.104712  0  -0.291688  -0.426426  0  2.368522  0
O  O108  1  0.08189422  0.31406205  0.35680991  1  0  -0.493913  0  2.085438  0  0  -0.441641  0  2.33005  0  0  -0.464871  0  2.324595  0  -1.11104  0  -0.293865  -0.425278  0  2.333039  0
O  O109  1  0.91810492  0.68593719  0.64319088  1  0  -0.493883  0  2.085497  0  0  -0.441627  0  2.330115  0  0  -0.464855  0  2.324663  0  -1.111037  0  -0.29383  -0.425261  0  2.333105  0
O  O110  1  0.68833036  0.59866025  0.61449097  1  0  -0.488893  0  2.077435  0  0  -0.441893  0  2.325047  0  0  -0.464624  0  2.321208  0  -1.11169  0  -0.293029  -0.425875  0  2.326713  0
O  O111  1  0.31166908  0.40134096  0.38550904  1  0  -0.48886  0  2.077494  0  0  -0.441881  0  2.325096  0  0  -0.464607  0  2.321256  0  -1.111708  0  -0.293027  -0.425868  0  2.326754  0
O  O112  1  0.73882315  0.81804759  0.86370609  1  0  -0.493319  0  2.039118  0  0  -0.442526  0  2.279291  0  0  -0.466341  0  2.275556  0  -1.117691  0  -0.289051  -0.426205  0  2.2815  0
O  O113  1  0.26117191  0.18195856  0.13629324  1  0  -0.49327  0  2.039184  0  0  -0.442461  0  2.279285  0  0  -0.466272  0  2.275544  0  -1.117756  0  -0.289005  -0.426152  0  2.281522  0
