# generated using pymatgen
data_Cu2H20C28N2O11
_symmetry_space_group_name_H-M   'P 1'
_cell_length_a   11.08080876
_cell_length_b   11.21393348
_cell_length_c   11.92903712
_cell_angle_alpha   91.82613539
_cell_angle_beta   92.55028541
_cell_angle_gamma   102.64949540
_symmetry_Int_Tables_number   1
_chemical_formula_structural   Cu2H20C28N2O11
_chemical_formula_sum   'Cu4 H40 C56 N4 O22'
_cell_volume   1443.56768401
_cell_formula_units_Z   2
loop_
 _symmetry_equiv_pos_site_id
 _symmetry_equiv_pos_as_xyz
  1  'x, y, z'
loop_
 _atom_site_type_symbol
 _atom_site_label
 _atom_site_symmetry_multiplicity
 _atom_site_fract_x
 _atom_site_fract_y
 _atom_site_fract_z
 _atom_site_occupancy
 _atom_site_pbe_bader_charge
 _atom_site_pbe_bader_spin_density
 _atom_site_pbe_cm5_charge
 _atom_site_pbe_ddec_charge
 _atom_site_pbe_ddec_spin_density
 _atom_site_pbe_ddec_sum_bond_order
 _atom_site_pbe_magmom
Cu  Cu0  1  0.17548980  0.59332392  0.43369286  1  1.109612  0.570208  0.748913  0.87356  0.729455  2.160474  0.569
Cu  Cu1  1  0.82450757  0.40667208  0.56630503  1  1.109401  0.570202  0.748893  0.873545  0.729457  2.160557  0.569
Cu  Cu2  1  0.89777180  0.71499948  0.25012388  1  1.070942  0.576009  0.71547  0.827514  0.730929  2.146765  0.572
Cu  Cu3  1  0.10221635  0.28500361  0.74986113  1  1.070967  0.576016  0.71546  0.827509  0.730957  2.14668  0.572
H  H4  1  0.29443663  0.64385075  0.62258168  1  0.609142  0.000116  0.296011  0.382692  7.9e-05  0.934011  0.0
H  H5  1  0.70554874  0.35616149  0.37741934  1  0.609318  0.000116  0.29601  0.382736  7.9e-05  0.933961  0.0
H  H6  1  0.38818451  0.69689395  0.53196129  1  0.642473  4.3e-05  0.2753  0.367503  -5.2e-05  0.98489  0.0
H  H7  1  0.61180533  0.30311381  0.46804068  1  0.642927  4.3e-05  0.275348  0.367534  -5.2e-05  0.984867  0.0
H  H8  1  0.75875255  0.74218060  0.40934063  1  0.62052  0.001035  0.33843  0.417173  0.000807  0.844821  0.001
H  H9  1  0.24123255  0.25781701  0.59065332  1  0.620657  0.001035  0.338373  0.417092  0.000806  0.845034  0.001
H  H10  1  0.82431545  0.63377428  0.43491207  1  0.6618  0.000155  0.301389  0.406274  0.000274  0.924413  0.0
H  H11  1  0.17567122  0.36622248  0.56508781  1  0.661748  0.000155  0.301476  0.406369  0.000273  0.924306  0.0
H  H12  1  0.35329676  0.24015404  0.15857851  1  0.082078  9.8e-05  0.100817  0.112537  -0.0  1.023231  0.0
H  H13  1  0.64670140  0.75984560  0.84141699  1  0.082018  9.8e-05  0.100804  0.112502  -0.0  1.023394  0.0
H  H14  1  0.53833592  0.20645317  0.27132434  1  0.079746  0.000447  0.100077  0.098756  0.000231  1.01292  0.0
H  H15  1  0.46166957  0.79356029  0.72867773  1  0.079779  0.000447  0.100052  0.098708  0.000231  1.013138  0.0
H  H16  1  0.52201609  0.01398354  0.37606278  1  0.10898  0.000125  0.107182  0.117232  5e-06  1.000272  0.0
H  H17  1  0.47799767  0.98603100  0.62394812  1  0.109063  0.000125  0.107162  0.11724  5e-06  1.00046  0.0
H  H18  1  0.11778148  0.19541398  0.33776957  1  0.107156  0.000141  0.113616  0.138735  5.7e-05  0.984224  0.0
H  H19  1  0.88221652  0.80458932  0.66222853  1  0.107066  0.000141  0.113616  0.138712  5.7e-05  0.984371  0.0
H  H20  1  0.92984080  0.36320472  0.00843418  1  0.102794  8e-05  0.10822  0.116456  1e-06  0.993764  0.0
H  H21  1  0.07018902  0.63682092  0.99156019  1  0.103066  8e-05  0.10823  0.116544  1e-06  0.993784  0.0
H  H22  1  0.03339323  0.19051967  0.98086955  1  0.114738  -0.000129  0.105869  0.124924  -0.000265  1.051673  0.0
H  H23  1  0.96661148  0.80950289  0.01913101  1  0.114943  -0.000129  0.105905  0.124983  -0.000265  1.051583  0.0
H  H24  1  0.38782793  0.48146511  0.42275855  1  0.122018  0.002955  0.127424  0.110275  0.001493  0.979831  0.002
H  H25  1  0.61216896  0.51854286  0.57726391  1  0.122076  0.002953  0.127427  0.110284  0.001492  0.979887  0.002
H  H26  1  0.16442431  0.61489257  0.19298091  1  0.139261  0.002566  0.120573  0.1012  0.001179  1.027699  0.002
H  H27  1  0.83556941  0.38506416  0.80701419  1  0.139244  0.002565  0.120619  0.101252  0.001178  1.02786  0.002
H  H28  1  0.52873402  0.44309087  0.27702384  1  0.155602  0.001296  0.110245  0.133727  0.000694  1.016688  0.001
H  H29  1  0.47128238  0.55692019  0.72300974  1  0.15582  0.001296  0.110209  0.133766  0.000694  1.016555  0.001
H  H30  1  0.28508114  0.56813550  0.03204631  1  0.154329  0.00096  0.108114  0.12797  0.000539  1.033316  0.001
H  H31  1  0.71491530  0.43181311  0.96795797  1  0.154389  0.00096  0.108142  0.127798  0.000539  1.033355  0.001
H  H32  1  0.58517323  0.45041062  0.08423689  1  0.112183  0.000106  0.109067  0.117479  0.000105  1.007046  0.0
H  H33  1  0.41483631  0.54960013  0.91575694  1  0.112138  0.000106  0.109011  0.117493  0.000105  1.00698  0.0
H  H34  1  0.64278888  0.67114902  0.18191662  1  0.145132  0.002024  0.117231  0.088451  0.001018  1.031523  0.002
H  H35  1  0.35720826  0.32885424  0.81807639  1  0.145049  0.002022  0.117183  0.088414  0.001016  1.031428  0.002
H  H36  1  0.93338852  0.97332143  0.17707222  1  0.147944  0.001856  0.119576  0.087977  0.000823  1.057171  0.001
H  H37  1  0.06661481  0.02667284  0.82292677  1  0.148245  0.001855  0.119622  0.088033  0.000822  1.05707  0.001
H  H38  1  0.49664172  0.77800130  0.08642773  1  0.096267  0.000957  0.107362  0.111444  0.000495  1.019987  0.001
H  H39  1  0.50335565  0.22200285  0.91356113  1  0.096422  0.000957  0.107335  0.111562  0.000494  1.019871  0.001
H  H40  1  0.80118795  0.09482156  0.07942619  1  0.119245  0.000871  0.10934  0.119092  0.000495  1.013404  0.0
H  H41  1  0.19881260  0.90517169  0.92056006  1  0.119044  0.000871  0.109287  0.119177  0.000495  1.01331  0.0
H  H42  1  0.61025713  0.11013699  0.99332777  1  0.055355  9.6e-05  0.109333  0.108207  8.2e-05  0.989411  0.0
H  H43  1  0.38975084  0.88986188  0.00666486  1  0.05523  9.6e-05  0.109354  0.108194  8.2e-05  0.989399  0.0
C  C44  1  0.32400632  0.83088606  0.39125474  1  1.565661  5.5e-05  0.209227  0.568805  -0.000163  4.194514  -0.002
C  C45  1  0.67602130  0.16911683  0.60875408  1  1.565358  5.3e-05  0.209287  0.568755  -0.000163  4.194125  -0.002
C  C46  1  0.33070449  0.94456021  0.32605112  1  -0.02086  0.016315  -0.014307  -0.042964  0.011302  3.939852  0.012
C  C47  1  0.66931303  0.05543343  0.67395948  1  -0.021093  0.016321  -0.014324  -0.042783  0.011305  3.939857  0.012
C  C48  1  0.22509242  0.96499594  0.26577681  1  0.02643  0.008635  -0.009148  -0.112225  0.006163  3.897862  0.007
C  C49  1  0.77491513  0.03500212  0.73423841  1  0.026853  0.008633  -0.009146  -0.112348  0.006162  3.898452  0.007
C  C50  1  0.09715182  0.88521310  0.27256759  1  1.597591  -0.001455  0.190835  0.583412  -0.001797  4.249264  -0.004
C  C51  1  0.90284534  0.11479116  0.72744222  1  1.597531  -0.001454  0.190817  0.583478  -0.001795  4.249227  -0.004
C  C52  1  0.23734665  0.07141989  0.20535155  1  0.398637  0.005347  0.077497  0.209438  0.003368  4.037382  0.003
C  C53  1  0.76265330  0.92858080  0.79466586  1  0.398678  0.005346  0.077462  0.20935  0.003368  4.037821  0.003
C  C54  1  0.34860692  0.15836000  0.20655350  1  -0.107977  -0.000894  -0.100023  -0.192109  -0.001178  4.023007  -0.001
C  C55  1  0.65139451  0.84163887  0.79345892  1  0.017645  -0.000917  -0.099974  -0.192016  -0.001178  4.022895  -0.001
C  C56  1  0.45144654  0.13822939  0.26843160  1  0.042512  0.006286  -0.092665  -0.064204  0.004147  4.025566  0.004
C  C57  1  0.54854600  0.86177027  0.73158206  1  -0.083099  0.006311  -0.092652  -0.064207  0.004149  4.025211  0.004
C  C58  1  0.44281292  0.03128865  0.32704266  1  -0.00953  0.002136  -0.084948  -0.096044  0.001272  3.972007  0.002
C  C59  1  0.55718286  0.96871739  0.67296209  1  -0.009603  0.002136  -0.084924  -0.09605  0.001273  3.971803  0.002
C  C60  1  0.08556646  0.18619144  0.15723648  1  0.408921  0.002206  0.088401  0.264866  0.001383  4.038834  0.001
C  C61  1  0.91441475  0.81380525  0.84276480  1  0.408942  0.002205  0.088446  0.2649  0.001382  4.038695  0.001
C  C62  1  0.07944524  0.23492878  0.26575010  1  0.003604  0.002549  -0.095334  -0.218763  0.001684  3.934609  0.002
C  C63  1  0.92052579  0.76506226  0.73424717  1  0.002346  0.002551  -0.095312  -0.218767  0.001684  3.93471  0.002
C  C64  1  0.01734030  0.32947856  0.28077930  1  -0.009682  0.005964  -0.009252  -0.026331  0.004128  3.969943  0.004
C  C65  1  0.98263281  0.67051339  0.71921139  1  -0.008652  0.005958  -0.00934  -0.026439  0.004125  3.970126  0.004
C  C66  1  0.99919591  0.37076158  0.39831507  1  1.571599  0.007776  0.232787  0.624337  0.007588  4.122676  0.005
C  C67  1  0.00079106  0.62922788  0.60168297  1  1.571357  0.007775  0.232867  0.624474  0.007584  4.122701  0.005
C  C68  1  0.96329991  0.37730033  0.18810402  1  -0.046015  0.008731  -0.024134  -0.079263  0.006057  3.978804  0.006
C  C69  1  0.03667586  0.62270085  0.81190127  1  -0.045485  0.008737  -0.024196  -0.079185  0.006062  3.978673  0.006
C  C70  1  0.90885832  0.48755942  0.20023119  1  1.533716  -0.000133  0.19151  0.563126  -0.000196  4.225131  -0.002
C  C71  1  0.09114163  0.51245758  0.79976732  1  1.534369  -0.000131  0.191551  0.563154  -0.000193  4.225535  -0.002
C  C72  1  0.97056987  0.32627382  0.08063885  1  -0.03186  0.000892  -0.081007  -0.071035  0.000298  3.980144  0.001
C  C73  1  0.02942870  0.67373681  0.91936448  1  -0.031868  0.000892  -0.081125  -0.071388  0.000297  3.98033  0.001
C  C74  1  0.03061417  0.23085759  0.06455732  1  0.021441  0.00565  -0.09831  -0.192334  0.00373  3.967259  0.003
C  C75  1  0.96938299  0.76915483  0.93544262  1  0.021089  0.005652  -0.098276  -0.192273  0.003732  3.967215  0.003
C  C76  1  0.37018878  0.49984518  0.33504959  1  0.473723  0.000167  0.054857  0.104494  -0.000203  3.917601  0.001
C  C77  1  0.62981481  0.50015098  0.66496119  1  0.473568  0.000167  0.05483  0.104414  -0.000204  3.917703  0.001
C  C78  1  0.24410487  0.57356632  0.20518032  1  0.435279  -0.001073  0.045739  0.092322  -0.001724  3.935197  -0.001
C  C79  1  0.75589215  0.42640235  0.79482362  1  0.435785  -0.001073  0.045681  0.092036  -0.001723  3.935483  -0.001
C  C80  1  0.44772773  0.47852687  0.25209938  1  -0.034977  0.007178  -0.075957  -0.16575  0.004843  3.895656  0.006
C  C81  1  0.55228394  0.52146946  0.74791937  1  -0.036441  0.007178  -0.076029  -0.166139  0.004843  3.895946  0.006
C  C82  1  0.31461034  0.55088177  0.11735949  1  -0.072288  0.006424  -0.079567  -0.166489  0.004367  3.891448  0.005
C  C83  1  0.68539182  0.44909428  0.88264656  1  -0.07376  0.006426  -0.079626  -0.166309  0.004366  3.891483  0.005
C  C84  1  0.42116056  0.50436235  0.14011068  1  0.005028  -0.003312  0.005928  0.136566  -0.003759  4.024154  -0.002
C  C85  1  0.57885282  0.49563763  0.85990489  1  0.006336  -0.003312  0.00602  0.136872  -0.003759  4.024149  -0.002
C  C86  1  0.50559409  0.48592540  0.05445752  1  -0.121955  -0.000772  -0.077218  -0.122791  -0.000945  3.947829  0.0
C  C87  1  0.49441380  0.51408267  0.94555292  1  -0.015701  -0.00076  -0.077053  -0.122854  -0.000946  3.947745  0.0
C  C88  1  0.67293942  0.76524547  0.15743837  1  0.447023  0.00074  0.043723  0.089877  0.000707  3.953084  0.001
C  C89  1  0.32706929  0.23475147  0.84253329  1  0.447399  0.00074  0.043701  0.090161  0.000708  3.952573  0.001
C  C90  1  0.83634895  0.93454112  0.15503412  1  0.488214  -0.002295  0.052219  0.112218  -0.002984  3.922151  -0.002
C  C91  1  0.16365823  0.06545767  0.84494673  1  0.488105  -0.002295  0.052032  0.112047  -0.002983  3.922142  -0.002
C  C92  1  0.59252389  0.82616055  0.10398631  1  -0.071544  0.005785  -0.077195  -0.160972  0.003818  3.911772  0.005
C  C93  1  0.40748242  0.17383363  0.89598684  1  -0.072299  0.005784  -0.077223  -0.161485  0.003817  3.911738  0.005
C  C94  1  0.76137982  0.00123299  0.10109705  1  -0.08854  0.00403  -0.072661  -0.151901  0.002695  3.884054  0.003
C  C95  1  0.23862957  0.99875848  0.89887284  1  -0.089029  0.004028  -0.072537  -0.151968  0.002695  3.883893  0.003
C  C96  1  0.63630845  0.94772854  0.07337571  1  0.0916  -0.003093  0.013749  0.150942  -0.003518  4.015975  -0.002
C  C97  1  0.36369818  0.05226291  0.92659824  1  0.092783  -0.003093  0.013766  0.151107  -0.003517  4.015812  -0.002
C  C98  1  0.56082216  0.01900173  0.01474899  1  -0.066651  -0.000884  -0.072394  -0.108339  -0.001043  3.957352  0.0
C  C99  1  0.43918434  0.98099437  0.98524266  1  0.035458  -0.000875  -0.072453  -0.108208  -0.001044  3.957158  0.0
N  N100  1  0.27115579  0.54761806  0.31185663  1  -1.213653  0.099422  -0.355507  -0.247639  0.06584  3.675298  0.085
N  N101  1  0.72884580  0.45237258  0.68814889  1  -1.212917  0.099413  -0.35545  -0.247234  0.065837  3.674983  0.085
N  N102  1  0.79339234  0.81791627  0.18230473  1  -1.252508  0.0704  -0.359154  -0.261145  0.046522  3.651666  0.059
N  N103  1  0.20660513  0.18208325  0.81766893  1  -1.253016  0.070393  -0.359024  -0.261166  0.046517  3.651186  0.059
O  O104  1  0.21437685  0.76070894  0.38783309  1  -1.085229  0.138112  -0.309699  -0.517643  0.086991  2.415998  0.125
O  O105  1  0.78564946  0.23929111  0.61215883  1  -1.084686  0.138103  -0.309744  -0.517788  0.086986  2.416032  0.125
O  O106  1  0.41907246  0.81097283  0.44173272  1  -1.173785  0.003339  -0.315717  -0.538959  0.001218  2.150196  0.003
O  O107  1  0.58094290  0.18903268  0.55828978  1  -1.173983  0.003342  -0.315747  -0.538964  0.00122  2.150048  0.003
O  O108  1  0.06019559  0.80117793  0.19302029  1  -1.096773  0.145803  -0.323813  -0.539518  0.092306  2.254469  0.129
O  O109  1  0.93980977  0.19882185  0.80698061  1  -1.096775  0.145783  -0.323826  -0.539525  0.092293  2.25449  0.129
O  O110  1  0.03068404  0.90867757  0.34829553  1  -1.141865  0.006344  -0.328719  -0.548312  0.003236  2.086614  0.006
O  O111  1  0.96930410  0.09132653  0.65170878  1  -1.141775  0.006358  -0.328677  -0.548285  0.003246  2.086604  0.006
O  O112  1  0.13625304  0.08600062  0.13713762  1  -1.107201  0.002492  -0.152784  -0.217306  0.001416  2.581222  0.002
O  O113  1  0.86373947  0.91399447  0.86287425  1  -1.107482  0.002493  -0.152761  -0.217174  0.001417  2.581586  0.002
O  O114  1  0.88805243  0.35060890  0.42635487  1  -1.104829  0.08691  -0.297804  -0.502461  0.056167  2.376703  0.078
O  O115  1  0.11194272  0.64938984  0.57365052  1  -1.104546  0.086912  -0.297864  -0.502603  0.056169  2.376457  0.078
O  O116  1  0.09340043  0.41846425  0.46441344  1  -1.181515  0.047293  -0.330554  -0.602219  0.029944  2.427202  0.04
O  O117  1  0.90660081  0.58152811  0.53557450  1  -1.181574  0.047292  -0.330583  -0.602261  0.029947  2.427572  0.04
O  O118  1  0.96572260  0.56975316  0.27596264  1  -1.105318  0.092713  -0.329023  -0.562193  0.058196  2.360164  0.083
O  O119  1  0.03428642  0.43026398  0.72403551  1  -1.106162  0.092705  -0.32902  -0.562166  0.058189  2.360362  0.083
O  O120  1  0.81975672  0.50169866  0.13733193  1  -1.172387  0.009483  -0.329021  -0.570679  0.005503  2.131079  0.008
O  O121  1  0.18023263  0.49833280  0.86267225  1  -1.172531  0.009472  -0.328966  -0.570681  0.005496  2.131379  0.008
O  O122  1  0.35865387  0.62283214  0.57732825  1  -1.257204  0.001109  -0.597588  -0.782696  0.000521  1.981235  0.002
O  O123  1  0.64132763  0.37717916  0.42267757  1  -1.25771  0.001109  -0.597607  -0.782798  0.000521  1.981276  0.002
O  O124  1  0.77594053  0.66761885  0.37589267  1  -1.198047  0.051605  -0.562491  -0.727198  0.033642  2.108651  0.044
O  O125  1  0.22405881  0.33238626  0.62410051  1  -1.198138  0.051633  -0.562552  -0.727235  0.03366  2.10876  0.044
