# generated using pymatgen
data_CdH30C34N6(ClO2)2
_symmetry_space_group_name_H-M   'P 1'
_cell_length_a   4.96804986
_cell_length_b   12.04882324
_cell_length_c   15.69349776
_cell_angle_alpha   82.37780008
_cell_angle_beta   80.88961359
_cell_angle_gamma   78.10514132
_symmetry_Int_Tables_number   1
_chemical_formula_structural   CdH30C34N6(ClO2)2
_chemical_formula_sum   'Cd1 H30 C34 N6 Cl2 O4'
_cell_volume   902.75735435
_cell_formula_units_Z   1
loop_
 _symmetry_equiv_pos_site_id
 _symmetry_equiv_pos_as_xyz
  1  'x, y, z'
loop_
 _atom_site_type_symbol
 _atom_site_label
 _atom_site_symmetry_multiplicity
 _atom_site_fract_x
 _atom_site_fract_y
 _atom_site_fract_z
 _atom_site_occupancy
 _atom_site_hle17_bader_spin_density
 _atom_site_hle17_ddec_charge
 _atom_site_hle17_ddec_spin_density
 _atom_site_hle17_ddec_sum_bond_order
 _atom_site_hle17_magmom
 _atom_site_hse06_10hf_bader_spin_density
 _atom_site_hse06_10hf_ddec_charge
 _atom_site_hse06_10hf_ddec_spin_density
 _atom_site_hse06_10hf_ddec_sum_bond_order
 _atom_site_hse06_10hf_magmom
 _atom_site_hse06_bader_spin_density
 _atom_site_hse06_ddec_charge
 _atom_site_hse06_ddec_spin_density
 _atom_site_hse06_ddec_sum_bond_order
 _atom_site_hse06_magmom
 _atom_site_pbe_bader_spin_density
 _atom_site_pbe_cm5_charge
 _atom_site_pbe_ddec_charge
 _atom_site_pbe_ddec_spin_density
 _atom_site_pbe_ddec_sum_bond_order
 _atom_site_pbe_magmom
Cd  Cd0  1  0.37687128  0.99987515  0.99989962  1  0  0.960754  0  1.916569  0  0  0.771261  0  2.398762  0  0  0.81843  0  2.358625  0  0  0.632198  0.73861  0  2.425696  0
H  H1  1  0.00779280  0.24677121  0.95380119  1  0  0.081574  0  0.939863  0  0  0.088338  0  1.003781  0  0  0.091469  0  1.000592  0  0  0.109714  0.086009  0  1.006164  0
H  H2  1  0.20830138  0.75295473  0.04619306  1  0  0.081714  0  0.940658  0  0  0.088123  0  1.004794  0  0  0.091269  0  1.00159  0  0  0.110062  0.085764  0  1.007202  0
H  H3  1  0.68157698  0.34624718  0.85083089  1  0  0.106847  0  0.938958  0  0  0.120925  0  0.989662  0  0  0.124199  0  0.988699  0  0  0.110286  0.118589  0  0.990504  0
H  H4  1  0.87852443  0.65355639  0.14920558  1  0  0.107207  0  0.94005  0  0  0.121558  0  0.990301  0  0  0.124749  0  0.98944  0  0  0.110636  0.119292  0  0.991051  0
H  H5  1  0.83422373  0.03361831  0.72944609  1  0  0.110675  0  0.982889  0  0  0.120777  0  1.04404  0  0  0.124111  0  1.042412  0  0  0.1076  0.11836  0  1.045425  0
H  H6  1  0.59717113  0.96639235  0.27036183  1  0  0.11096  0  0.983353  0  0  0.121103  0  1.044636  0  0  0.124473  0  1.042935  0  0  0.107854  0.11866  0  1.046081  0
H  H7  1  0.14136661  0.94584439  0.84007628  1  0  0.080517  0  0.946299  0  0  0.086968  0  1.012843  0  0  0.089789  0  1.010084  0  0  0.107616  0.084866  0  1.014868  0
H  H8  1  0.92721208  0.05407071  0.15963169  1  0  0.080323  0  0.947123  0  0  0.08634  0  1.014026  0  0  0.089165  0  1.01126  0  0  0.107406  0.084248  0  1.016054  0
H  H9  1  0.47657821  0.09533507  0.67697992  1  0  0.099581  0  0.971741  0  0  0.109808  0  1.037965  0  0  0.112628  0  1.036384  0  0  0.106468  0.107741  0  1.039178  0
H  H10  1  0.24794739  0.90467584  0.32269077  1  0  0.099672  0  0.97047  0  0  0.109555  0  1.036735  0  0  0.112401  0  1.035158  0  0  0.106776  0.107478  0  1.03798  0
H  H11  1  0.04359154  0.39925678  0.54614746  1  0  0.118837  0  0.968515  0  0  0.126722  0  1.032184  0  0  0.130443  0  1.029776  0  0  0.109101  0.124065  0  1.033935  0
H  H12  1  0.98891962  0.60077639  0.45401143  1  0  0.118309  0  0.96807  0  0  0.126166  0  1.031623  0  0  0.12976  0  1.029396  0  0  0.108811  0.123563  0  1.033314  0
H  H13  1  0.57037794  0.42658475  0.73120166  1  0  0.11353  0  0.945498  0  0  0.123671  0  1.005386  0  0  0.127613  0  1.002402  0  0  0.109203  0.12084  0  1.007586  0
H  H14  1  0.72779562  0.57343497  0.26880611  1  0  0.11254  0  0.945592  0  0  0.122859  0  1.005414  0  0  0.126815  0  1.002408  0  0  0.10858  0.120027  0  1.007618  0
H  H15  1  0.56047910  0.25323917  0.44061241  1  0  0.076105  0  0.930732  0  0  0.082664  0  0.99621  0  0  0.084589  0  0.995371  0  0  0.117434  0.08124  0  0.996947  0
H  H16  1  0.25457542  0.74680420  0.55948034  1  0  0.075437  0  0.930896  0  0  0.081891  0  0.996344  0  0  0.083832  0  0.995494  0  0  0.116791  0.080451  0  0.997103  0
H  H17  1  0.49227984  0.26458335  0.26771455  1  0  0.092771  0  0.920145  0  0  0.11133  0  0.972864  0  0  0.112603  0  0.97279  0  0  0.100151  0.110357  0  0.973011  0
H  H18  1  0.02467946  0.73540972  0.73238070  1  0  0.09197  0  0.91957  0  0  0.110905  0  0.972399  0  0  0.112178  0  0.972295  0  0  0.0999  0.109917  0  0.972561  0
H  H19  1  0.61428318  0.13246920  0.32779382  1  0  0.092168  0  0.939716  0  0  0.112346  0  0.997247  0  0  0.11325  0  0.997928  0  0  0.101674  0.111686  0  0.996762  0
H  H20  1  0.07498267  0.86750034  0.67235416  1  0  0.091125  0  0.938156  0  0  0.112095  0  0.995121  0  0  0.112972  0  0.995817  0  0  0.10177  0.111445  0  0.994636  0
H  H21  1  0.00944042  0.23094683  0.30111351  1  0  0.073484  0  0.936937  0  0  0.091522  0  0.996279  0  0  0.092419  0  0.996601  0  0  0.092005  0.090806  0  0.996139  0
H  H22  1  0.54179283  0.76910370  0.69893475  1  0  0.0747  0  0.935659  0  0  0.092698  0  0.995314  0  0  0.093544  0  0.995674  0  0  0.092575  0.092053  0  0.995088  0
H  H23  1  0.20462093  0.09821526  0.27178647  1  0  0.079927  0  0.952979  0  0  0.09669  0  1.017528  0  0  0.097294  0  1.017979  0  0  0.092602  0.096204  0  1.017292  0
H  H24  1  0.57499781  0.90180809  0.72830442  1  0  0.081106  0  0.952813  0  0  0.09838  0  1.016976  0  0  0.099  0  1.017384  0  0  0.092956  0.097874  0  1.016781  0
H  H25  1  0.88608775  0.10398018  0.43298189  1  0  0.072999  0  0.952879  0  0  0.084685  0  1.02396  0  0  0.085703  0  1.022774  0  0  0.102905  0.083864  0  1.024927  0
H  H26  1  0.42337908  0.89615843  0.56714600  1  0  0.071676  0  0.954414  0  0  0.083712  0  1.025276  0  0  0.084716  0  1.024098  0  0  0.102743  0.082901  0  1.026226  0
H  H27  1  0.22865528  0.02396019  0.42569761  1  0  0.075056  0  0.935335  0  0  0.089069  0  1.002872  0  0  0.089814  0  1.001956  0  0  0.103464  0.088402  0  1.003708  0
H  H28  1  0.67886507  0.97611666  0.57440289  1  0  0.075479  0  0.935349  0  0  0.089579  0  1.003132  0  0  0.090361  0  1.002127  0  0  0.103687  0.088889  0  1.004016  0
H  H29  1  0.62785637  0.42063182  0.38099925  1  0  0.315409  0  0.925026  0  0  0.294677  0  0.995588  0  0  0.303166  0  0.988129  0  0  0.30868  0.288654  0  1.000888  0
H  H30  1  0.42987405  0.57946351  0.61893728  1  0  0.315236  0  0.92423  0  0  0.29471  0  0.994449  0  0  0.30311  0  0.987053  0  0  0.308416  0.288755  0  0.999705  0
C  C31  1  0.96266984  0.20329749  0.90250599  1  0  0.132851  0  3.735567  0  0  0.10028  0  3.989444  0  0  0.108011  0  4.007854  0  0  0.041806  0.095291  0  3.976891  0
C  C32  1  0.06828912  0.79651521  0.09741958  1  0  0.135157  0  3.733918  0  0  0.102789  0  3.988181  0  0  0.110524  0  4.006484  0  0  0.042653  0.097821  0  3.975678  0
C  C33  1  0.78265270  0.25804245  0.84413377  1  0  -0.158017  0  3.704382  0  0  -0.175466  0  3.95064  0  0  -0.183709  0  3.971885  0  0  -0.082711  -0.170219  0  3.936373  0
C  C34  1  0.88452909  0.74181335  0.15581175  1  0  -0.159512  0  3.706985  0  0  -0.177409  0  3.95346  0  0  -0.185591  0  3.974633  0  0  -0.083367  -0.172201  0  3.939214  0
C  C35  1  0.72807168  0.19864195  0.77947736  1  0  0.107922  0  3.739549  0  0  0.117737  0  3.970351  0  0  0.122856  0  3.99284  0  0  0.013832  0.11457  0  3.955068  0
C  C36  1  0.70597689  0.80130835  0.22042462  1  0  0.107305  0  3.74498  0  0  0.11806  0  3.975429  0  0  0.123244  0  3.99783  0  0  0.014303  0.114861  0  3.960169  0
C  C37  1  0.86009969  0.08393489  0.77887736  1  0  -0.152717  0  3.704767  0  0  -0.173906  0  3.956358  0  0  -0.181213  0  3.976038  0  0  -0.083681  -0.169403  0  3.943397  0
C  C38  1  0.72272866  0.91603913  0.22093499  1  0  -0.152208  0  3.707138  0  0  -0.173793  0  3.95845  0  0  -0.181109  0  3.978129  0  0  -0.083365  -0.1693  0  3.945498  0
C  C39  1  0.03701254  0.03490733  0.83929209  1  0  0.124647  0  3.736391  0  0  0.094659  0  3.988923  0  0  0.101974  0  4.006955  0  0  0.038702  0.089958  0  3.976731  0
C  C40  1  0.91109306  0.96500483  0.16049006  1  0  0.124688  0  3.740292  0  0  0.095211  0  3.99262  0  0  0.102531  0  4.010675  0  0  0.03854  0.090491  0  3.980426  0
C  C41  1  0.54229321  0.25343646  0.71472979  1  0  0.060149  0  3.774265  0  0  0.078115  0  4.008203  0  0  0.076512  0  4.032301  0  0  -0.003568  0.079012  0  3.991783  0
C  C42  1  0.51018618  0.74657954  0.28522986  1  0  0.060269  0  3.775383  0  0  0.076942  0  4.010835  0  0  0.075308  0  4.03494  0  0  -0.004457  0.077894  0  3.99435  0
C  C43  1  0.43157006  0.18786503  0.66660440  1  0  -0.102838  0  3.680437  0  0  -0.138955  0  3.929522  0  0  -0.139506  0  3.949657  0  0  -0.077237  -0.138301  0  3.915884  0
C  C44  1  0.28552580  0.81214871  0.33327386  1  0  -0.101088  0  3.678496  0  0  -0.136545  0  3.928205  0  0  -0.137134  0  3.948416  0  0  -0.076431  -0.1359  0  3.914486  0
C  C45  1  0.26154177  0.23964147  0.60388233  1  0  -0.026057  0  3.783117  0  0  -0.003682  0  4.024206  0  0  -0.009404  0  4.04672  0  0  -0.010951  -0.000118  0  4.009072  0
C  C46  1  0.10477222  0.76042311  0.39614523  1  0  -0.026718  0  3.785155  0  0  -0.004866  0  4.025379  0  0  -0.010592  0  4.047924  0  0  -0.011658  -0.001281  0  4.010226  0
C  C47  1  0.18670943  0.35842856  0.59161927  1  0  -0.165963  0  3.683606  0  0  -0.201339  0  3.936958  0  0  -0.203293  0  3.955257  0  0  -0.087109  -0.199901  0  3.924691  0
C  C48  1  0.13647963  0.64162796  0.40846645  1  0  -0.165902  0  3.685283  0  0  -0.200502  0  3.938065  0  0  -0.202377  0  3.956357  0  0  -0.086721  -0.199097  0  3.925774  0
C  C49  1  0.29870523  0.42476030  0.63847947  1  0  0.260416  0  3.782757  0  0  0.260309  0  4.0286  0  0  0.266912  0  4.049371  0  0  0.094857  0.255666  0  4.014604  0
C  C50  1  0.36154106  0.57532808  0.36153426  1  0  0.261307  0  3.785924  0  0  0.260644  0  4.032152  0  0  0.267269  0  4.05286  0  0  0.094881  0.255983  0  4.018206  0
C  C51  1  0.47727488  0.37265536  0.69857840  1  0  -0.179319  0  3.670538  0  0  -0.210995  0  3.919141  0  0  -0.213597  0  3.936832  0  0  -0.082445  -0.20903  0  3.907093  0
C  C52  1  0.54820650  0.62738431  0.30143997  1  0  -0.179633  0  3.672079  0  0  -0.21117  0  3.92133  0  0  -0.213773  0  3.939002  0  0  -0.082514  -0.209235  0  3.909306  0
C  C53  1  0.16159603  0.16415656  0.55187034  1  0  0.492884  0  3.817989  0  0  0.442312  0  4.108345  0  0  0.472364  0  4.10657  0  0  0.241599  0.422139  0  4.108857  0
C  C54  1  0.87759380  0.83595587  0.44821346  1  0  0.490129  0  3.821728  0  0  0.44125  0  4.109632  0  0  0.471224  0  4.107972  0  0  0.241339  0.42108  0  4.110122  0
C  C55  1  0.37266728  0.25841829  0.41033908  1  0  -0.004921  0  3.614885  0  0  -0.026325  0  3.858148  0  0  -0.025457  0  3.870285  0  0  0.017124  -0.026971  0  3.849882  0
C  C56  1  0.04163750  0.74165547  0.58974562  1  0  -0.004947  0  3.614773  0  0  -0.025871  0  3.857068  0  0  -0.025015  0  3.869228  0  0  0.017364  -0.026505  0  3.848804  0
C  C57  1  0.43864605  0.20425595  0.32341893  1  0  -0.139548  0  3.616455  0  0  -0.185683  0  3.871547  0  0  -0.186494  0  3.883442  0  0  -0.153583  -0.184933  0  3.863219  0
C  C58  1  0.96663723  0.79575916  0.67666487  1  0  -0.135213  0  3.611606  0  0  -0.182835  0  3.868079  0  0  -0.183572  0  3.879909  0  0  -0.152938  -0.182117  0  3.859781  0
C  C59  1  0.17429255  0.15993873  0.31946492  1  0  -0.123208  0  3.670693  0  0  -0.16497  0  3.932495  0  0  -0.166111  0  3.945011  0  0  -0.162447  -0.164024  0  3.923731  0
C  C60  1  0.65409648  0.84010392  0.68061740  1  0  -0.128294  0  3.671053  0  0  -0.171054  0  3.935079  0  0  -0.172153  0  3.947474  0  0  -0.164333  -0.170142  0  3.926409  0
C  C61  1  0.10445973  0.10983003  0.41283035  1  0  0.004308  0  3.62294  0  0  -0.060995  0  3.893921  0  0  -0.054999  0  3.902725  0  0  -0.068503  -0.064926  0  3.88783  0
C  C62  1  0.62746126  0.89026785  0.58727511  1  0  0.005573  0  3.623217  0  0  -0.060136  0  3.895033  0  0  -0.054121  0  3.903824  0  0  -0.068492  -0.064079  0  3.888971  0
C  C63  1  0.23616035  0.38422912  0.39422523  1  0  0.544412  0  3.807799  0  0  0.49528  0  4.109084  0  0  0.523146  0  4.108784  0  0  0.245649  0.476504  0  4.108629  0
C  C64  1  0.01481187  0.61584115  0.60590134  1  0  0.543266  0  3.809612  0  0  0.495726  0  4.108398  0  0  0.523607  0  4.108028  0  0  0.245756  0.476935  0  4.107985  0
N  N65  1  0.09007969  0.09356232  0.89992404  1  0  -0.341018  0  3.298535  0  0  -0.257875  0  3.566016  0  0  -0.27856  0  3.585814  0  0  -0.340934  -0.243891  0  3.552281  0
N  N66  1  0.08342886  0.90627285  0.09989392  1  0  -0.342444  0  3.299024  0  0  -0.25908  0  3.566065  0  0  -0.279759  0  3.58587  0  0  -0.341578  -0.245106  0  3.55233  0
N  N67  1  0.18830278  0.18806632  0.46396933  1  0  -0.231437  0  3.344537  0  0  -0.149909  0  3.580774  0  0  -0.17098  0  3.600127  0  0  -0.273392  -0.135592  0  3.56716  0
N  N68  1  0.84053649  0.81202980  0.53612385  1  0  -0.22979  0  3.345197  0  0  -0.148673  0  3.580586  0  0  -0.169744  0  3.59999  0  0  -0.273117  -0.134343  0  3.566957  0
N  N69  1  0.42103685  0.45501457  0.37849808  1  0  -0.461253  0  3.347486  0  0  -0.406276  0  3.586107  0  0  -0.428821  0  3.595094  0  0  -0.401127  -0.390782  0  3.579633  0
N  N70  1  0.25493617  0.54505941  0.62147031  1  0  -0.460379  0  3.346251  0  0  -0.405792  0  3.583496  0  0  -0.428282  0  3.592618  0  0  -0.400653  -0.390335  0  3.57693  0
Cl  Cl71  1  0.64862858  0.83897387  0.92666145  1  0  -0.606598  0  0.784361  0  0  -0.540525  0  1.01387  0  0  -0.559053  0  0.994911  0  0  -0.369703  -0.52723  0  1.026687  0
Cl  Cl72  1  0.41415997  0.16080495  0.07318943  1  0  -0.606946  0  0.784237  0  0  -0.540885  0  1.013584  0  0  -0.55942  0  0.994648  0  0  -0.369927  -0.527581  0  1.026384  0
O  O73  1  0.06006694  0.08057244  0.58762340  1  0  -0.541538  0  1.940732  0  0  -0.499568  0  2.174162  0  0  -0.520696  0  2.169866  0  0  -0.29266  -0.484722  0  2.17657  0
O  O74  1  0.72835116  0.91961059  0.41252580  1  0  -0.539506  0  1.941056  0  0  -0.498165  0  2.173527  0  0  -0.51926  0  2.169304  0  0  -0.291516  -0.483336  0  2.175926  0
O  O75  1  0.98203550  0.41630256  0.39300727  1  0  -0.562937  0  1.979341  0  0  -0.517959  0  2.20984  0  0  -0.538151  0  2.202735  0  0  -0.298494  -0.503945  0  2.214284  0
O  O76  1  0.79146825  0.58374182  0.60727678  1  0  -0.56302  0  1.980853  0  0  -0.519235  0  2.211093  0  0  -0.539404  0  2.203937  0  0  -0.298861  -0.50527  0  2.215618  0
