# generated using pymatgen
data_LiTbH8(C2O)8
_symmetry_space_group_name_H-M   'P 1'
_cell_length_a   6.72425832
_cell_length_b   9.80953239
_cell_length_c   14.04249630
_cell_angle_alpha   106.30193124
_cell_angle_beta   97.96854750
_cell_angle_gamma   106.71845313
_symmetry_Int_Tables_number   1
_chemical_formula_structural   LiTbH8(C2O)8
_chemical_formula_sum   'Li2 Tb2 H16 C32 O16'
_cell_volume   826.84636507
_cell_formula_units_Z   2
loop_
 _symmetry_equiv_pos_site_id
 _symmetry_equiv_pos_as_xyz
  1  'x, y, z'
loop_
 _atom_site_type_symbol
 _atom_site_label
 _atom_site_symmetry_multiplicity
 _atom_site_fract_x
 _atom_site_fract_y
 _atom_site_fract_z
 _atom_site_occupancy
 _atom_site_hle17_bader_spin_density
 _atom_site_hle17_ddec_charge
 _atom_site_hle17_ddec_spin_density
 _atom_site_hle17_ddec_sum_bond_order
 _atom_site_hle17_magmom
 _atom_site_hse06_10hf_bader_spin_density
 _atom_site_hse06_10hf_ddec_charge
 _atom_site_hse06_10hf_ddec_spin_density
 _atom_site_hse06_10hf_ddec_sum_bond_order
 _atom_site_hse06_10hf_magmom
 _atom_site_hse06_bader_spin_density
 _atom_site_hse06_ddec_charge
 _atom_site_hse06_ddec_spin_density
 _atom_site_hse06_ddec_sum_bond_order
 _atom_site_hse06_magmom
 _atom_site_pbe_bader_spin_density
 _atom_site_pbe_cm5_charge
 _atom_site_pbe_ddec_charge
 _atom_site_pbe_ddec_spin_density
 _atom_site_pbe_ddec_sum_bond_order
 _atom_site_pbe_magmom
Li  Li0  1  0.84081652  0.09022098  0.18112834  1  0  0.881425  0  0.378111  0  0  0.849229  0  0.469136  0  0  0.85851  0  0.453461  0  0  0.52433  0.842592  0  0.481048  0
Li  Li1  1  0.15918472  0.90977635  0.81887050  1  0  0.881428  0  0.378105  0  0  0.849241  0  0.469112  0  0  0.858521  0  0.453439  0  0  0.524327  0.842612  0  0.48102  0
Tb  Tb2  1  0.33307244  0.08257040  0.16543039  1  0  2.251793  0  1.70587  0  0  2.119773  0  2.171784  0  0  2.23232  0  2.005297  0  0  1.567619  2.082101  0  2.208662  0
Tb  Tb3  1  0.66692865  0.91743262  0.83456884  1  0  2.251781  0  1.705958  0  0  2.119675  0  2.172039  0  0  2.232312  0  2.005399  0  0  1.567615  2.08203  0  2.208874  0
H  H4  1  0.25688013  0.47281289  0.20632882  1  0  0.109772  0  0.934788  0  0  0.12094  0  0.991392  0  0  0.12429  0  0.989638  0  0  0.115217  0.118567  0  0.992654  0
H  H5  1  0.44985378  0.73327080  0.20618971  1  0  0.109728  0  0.935882  0  0  0.120662  0  0.992708  0  0  0.124003  0  0.990969  0  0  0.114443  0.118289  0  0.99397  0
H  H6  1  0.74311441  0.52718906  0.79366978  1  0  0.109773  0  0.934775  0  0  0.120944  0  0.991373  0  0  0.124293  0  0.98962  0  0  0.115213  0.118572  0  0.992637  0
H  H7  1  0.55014673  0.26673109  0.79380855  1  0  0.109764  0  0.935863  0  0  0.120693  0  0.9927  0  0  0.124034  0  0.990961  0  0  0.114455  0.118323  0  0.993965  0
H  H8  1  0.08268389  0.31059231  0.87781934  1  0  0.105382  0  0.93667  0  0  0.11665  0  0.992526  0  0  0.119768  0  0.991216  0  0  0.113767  0.114472  0  0.993459  0
H  H9  1  0.29462543  0.56644760  0.87772759  1  0  0.10503  0  0.934834  0  0  0.116541  0  0.990522  0  0  0.119659  0  0.989206  0  0  0.114098  0.114372  0  0.991451  0
H  H10  1  0.91731400  0.68940733  0.12217974  1  0  0.105413  0  0.936671  0  0  0.116681  0  0.992525  0  0  0.119799  0  0.991214  0  0  0.113772  0.114501  0  0.993455  0
H  H11  1  0.70536440  0.43355098  0.12226791  1  0  0.104951  0  0.934863  0  0  0.116492  0  0.990532  0  0  0.119603  0  0.989237  0  0  0.114072  0.114325  0  0.991454  0
H  H12  1  0.63920083  0.52212378  0.48697947  1  0  0.102161  0  0.967433  0  0  0.111478  0  1.028853  0  0  0.115176  0  1.025761  0  0  0.106402  0.108813  0  1.031039  0
H  H13  1  0.34838677  0.96557451  0.48749177  1  0  0.101697  0  0.967841  0  0  0.110754  0  1.0298  0  0  0.114382  0  1.026786  0  0  0.106033  0.108151  0  1.031922  0
H  H14  1  0.36081480  0.47787229  0.51302219  1  0  0.10213  0  0.96722  0  0  0.111431  0  1.028685  0  0  0.115127  0  1.02559  0  0  0.106401  0.108764  0  1.030871  0
H  H15  1  0.65160553  0.03442291  0.51251079  1  0  0.101652  0  0.967895  0  0  0.110765  0  1.029805  0  0  0.114393  0  1.026792  0  0  0.106041  0.108161  0  1.031926  0
H  H16  1  0.07520024  0.32457798  0.35475986  1  0  0.108996  0  0.952407  0  0  0.115015  0  1.019405  0  0  0.119286  0  1.016091  0  0  0.118553  0.111942  0  1.021992  0
H  H17  1  0.77965383  0.02934328  0.35444848  1  0  0.110143  0  0.950821  0  0  0.116323  0  1.01761  0  0  0.120571  0  1.014343  0  0  0.119084  0.113257  0  1.020175  0
H  H18  1  0.92481540  0.67541809  0.64524251  1  0  0.109048  0  0.952385  0  0  0.115052  0  1.019379  0  0  0.119321  0  1.016073  0  0  0.118607  0.11198  0  1.021968  0
H  H19  1  0.22033435  0.97065191  0.64555265  1  0  0.110136  0  0.950809  0  0  0.116354  0  1.017574  0  0  0.120573  0  1.014339  0  0  0.119092  0.113287  0  1.020148  0
C  C20  1  0.26320265  0.49526837  0.13482998  1  0  -0.062142  0  3.698542  0  0  -0.08627  0  3.949561  0  0  -0.087198  0  3.969335  0  0  -0.07121  -0.085431  0  3.935722  0
C  C21  1  0.37184192  0.63920515  0.13475791  1  0  -0.060676  0  3.69951  0  0  -0.084395  0  3.950286  0  0  -0.085305  0  3.970075  0  0  -0.06996  -0.083576  0  3.936416  0
C  C22  1  0.73679602  0.50473581  0.86516933  1  0  -0.062202  0  3.698585  0  0  -0.086302  0  3.949607  0  0  -0.087231  0  3.969381  0  0  -0.071213  -0.085467  0  3.935775  0
C  C23  1  0.62815468  0.36079791  0.86524033  1  0  -0.060769  0  3.69951  0  0  -0.084513  0  3.950307  0  0  -0.085424  0  3.970095  0  0  -0.070034  -0.083695  0  3.936443  0
C  C24  1  0.03474692  0.22301025  0.03958412  1  0  0.74507  0  3.826398  0  0  0.698134  0  4.115765  0  0  0.734834  0  4.105422  0  0  0.253136  0.673316  0  4.124897  0
C  C25  1  0.50453294  0.81600664  0.03929471  1  0  0.748163  0  3.823866  0  0  0.70144  0  4.112628  0  0  0.738064  0  4.102482  0  0  0.255814  0.676658  0  4.121656  0
C  C26  1  0.96525532  0.77699504  0.96041848  1  0  0.745104  0  3.826505  0  0  0.69819  0  4.115846  0  0  0.734887  0  4.105505  0  0  0.253112  0.673369  0  4.124984  0
C  C27  1  0.49545358  0.18399425  0.96070601  1  0  0.748342  0  3.823742  0  0  0.701569  0  4.112565  0  0  0.738189  0  4.102425  0  0  0.255934  0.676786  0  4.121592  0
C  C28  1  0.16645123  0.40325520  0.94913676  1  0  -0.061336  0  3.724813  0  0  -0.084373  0  3.975227  0  0  -0.085464  0  3.99622  0  0  -0.074672  -0.083476  0  3.960722  0
C  C29  1  0.28239278  0.54525187  0.94909262  1  0  -0.057529  0  3.722  0  0  -0.080521  0  3.972116  0  0  -0.081589  0  3.993084  0  0  -0.072799  -0.079659  0  3.957611  0
C  C30  1  0.83354871  0.59674555  0.05086124  1  0  -0.061487  0  3.724814  0  0  -0.08451  0  3.975242  0  0  -0.085602  0  3.996236  0  0  -0.074678  -0.083611  0  3.960729  0
C  C31  1  0.71760118  0.45474894  0.05090430  1  0  -0.05746  0  3.721918  0  0  -0.080488  0  3.972054  0  0  -0.081561  0  3.993024  0  0  -0.072836  -0.079622  0  3.957539  0
C  C32  1  0.15776686  0.37716891  0.04179597  1  0  -0.065407  0  3.739343  0  0  -0.045395  0  3.97105  0  0  -0.052608  0  3.993523  0  0  -0.006929  -0.04044  0  3.955292  0
C  C33  1  0.38394259  0.66410843  0.04167868  1  0  -0.069194  0  3.740567  0  0  -0.049366  0  3.972348  0  0  -0.056596  0  3.994892  0  0  -0.008976  -0.044351  0  3.956446  0
C  C34  1  0.84223121  0.62283414  0.95820023  1  0  -0.065168  0  3.739218  0  0  -0.045186  0  3.970902  0  0  -0.052396  0  3.993378  0  0  -0.006858  -0.04023  0  3.955142  0
C  C35  1  0.61604838  0.33589241  0.95831805  1  0  -0.069207  0  3.740408  0  0  -0.049345  0  3.972201  0  0  -0.05657  0  3.994744  0  0  -0.008943  -0.04433  0  3.9563  0
C  C36  1  0.83810955  0.41301323  0.41156833  1  0  -0.052898  0  3.742405  0  0  -0.029541  0  3.967751  0  0  -0.036443  0  3.990564  0  0  -0.006427  -0.024399  0  3.951577  0
C  C37  1  0.07386742  0.99845928  0.41160945  1  0  -0.052082  0  3.743567  0  0  -0.02869  0  3.968973  0  0  -0.035507  0  3.991654  0  0  -0.00604  -0.023595  0  3.952867  0
C  C38  1  0.16190252  0.58698173  0.58843217  1  0  -0.053028  0  3.742485  0  0  -0.029666  0  3.967813  0  0  -0.036569  0  3.990621  0  0  -0.006476  -0.024539  0  3.95166  0
C  C39  1  0.92612695  0.00153926  0.58839274  1  0  -0.052093  0  3.743465  0  0  -0.028693  0  3.968883  0  0  -0.035502  0  3.991551  0  0  -0.006042  -0.023603  0  3.952785  0
C  C40  1  0.66309527  0.31488367  0.31936701  1  0  0.670835  0  3.902859  0  0  0.629158  0  4.18775  0  0  0.661989  0  4.185783  0  0  0.208863  0.606218  0  4.193002  0
C  C41  1  0.15680190  0.00422458  0.31940967  1  0  0.669808  0  3.905597  0  0  0.628164  0  4.190494  0  0  0.660976  0  4.188549  0  0  0.20839  0.605227  0  4.195754  0
C  C42  1  0.33691871  0.68511810  0.68063495  1  0  0.671005  0  3.902732  0  0  0.629323  0  4.187598  0  0  0.662158  0  4.185625  0  0  0.208882  0.606388  0  4.192859  0
C  C43  1  0.84319660  0.99577619  0.68059465  1  0  0.669869  0  3.905708  0  0  0.628226  0  4.190584  0  0  0.661033  0  4.188651  0  0  0.208419  0.605293  0  4.19585  0
C  C44  1  0.79727707  0.51268536  0.49343517  1  0  -0.062351  0  3.717573  0  0  -0.085038  0  3.961222  0  0  -0.08596  0  3.981187  0  0  -0.075058  -0.084152  0  3.947083  0
C  C45  1  0.19651844  0.98117665  0.49368796  1  0  -0.058894  0  3.714662  0  0  -0.081301  0  3.958202  0  0  -0.082186  0  3.978214  0  0  -0.07265  -0.080457  0  3.944034  0
C  C46  1  0.20273950  0.48730956  0.50656703  1  0  -0.062215  0  3.717233  0  0  -0.084882  0  3.960879  0  0  -0.085802  0  3.980844  0  0  -0.075023  -0.08399  0  3.946741  0
C  C47  1  0.80347180  0.01881966  0.50631352  1  0  -0.058812  0  3.714535  0  0  -0.08128  0  3.958067  0  0  -0.082168  0  3.978088  0  0  -0.072638  -0.080431  0  3.943897  0
C  C48  1  0.04238755  0.40116035  0.41834324  1  0  -0.060832  0  3.708484  0  0  -0.084738  0  3.95894  0  0  -0.085749  0  3.978907  0  0  -0.069821  -0.084062  0  3.945455  0
C  C49  1  0.87605747  0.01669168  0.41817352  1  0  -0.065464  0  3.707958  0  0  -0.089709  0  3.95903  0  0  -0.090757  0  3.978976  0  0  -0.07264  -0.089011  0  3.945559  0
C  C50  1  0.95763072  0.59883796  0.58165974  1  0  -0.060861  0  3.708554  0  0  -0.084741  0  3.959007  0  0  -0.085752  0  3.978971  0  0  -0.069897  -0.084063  0  3.945532  0
C  C51  1  0.12393518  0.98330347  0.58182718  1  0  -0.065371  0  3.708073  0  0  -0.089668  0  3.959125  0  0  -0.090694  0  3.979079  0  0  -0.072589  -0.08897  0  3.945663  0
O  O52  1  0.06870742  0.18732116  0.12020688  1  0  -0.815854  0  2.041921  0  0  -0.766407  0  2.3023  0  0  -0.797639  0  2.284385  0  0  -0.438645  -0.750713  0  2.313766  0
O  O53  1  0.55201281  0.93233382  0.12005575  1  0  -0.816835  0  2.041807  0  0  -0.767613  0  2.302459  0  0  -0.798757  0  2.284462  0  0  -0.440892  -0.751991  0  2.314028  0
O  O54  1  0.93129722  0.81268296  0.87979280  1  0  -0.815966  0  2.041909  0  0  -0.766511  0  2.302279  0  0  -0.797756  0  2.284358  0  0  -0.438682  -0.750827  0  2.313749  0
O  O55  1  0.44797012  0.06766596  0.87994026  1  0  -0.816959  0  2.041617  0  0  -0.767708  0  2.302293  0  0  -0.798865  0  2.284294  0  0  -0.440985  -0.752092  0  2.313867  0
O  O56  1  0.89916554  0.13286381  0.95804256  1  0  -0.745026  0  2.090073  0  0  -0.699134  0  2.361988  0  0  -0.734292  0  2.345647  0  0  -0.389844  -0.681061  0  2.371164  0
O  O57  1  0.55749681  0.82455734  0.95753842  1  0  -0.745543  0  2.087184  0  0  -0.699558  0  2.35856  0  0  -0.734755  0  2.342367  0  0  -0.389786  -0.681417  0  2.367566  0
O  O58  1  0.10082509  0.86713931  0.04195673  1  0  -0.745058  0  2.090264  0  0  -0.699168  0  2.362129  0  0  -0.734309  0  2.345791  0  0  -0.389801  -0.681092  0  2.37131  0
O  O59  1  0.44249565  0.17544348  0.04245698  1  0  -0.745524  0  2.087277  0  0  -0.699526  0  2.358637  0  0  -0.734701  0  2.342445  0  0  -0.389759  -0.681412  0  2.367721  0
O  O60  1  0.70388773  0.21908147  0.24764535  1  0  -0.804973  0  2.049366  0  0  -0.760201  0  2.303375  0  0  -0.789678  0  2.289915  0  0  -0.466883  -0.743945  0  2.312258  0
O  O61  1  0.04407466  0.02766855  0.24745589  1  0  -0.804429  0  2.050219  0  0  -0.759188  0  2.303239  0  0  -0.788725  0  2.28989  0  0  -0.464577  -0.742918  0  2.312054  0
O  O62  1  0.29612174  0.78092033  0.75235205  1  0  -0.804997  0  2.049371  0  0  -0.760231  0  2.303424  0  0  -0.789719  0  2.289954  0  0  -0.46685  -0.743975  0  2.312296  0
O  O63  1  0.95592194  0.97233451  0.75254307  1  0  -0.804377  0  2.050472  0  0  -0.759118  0  2.303468  0  0  -0.788663  0  2.290124  0  0  -0.464537  -0.742843  0  2.312268  0
O  O64  1  0.47429292  0.31913591  0.31108165  1  0  -0.679401  0  1.909439  0  0  -0.63662  0  2.137597  0  0  -0.667533  0  2.127836  0  0  -0.363427  -0.619876  0  2.143225  0
O  O65  1  0.33761525  0.99207921  0.31129462  1  0  -0.679216  0  1.909722  0  0  -0.636276  0  2.137627  0  0  -0.667182  0  2.127853  0  0  -0.364567  -0.619514  0  2.143245  0
O  O66  1  0.52571938  0.68086245  0.68892167  1  0  -0.679471  0  1.909377  0  0  -0.636694  0  2.13757  0  0  -0.667618  0  2.127802  0  0  -0.363434  -0.619952  0  2.143199  0
O  O67  1  0.66238757  0.00792720  0.68870895  1  0  -0.679293  0  1.909682  0  0  -0.636331  0  2.137572  0  0  -0.667245  0  2.127793  0  0  -0.364615  -0.619577  0  2.143204  0
