# generated using pymatgen
data_ZnH9C12SNO4
_symmetry_space_group_name_H-M   'P 1'
_cell_length_a   8.43865860
_cell_length_b   9.66385892
_cell_length_c   15.36683023
_cell_angle_alpha   89.99992580
_cell_angle_beta   90.00010558
_cell_angle_gamma   96.01239397
_symmetry_Int_Tables_number   1
_chemical_formula_structural   ZnH9C12SNO4
_chemical_formula_sum   'Zn4 H36 C48 S4 N4 O16'
_cell_volume   1246.27176673
_cell_formula_units_Z   4
loop_
 _symmetry_equiv_pos_site_id
 _symmetry_equiv_pos_as_xyz
  1  'x, y, z'
loop_
 _atom_site_type_symbol
 _atom_site_label
 _atom_site_symmetry_multiplicity
 _atom_site_fract_x
 _atom_site_fract_y
 _atom_site_fract_z
 _atom_site_occupancy
 _atom_site_hle17_bader_spin_density
 _atom_site_hle17_ddec_charge
 _atom_site_hle17_ddec_spin_density
 _atom_site_hle17_ddec_sum_bond_order
 _atom_site_hle17_magmom
 _atom_site_hse06_10hf_bader_spin_density
 _atom_site_hse06_10hf_ddec_charge
 _atom_site_hse06_10hf_ddec_spin_density
 _atom_site_hse06_10hf_ddec_sum_bond_order
 _atom_site_hse06_10hf_magmom
 _atom_site_hse06_bader_spin_density
 _atom_site_hse06_ddec_charge
 _atom_site_hse06_ddec_spin_density
 _atom_site_hse06_ddec_sum_bond_order
 _atom_site_hse06_magmom
 _atom_site_pbe_bader_spin_density
 _atom_site_pbe_cm5_charge
 _atom_site_pbe_ddec_charge
 _atom_site_pbe_ddec_spin_density
 _atom_site_pbe_ddec_sum_bond_order
 _atom_site_pbe_magmom
Zn  Zn0  1  0.03138240  0.57918553  0.07800611  1  0  1.039461  0  1.872538  0  0  0.870889  0  2.341817  0  0  0.923627  0  2.275836  0  0  0.667999  0.833823  0  2.387179  0
Zn  Zn1  1  0.46861542  0.42081245  0.57800411  1  0  1.039522  0  1.872533  0  0  0.870965  0  2.341818  0  0  0.923702  0  2.275833  0  0  0.668127  0.834091  0  2.38713  0
Zn  Zn2  1  0.96861603  0.42081401  0.92199658  1  0  1.039511  0  1.872552  0  0  0.870941  0  2.341853  0  0  0.923682  0  2.27586  0  0  0.668171  0.834111  0  2.38718  0
Zn  Zn3  1  0.53138408  0.57918605  0.42199337  1  0  1.039522  0  1.872548  0  0  0.870967  0  2.341836  0  0  0.923704  0  2.275854  0  0  0.667979  0.833825  0  2.387193  0
H  H4  1  0.76159008  0.73059331  0.76042301  1  0  0.105555  0  0.94364  0  0  0.116932  0  1.001288  0  0  0.120327  0  0.998869  0  0  0.106791  0.114373  0  1.003221  0
H  H5  1  0.73841308  0.26940706  0.26041962  1  0  0.105561  0  0.943596  0  0  0.116914  0  1.001275  0  0  0.12031  0  0.998857  0  0  0.106803  0.114348  0  1.003214  0
H  H6  1  0.23841653  0.26940523  0.23957902  1  0  0.105559  0  0.943595  0  0  0.116939  0  1.001238  0  0  0.120327  0  0.998831  0  0  0.10681  0.114378  0  1.003173  0
H  H7  1  0.26158902  0.73059354  0.73957786  1  0  0.105531  0  0.943662  0  0  0.116911  0  1.001306  0  0  0.120306  0  0.998885  0  0  0.106778  0.114344  0  1.003245  0
H  H8  1  0.60721807  0.91573832  0.70292044  1  0  0.095086  0  0.952708  0  0  0.107529  0  1.009707  0  0  0.110013  0  1.009642  0  0  0.101253  0.105692  0  1.009898  0
H  H9  1  0.89278835  0.08426112  0.20292060  1  0  0.095135  0  0.952612  0  0  0.107496  0  1.009704  0  0  0.10998  0  1.009639  0  0  0.101227  0.105652  0  1.009902  0
H  H10  1  0.39278973  0.08426023  0.29707965  1  0  0.095145  0  0.952644  0  0  0.107506  0  1.009727  0  0  0.109989  0  1.009663  0  0  0.101218  0.105665  0  1.00992  0
H  H11  1  0.10721731  0.91573949  0.79707883  1  0  0.095113  0  0.952668  0  0  0.107539  0  1.009691  0  0  0.110023  0  1.009626  0  0  0.101254  0.105696  0  1.009889  0
H  H12  1  0.67351124  0.13651952  0.94662101  1  0  0.107098  0  0.973135  0  0  0.115807  0  1.036468  0  0  0.119562  0  1.034242  0  0  0.097927  0.112675  0  1.038778  0
H  H13  1  0.82648800  0.86348257  0.44662113  1  0  0.107074  0  0.973175  0  0  0.115802  0  1.03647  0  0  0.119564  0  1.034243  0  0  0.097927  0.112667  0  1.038783  0
H  H14  1  0.32648493  0.86348105  0.05337907  1  0  0.107085  0  0.973186  0  0  0.115823  0  1.03647  0  0  0.119581  0  1.034247  0  0  0.097949  0.112686  0  1.038786  0
H  H15  1  0.17351411  0.13651803  0.55337831  1  0  0.107088  0  0.97318  0  0  0.115813  0  1.036476  0  0  0.119576  0  1.034248  0  0  0.097939  0.11268  0  1.038785  0
H  H16  1  0.82262321  0.94729003  0.00401973  1  0  0.096443  0  0.951207  0  0  0.105714  0  1.014244  0  0  0.109243  0  1.01153  0  0  0.100899  0.103121  0  1.016283  0
H  H17  1  0.67737333  0.05271180  0.50401838  1  0  0.096458  0  0.95125  0  0  0.105744  0  1.014264  0  0  0.109272  0  1.011551  0  0  0.100893  0.103143  0  1.016311  0
H  H18  1  0.17737308  0.05271158  0.99598166  1  0  0.096451  0  0.951248  0  0  0.10573  0  1.014273  0  0  0.109257  0  1.01156  0  0  0.100897  0.103126  0  1.016318  0
H  H19  1  0.32262392  0.94728774  0.49597975  1  0  0.096435  0  0.951209  0  0  0.105712  0  1.014239  0  0  0.10924  0  1.011526  0  0  0.100903  0.103119  0  1.01628  0
H  H20  1  0.58129043  0.14384465  0.64519185  1  0  0.105068  0  0.954879  0  0  0.110916  0  1.025329  0  0  0.11378  0  1.022998  0  0  0.119347  0.108909  0  1.026799  0
H  H21  1  0.91870750  0.85615485  0.14519271  1  0  0.105058  0  0.95492  0  0  0.110906  0  1.025366  0  0  0.113764  0  1.023055  0  0  0.119333  0.108892  0  1.026835  0
H  H22  1  0.41871025  0.85615386  0.35480693  1  0  0.105097  0  0.95489  0  0  0.110945  0  1.025333  0  0  0.113809  0  1.023002  0  0  0.119347  0.108934  0  1.0268  0
H  H23  1  0.08128986  0.14384572  0.85480802  1  0  0.105099  0  0.954858  0  0  0.110948  0  1.025302  0  0  0.113812  0  1.022972  0  0  0.119362  0.108931  0  1.026785  0
H  H24  1  0.32810510  0.44107210  0.76926208  1  0  0.137257  0  0.948306  0  0  0.143417  0  1.010501  0  0  0.146939  0  1.006453  0  0  0.131945  0.140782  0  1.013355  0
H  H25  1  0.17189379  0.55892971  0.26926099  1  0  0.137217  0  0.948301  0  0  0.14338  0  1.010502  0  0  0.146901  0  1.006449  0  0  0.131955  0.140741  0  1.013361  0
H  H26  1  0.67189452  0.55892745  0.23073930  1  0  0.13726  0  0.948256  0  0  0.143423  0  1.010454  0  0  0.146943  0  1.0064  0  0  0.131964  0.140789  0  1.013309  0
H  H27  1  0.82810369  0.44107191  0.73073715  1  0  0.137268  0  0.948319  0  0  0.143421  0  1.010516  0  0  0.146947  0  1.006464  0  0  0.131947  0.140781  0  1.013375  0
H  H28  1  0.47726212  0.75689292  0.93033884  1  0  0.129806  0  0.962003  0  0  0.148691  0  1.02259  0  0  0.150283  0  1.023772  0  0  0.092146  0.147496  0  1.021931  0
H  H29  1  0.02274203  0.24310862  0.43033850  1  0  0.12979  0  0.962072  0  0  0.148697  0  1.02263  0  0  0.15029  0  1.023813  0  0  0.092162  0.147498  0  1.02198  0
H  H30  1  0.52274129  0.24310872  0.06966125  1  0  0.129793  0  0.962034  0  0  0.148702  0  1.022591  0  0  0.150295  0  1.023773  0  0  0.092154  0.147501  0  1.021932  0
H  H31  1  0.97726245  0.75689199  0.56966028  1  0  0.129785  0  0.962016  0  0  0.148674  0  1.022598  0  0  0.150267  0  1.023781  0  0  0.092147  0.147473  0  1.021946  0
H  H32  1  0.45762345  0.64085581  0.83919906  1  0  0.132285  0  0.953647  0  0  0.150784  0  1.01542  0  0  0.152802  0  1.014951  0  0  0.09434  0.149215  0  1.015948  0
H  H33  1  0.04237057  0.35914273  0.33919670  1  0  0.132293  0  0.953603  0  0  0.150794  0  1.015374  0  0  0.152811  0  1.014907  0  0  0.094329  0.149225  0  1.015901  0
H  H34  1  0.54237012  0.35914267  0.16080362  1  0  0.13231  0  0.953549  0  0  0.150812  0  1.015314  0  0  0.15283  0  1.014846  0  0  0.094344  0.149247  0  1.01583  0
H  H35  1  0.95762419  0.64085575  0.66080078  1  0  0.132321  0  0.953629  0  0  0.150823  0  1.015391  0  0  0.152841  0  1.014923  0  0  0.094345  0.149244  0  1.015929  0
H  H36  1  0.54068672  0.58838101  0.93825664  1  0  0.14279  0  0.941191  0  0  0.161389  0  1.00268  0  0  0.163425  0  1.002872  0  0  0.097859  0.159911  0  1.002489  0
H  H37  1  0.95931843  0.41162112  0.43825596  1  0  0.142825  0  0.94116  0  0  0.1614  0  1.002687  0  0  0.163447  0  1.002867  0  0  0.097867  0.159921  0  1.002495  0
H  H38  1  0.45931681  0.41162168  0.06174409  1  0  0.142826  0  0.941127  0  0  0.161391  0  1.002668  0  0  0.163431  0  1.002857  0  0  0.097873  0.159913  0  1.00248  0
H  H39  1  0.04068736  0.58838053  0.56174283  1  0  0.142809  0  0.941122  0  0  0.161383  0  1.002646  0  0  0.163419  0  1.002838  0  0  0.097851  0.159903  0  1.002457  0
C  C40  1  0.88222523  0.70965526  0.92334022  1  0  0.652598  0  3.90327  0  0  0.602533  0  4.192055  0  0  0.63824  0  4.18469  0  0  0.209641  0.578441  0  4.196211  0
C  C41  1  0.61776778  0.29034476  0.42333148  1  0  0.65252  0  3.903273  0  0  0.602528  0  4.191989  0  0  0.638235  0  4.184624  0  0  0.209585  0.578441  0  4.196149  0
C  C42  1  0.11776976  0.29034530  0.07666767  1  0  0.652392  0  3.903408  0  0  0.602372  0  4.192129  0  0  0.63808  0  4.184764  0  0  0.209518  0.578286  0  4.196283  0
C  C43  1  0.38222698  0.70965372  0.57666340  1  0  0.652459  0  3.903405  0  0  0.602404  0  4.192222  0  0  0.638111  0  4.18486  0  0  0.209567  0.578315  0  4.196377  0
C  C44  1  0.80157339  0.82718560  0.88594986  1  0  -0.078916  0  3.765266  0  0  -0.054069  0  3.996989  0  0  -0.063394  0  4.020861  0  0  -0.020819  -0.048437  0  3.981291  0
C  C45  1  0.69842447  0.17281660  0.38594715  1  0  -0.078821  0  3.76534  0  0  -0.054007  0  3.997087  0  0  -0.063333  0  4.020958  0  0  -0.020777  -0.048383  0  3.981401  0
C  C46  1  0.19842646  0.17281603  0.11405218  1  0  -0.078796  0  3.765388  0  0  -0.053941  0  3.997078  0  0  -0.063267  0  4.020948  0  0  -0.020776  -0.048317  0  3.981386  0
C  C47  1  0.30157396  0.82718294  0.61404968  1  0  -0.078835  0  3.765235  0  0  -0.054063  0  3.99708  0  0  -0.063391  0  4.020952  0  0  -0.020812  -0.04843  0  3.981382  0
C  C48  1  0.74296601  0.82055227  0.80043577  1  0  -0.05718  0  3.733395  0  0  -0.080776  0  3.981277  0  0  -0.07971  0  4.001082  0  0  -0.08  -0.081276  0  3.967957  0
C  C49  1  0.75703728  0.17944803  0.30043312  1  0  -0.057168  0  3.73344  0  0  -0.080739  0  3.981313  0  0  -0.079673  0  4.001116  0  0  -0.080023  -0.081244  0  3.968009  0
C  C50  1  0.25703954  0.17944731  0.19956626  1  0  -0.057274  0  3.733409  0  0  -0.080873  0  3.981272  0  0  -0.079807  0  4.001075  0  0  -0.080076  -0.081373  0  3.967959  0
C  C51  1  0.24296459  0.82055049  0.69956436  1  0  -0.057165  0  3.733335  0  0  -0.080737  0  3.981236  0  0  -0.079671  0  4.001041  0  0  -0.079985  -0.081243  0  3.96793  0
C  C52  1  0.65655110  0.92431420  0.76847854  1  0  -0.111176  0  3.718034  0  0  -0.129667  0  3.966677  0  0  -0.134344  0  3.988803  0  0  -0.087666  -0.126503  0  3.951551  0
C  C53  1  0.84345196  0.07568511  0.26847801  1  0  -0.111273  0  3.718063  0  0  -0.129703  0  3.966712  0  0  -0.134379  0  3.988837  0  0  -0.087711  -0.126546  0  3.951594  0
C  C54  1  0.34345314  0.07568433  0.23152219  1  0  -0.111222  0  3.717995  0  0  -0.129664  0  3.966626  0  0  -0.13434  0  3.98875  0  0  -0.087665  -0.126505  0  3.951495  0
C  C55  1  0.15655239  0.92431446  0.73152077  1  0  -0.111214  0  3.717936  0  0  -0.129689  0  3.966595  0  0  -0.134365  0  3.98872  0  0  -0.087701  -0.126531  0  3.951486  0
C  C56  1  0.62723974  0.03804196  0.82131737  1  0  0.074975  0  3.82678  0  0  0.086482  0  4.06339  0  0  0.088617  0  4.087996  0  0  -0.008827  0.085186  0  4.04652  0
C  C57  1  0.87275994  0.96195724  0.32131745  1  0  0.074957  0  3.826699  0  0  0.086486  0  4.06326  0  0  0.088621  0  4.087866  0  0  -0.008807  0.085189  0  4.046383  0
C  C58  1  0.37276095  0.96195655  0.17868141  1  0  0.074886  0  3.826721  0  0  0.086461  0  4.063224  0  0  0.088598  0  4.087828  0  0  -0.008855  0.085164  0  4.046343  0
C  C59  1  0.12724217  0.03804336  0.67868263  1  0  0.074932  0  3.826745  0  0  0.086416  0  4.06337  0  0  0.088552  0  4.087975  0  0  -0.00884  0.085121  0  4.046505  0
C  C60  1  0.68829612  0.04546133  0.90661736  1  0  -0.119241  0  3.717488  0  0  -0.138513  0  3.968318  0  0  -0.142865  0  3.988338  0  0  -0.094427  -0.135657  0  3.955219  0
C  C61  1  0.81170311  0.95454187  0.40661739  1  0  -0.119136  0  3.717495  0  0  -0.138413  0  3.968292  0  0  -0.142773  0  3.98832  0  0  -0.094369  -0.135557  0  3.95519  0
C  C62  1  0.31170136  0.95454028  0.09338337  1  0  -0.119116  0  3.717548  0  0  -0.138416  0  3.968339  0  0  -0.142772  0  3.988358  0  0  -0.094361  -0.135563  0  3.955244  0
C  C63  1  0.18829781  0.04545872  0.59338335  1  0  -0.119179  0  3.717494  0  0  -0.13844  0  3.968293  0  0  -0.1428  0  3.988319  0  0  -0.094375  -0.13558  0  3.955189  0
C  C64  1  0.77464157  0.94141710  0.93817462  1  0  -0.062474  0  3.750293  0  0  -0.087617  0  4.001782  0  0  -0.086379  0  4.021266  0  0  -0.085913  -0.088164  0  3.988669  0
C  C65  1  0.72535777  0.05858605  0.43817268  1  0  -0.062623  0  3.750479  0  0  -0.087785  0  4.002005  0  0  -0.086547  0  4.021493  0  0  -0.086001  -0.088339  0  3.98891  0
C  C66  1  0.22535722  0.05858556  0.06182741  1  0  -0.062548  0  3.750443  0  0  -0.087718  0  4.001952  0  0  -0.086479  0  4.021438  0  0  -0.085977  -0.088277  0  3.988858  0
C  C67  1  0.27464197  0.94141454  0.56182545  1  0  -0.062526  0  3.750206  0  0  -0.08766  0  4.001728  0  0  -0.086421  0  4.021216  0  0  -0.085956  -0.088209  0  3.988618  0
C  C68  1  0.54096454  0.14915384  0.78670377  1  0  -0.075229  0  3.760716  0  0  -0.061372  0  4.022624  0  0  -0.064711  0  4.047533  0  0  -0.00857  -0.059352  0  4.005684  0
C  C69  1  0.95904120  0.85084753  0.28670468  1  0  -0.075258  0  3.760691  0  0  -0.061384  0  4.022549  0  0  -0.064722  0  4.047458  0  0  -0.008585  -0.059366  0  4.005617  0
C  C70  1  0.45904113  0.85084677  0.21329501  1  0  -0.075211  0  3.760609  0  0  -0.061376  0  4.022496  0  0  -0.064715  0  4.047405  0  0  -0.008604  -0.059362  0  4.005563  0
C  C71  1  0.04096091  0.14915307  0.71329475  1  0  -0.075233  0  3.760703  0  0  -0.061355  0  4.02259  0  0  -0.064695  0  4.047499  0  0  -0.008586  -0.059334  0  4.005652  0
C  C72  1  0.52980298  0.19064419  0.70132570  1  0  0.023328  0  3.720785  0  0  -0.020632  0  3.991045  0  0  -0.017502  0  4.011979  0  0  0.015327  -0.021759  0  3.975907  0
C  C73  1  0.97019643  0.80935626  0.20132600  1  0  0.023407  0  3.720952  0  0  -0.020558  0  3.991172  0  0  -0.01743  0  4.012103  0  0  0.015374  -0.021692  0  3.976048  0
C  C74  1  0.47019794  0.80935640  0.29867374  1  0  0.023325  0  3.720784  0  0  -0.020627  0  3.991016  0  0  -0.017498  0  4.011952  0  0  0.015381  -0.021757  0  3.975869  0
C  C75  1  0.02980224  0.19064536  0.79867408  1  0  0.023277  0  3.72066  0  0  -0.020689  0  3.990914  0  0  -0.01756  0  4.011849  0  0  0.015318  -0.021825  0  3.975796  0
C  C76  1  0.39569598  0.35183889  0.76340148  1  0  0.041522  0  3.60137  0  0  0.000348  0  3.883189  0  0  0.013203  0  3.892397  0  0  0.055696  -0.007347  0  3.876376  0
C  C77  1  0.10430159  0.64816188  0.26340219  1  0  0.041666  0  3.60159  0  0  0.000501  0  3.883355  0  0  0.013362  0  3.89256  0  0  0.055757  -0.007198  0  3.876537  0
C  C78  1  0.60430364  0.64816066  0.23659926  1  0  0.041558  0  3.601447  0  0  0.00038  0  3.883257  0  0  0.01324  0  3.892459  0  0  0.055707  -0.007319  0  3.876443  0
C  C79  1  0.89569720  0.35184078  0.73659659  1  0  0.041603  0  3.601551  0  0  0.00045  0  3.883317  0  0  0.013302  0  3.892529  0  0  0.055745  -0.007246  0  3.876504  0
C  C80  1  0.28712781  0.59120117  0.94310852  1  0  0.754408  0  3.827537  0  0  0.713539  0  4.116854  0  0  0.748441  0  4.108848  0  0  0.209737  0.689993  0  4.121203  0
C  C81  1  0.21287282  0.40880033  0.44310434  1  0  0.754234  0  3.827661  0  0  0.713357  0  4.116987  0  0  0.748256  0  4.108989  0  0  0.209607  0.689805  0  4.121339  0
C  C82  1  0.71287204  0.40880045  0.05689677  1  0  0.754226  0  3.827611  0  0  0.713375  0  4.116904  0  0  0.748274  0  4.108905  0  0  0.209646  0.689837  0  4.121245  0
C  C83  1  0.78712941  0.59120131  0.55689119  1  0  0.75444  0  3.827512  0  0  0.713578  0  4.116817  0  0  0.74848  0  4.108813  0  0  0.209758  0.690022  0  4.121174  0
C  C84  1  0.44944467  0.64839616  0.91008420  1  0  -0.46372  0  3.668148  0  0  -0.541658  0  3.90413  0  0  -0.549365  0  3.908494  0  0  -0.251936  -0.536326  0  3.900949  0
C  C85  1  0.05055704  0.35160541  0.41008185  1  0  -0.463707  0  3.668215  0  0  -0.541645  0  3.904201  0  0  -0.549362  0  3.908558  0  0  -0.251937  -0.536317  0  3.901032  0
C  C86  1  0.55055756  0.35160548  0.08991783  1  0  -0.463725  0  3.66812  0  0  -0.541657  0  3.904093  0  0  -0.549367  0  3.908456  0  0  -0.251963  -0.536333  0  3.900908  0
C  C87  1  0.94944376  0.64839414  0.58991563  1  0  -0.463761  0  3.668144  0  0  -0.541681  0  3.904123  0  0  -0.549389  0  3.908488  0  0  -0.251964  -0.536353  0  3.900963  0
S  S88  1  0.44299411  0.25927580  0.85214398  1  0  0.200836  0  2.560492  0  0  0.208705  0  2.884802  0  0  0.206293  0  2.890591  0  0  0.153563  0.209584  0  2.881126  0
S  S89  1  0.05700469  0.74072273  0.35214457  1  0  0.200835  0  2.560506  0  0  0.208682  0  2.884815  0  0  0.20627  0  2.890604  0  0  0.153553  0.209542  0  2.881146  0
S  S90  1  0.55700539  0.74072270  0.14785611  1  0  0.200851  0  2.560469  0  0  0.208713  0  2.884794  0  0  0.206302  0  2.890583  0  0  0.153571  0.209566  0  2.881137  0
S  S91  1  0.94299611  0.25927682  0.64785486  1  0  0.20079  0  2.560519  0  0  0.208637  0  2.884825  0  0  0.206224  0  2.890616  0  0  0.153532  0.209511  0  2.881142  0
N  N92  1  0.44977989  0.30547666  0.68927758  1  0  -0.293162  0  3.313661  0  0  -0.215071  0  3.598392  0  0  -0.234737  0  3.613403  0  0  -0.341322  -0.201908  0  3.587405  0
N  N93  1  0.05022112  0.69452530  0.18927951  1  0  -0.293269  0  3.314066  0  0  -0.215166  0  3.598784  0  0  -0.234834  0  3.613795  0  0  -0.341429  -0.201991  0  3.587789  0
N  N94  1  0.55022103  0.69452393  0.31072185  1  0  -0.29323  0  3.31383  0  0  -0.215131  0  3.598552  0  0  -0.234797  0  3.613561  0  0  -0.341382  -0.201925  0  3.587524  0
N  N95  1  0.94977778  0.30547840  0.81072058  1  0  -0.293164  0  3.313725  0  0  -0.215056  0  3.598405  0  0  -0.23472  0  3.613417  0  0  -0.341376  -0.201918  0  3.587442  0
O  O96  1  0.93389970  0.72452409  0.00109930  1  0  -0.638587  0  2.081207  0  0  -0.573929  0  2.344987  0  0  -0.602914  0  2.332066  0  0  -0.317406  -0.553709  0  2.353011  0
O  O97  1  0.56609303  0.27547565  0.50109441  1  0  -0.638625  0  2.081113  0  0  -0.574006  0  2.344885  0  0  -0.602994  0  2.33196  0  0  -0.317375  -0.553813  0  2.352909  0
O  O98  1  0.06609410  0.27547647  0.99890534  1  0  -0.638535  0  2.081122  0  0  -0.573894  0  2.344875  0  0  -0.602884  0  2.331953  0  0  -0.317335  -0.553706  0  2.352903  0
O  O99  1  0.43390220  0.72451660  0.49890242  1  0  -0.63854  0  2.081113  0  0  -0.573889  0  2.344904  0  0  -0.602875  0  2.331982  0  0  -0.317397  -0.553666  0  2.352929  0
O  O100  1  0.89005882  0.60279427  0.87552104  1  0  -0.625703  0  2.050666  0  0  -0.560763  0  2.306961  0  0  -0.589589  0  2.294129  0  0  -0.315942  -0.540759  0  2.315175  0
O  O101  1  0.60993367  0.39720271  0.37551285  1  0  -0.625599  0  2.050635  0  0  -0.560688  0  2.306902  0  0  -0.589508  0  2.294066  0  0  -0.315891  -0.54065  0  2.315101  0
O  O102  1  0.10993439  0.39720108  0.12448686  1  0  -0.625566  0  2.050695  0  0  -0.560651  0  2.306965  0  0  -0.589471  0  2.294126  0  0  -0.315871  -0.540625  0  2.315178  0
O  O103  1  0.39006227  0.60279577  0.62448268  1  0  -0.625652  0  2.050721  0  0  -0.560704  0  2.307012  0  0  -0.589525  0  2.294176  0  0  -0.31591  -0.540705  0  2.315226  0
O  O104  1  0.24810041  0.62970198  0.01879685  1  0  -0.659114  0  2.073712  0  0  -0.593113  0  2.337252  0  0  -0.622906  0  2.324742  0  0  -0.321722  -0.572256  0  2.345162  0
O  O105  1  0.25190445  0.37029718  0.51879207  1  0  -0.659063  0  2.073552  0  0  -0.593042  0  2.337054  0  0  -0.622832  0  2.324544  0  0  -0.321704  -0.572227  0  2.344976  0
O  O106  1  0.75190264  0.37029654  0.98120844  1  0  -0.65907  0  2.07347  0  0  -0.59307  0  2.336982  0  0  -0.622858  0  2.324467  0  0  -0.321717  -0.572256  0  2.344907  0
O  O107  1  0.74810086  0.62970031  0.48120216  1  0  -0.659123  0  2.0737  0  0  -0.593137  0  2.337259  0  0  -0.62293  0  2.32475  0  0  -0.321751  -0.572278  0  2.345166  0
O  O108  1  0.20146516  0.50759739  0.89403984  1  0  -0.654051  0  2.041739  0  0  -0.586554  0  2.295681  0  0  -0.616441  0  2.283996  0  0  -0.319921  -0.565828  0  2.302968  0
O  O109  1  0.29853306  0.49240523  0.39403567  1  0  -0.653982  0  2.041969  0  0  -0.586477  0  2.295884  0  0  -0.616363  0  2.284201  0  0  -0.31985  -0.565723  0  2.30316  0
O  O110  1  0.79853244  0.49240527  0.10596415  1  0  -0.653961  0  2.041988  0  0  -0.586465  0  2.29589  0  0  -0.61635  0  2.284207  0  0  -0.31984  -0.565695  0  2.303157  0
O  O111  1  0.70146584  0.50759847  0.60595986  1  0  -0.654085  0  2.041727  0  0  -0.586582  0  2.295654  0  0  -0.616467  0  2.28397  0  0  -0.319931  -0.565868  0  2.302948  0
