# generated using pymatgen
data_CuH15C17NO6
_symmetry_space_group_name_H-M   'P 1'
_cell_length_a   15.36836407
_cell_length_b   15.36833314
_cell_length_c   20.64781291
_cell_angle_alpha   86.00056933
_cell_angle_beta   86.00047307
_cell_angle_gamma   63.69288014
_symmetry_Int_Tables_number   1
_chemical_formula_structural   CuH15C17NO6
_chemical_formula_sum   'Cu8 H120 C136 N8 O48'
_cell_volume   4356.89028493
_cell_formula_units_Z   8
loop_
 _symmetry_equiv_pos_site_id
 _symmetry_equiv_pos_as_xyz
  1  'x, y, z'
loop_
 _atom_site_type_symbol
 _atom_site_label
 _atom_site_symmetry_multiplicity
 _atom_site_fract_x
 _atom_site_fract_y
 _atom_site_fract_z
 _atom_site_occupancy
 _atom_site_pbe_bader_charge
 _atom_site_pbe_bader_spin_density
 _atom_site_pbe_cm5_charge
 _atom_site_pbe_ddec_charge
 _atom_site_pbe_ddec_spin_density
 _atom_site_pbe_ddec_sum_bond_order
 _atom_site_pbe_magmom
Cu  Cu0  1  0.99092540  0.99212263  0.31192281  1  1.095784  0.583728  0.684144  0.835772  0.746911  2.286437  0.584
Cu  Cu1  1  0.00788167  0.00907947  0.18807289  1  1.099901  0.583875  0.684225  0.835969  0.746916  2.286351  0.584
Cu  Cu2  1  0.00919571  0.00778769  0.68764702  1  1.092504  0.549997  0.681167  0.831784  0.700819  2.286184  0.547
Cu  Cu3  1  0.99220923  0.99080487  0.81234717  1  1.088541  -0.549997  0.681192  0.831913  -0.786376  2.285973  -0.547
Cu  Cu4  1  0.04158115  0.55561078  0.49880360  1  1.10767  0.586505  0.684873  0.839211  0.750378  2.308816  0.587
Cu  Cu5  1  0.44438293  0.95841952  0.00119764  1  1.107891  0.586518  0.684912  0.839208  0.750389  2.308819  0.587
Cu  Cu6  1  0.95853787  0.44433580  0.50131258  1  1.1067  0.58644  0.684912  0.838965  0.75009  2.30924  0.587
Cu  Cu7  1  0.55566296  0.04145884  0.99869107  1  1.106843  0.586419  0.684941  0.838927  0.750059  2.309281  0.587
H  H8  1  0.30703583  0.97104038  0.16797173  1  0.097199  0.000368  0.106576  0.113421  0.000313  1.019766  0.0
H  H9  1  0.02893941  0.69297574  0.33202638  1  0.09697  0.000367  0.106536  0.11343  0.000313  1.019712  0.0
H  H10  1  0.69334744  0.02868748  0.83210364  1  0.092239  -0.000255  0.106577  0.113744  -0.000223  1.020087  0.0
H  H11  1  0.97132126  0.30664783  0.66790234  1  0.092223  0.000307  0.106568  0.113739  0.000288  1.020243  0.0
H  H12  1  0.47421215  0.95016917  0.18181475  1  0.11162  0.000193  0.110646  0.131459  7.1e-05  1.015141  0.0
H  H13  1  0.04981508  0.52579686  0.31818022  1  0.112143  0.000193  0.110666  0.131491  7.1e-05  1.015214  0.0
H  H14  1  0.52615721  0.04984728  0.81823751  1  0.109572  0.00013  0.110756  0.131794  4.3e-05  1.015532  0.0
H  H15  1  0.95015919  0.47383719  0.68176393  1  0.109627  -0.000225  0.110718  0.131684  -0.000154  1.015603  0.0
H  H16  1  0.27177386  0.93006346  0.37458966  1  0.075355  0.00037  0.103211  0.103375  0.000291  1.03333  0.0
H  H17  1  0.06993689  0.72823457  0.12540989  1  0.075345  0.00037  0.103204  0.103417  0.000291  1.033271  0.0
H  H18  1  0.72847605  0.07020325  0.62553665  1  0.065443  0.000303  0.103362  0.103427  0.000261  1.033949  0.0
H  H19  1  0.92980536  0.27151563  0.87447244  1  0.065372  -0.000302  0.103327  0.103385  -0.00029  1.033739  0.0
H  H20  1  0.44113647  0.90660667  0.38843079  1  0.078139  0.000232  0.106211  0.120584  0.000117  0.995135  0.0
H  H21  1  0.09339719  0.55886727  0.11156870  1  0.078142  0.000233  0.1062  0.120559  0.000117  0.995167  0.0
H  H22  1  0.55913912  0.09377967  0.61168449  1  0.080629  -0.000185  0.106423  0.120907  -0.000108  0.994711  0.0
H  H23  1  0.90622680  0.44086201  0.88831900  1  0.080602  0.000185  0.106426  0.120918  9.8e-05  0.994646  0.0
H  H24  1  0.56337058  0.75042732  0.34641407  1  0.081444  0.000212  0.102792  0.116746  0.000107  1.013193  0.0
H  H25  1  0.24957307  0.43662138  0.15359238  1  0.081483  0.000211  0.102785  0.116721  0.000107  1.013294  0.0
H  H26  1  0.43674854  0.24978575  0.65374289  1  0.080914  0.000216  0.102633  0.116805  0.00011  1.012959  0.0
H  H27  1  0.75021376  0.56325423  0.84626010  1  0.080823  0.000216  0.102675  0.116843  0.000109  1.013187  0.0
H  H28  1  0.74544676  0.91614285  0.46460767  1  0.061477  -3e-06  0.104459  0.11431  -9e-06  1.016614  0.0
H  H29  1  0.08384582  0.25458064  0.03539503  1  0.061232  -4e-06  0.1044  0.114327  -1e-05  1.016694  0.0
H  H30  1  0.25469652  0.08400597  0.53537670  1  0.061549  -3e-06  0.104419  0.114306  -8e-06  1.016304  0.0
H  H31  1  0.91598641  0.74530980  0.96461683  1  0.061376  3e-06  0.10437  0.114222  -7e-06  1.016356  0.0
H  H32  1  0.81624308  0.81394109  0.51590723  1  0.047722  -4.5e-05  0.105778  0.130376  -2.9e-05  0.994415  0.0
H  H33  1  0.18605065  0.18379678  0.98409522  1  0.047705  -4.8e-05  0.10575  0.130239  -3.1e-05  0.994478  0.0
H  H34  1  0.18387221  0.18624590  0.48410854  1  0.045292  -4.4e-05  0.105779  0.130473  -2.9e-05  0.994825  0.0
H  H35  1  0.81375115  0.81613769  0.01588729  1  0.045258  -2.5e-05  0.105758  0.130357  -1.9e-05  0.9949  0.0
H  H36  1  0.74763465  0.92994783  0.54995129  1  0.032402  -1.1e-05  0.098721  0.110848  -1.4e-05  1.002462  0.0
H  H37  1  0.07004525  0.25239828  0.95005305  1  0.03118  -1.2e-05  0.098836  0.110959  -4e-06  1.002497  0.0
H  H38  1  0.25261226  0.07032871  0.44999690  1  0.02802  -1.2e-05  0.098803  0.111034  -1.6e-05  1.002473  0.0
H  H39  1  0.92967041  0.74738461  0.04999942  1  0.027766  0.0  0.098762  0.110952  -8e-06  1.002497  0.0
H  H40  1  0.85949746  0.79977712  0.36522959  1  0.07575  0.000422  0.105576  0.107788  0.00033  1.013208  0.0
H  H41  1  0.20021360  0.14050033  0.13477207  1  0.075857  0.000422  0.105582  0.107752  0.000329  1.013134  0.0
H  H42  1  0.14082349  0.20010244  0.63483400  1  0.076398  0.00044  0.105444  0.107754  0.000343  1.013858  0.0
H  H43  1  0.79987332  0.85919099  0.86515482  1  0.076611  0.000398  0.105393  0.107643  0.000306  1.013705  0.0
H  H44  1  0.27412335  0.12567644  0.28890890  1  0.102204  0.000214  0.10188  0.117389  8.3e-05  1.035054  0.0
H  H45  1  0.87432869  0.72586227  0.21108193  1  0.10244  0.000214  0.101892  0.11733  8.3e-05  1.035378  0.0
H  H46  1  0.72580925  0.87434307  0.71114243  1  0.101509  0.000229  0.102051  0.11758  0.00011  1.035135  0.0
H  H47  1  0.12566400  0.27417849  0.78884910  1  0.101579  0.000227  0.102096  0.117627  0.000111  1.035215  0.0
H  H48  1  0.53332645  0.10948316  0.14076082  1  0.163257  0.000147  0.108924  0.139424  8.4e-05  1.040545  0.0
H  H49  1  0.89050925  0.46667308  0.35924670  1  0.162867  0.000147  0.10893  0.13944  8.4e-05  1.040371  0.0
H  H50  1  0.46644062  0.89079988  0.85916879  1  0.164284  9.9e-05  0.108948  0.139607  6.5e-05  1.040627  0.0
H  H51  1  0.10919692  0.53355799  0.64083500  1  0.164333  -0.000255  0.108944  0.139568  -0.000135  1.040548  0.0
H  H52  1  0.13770494  0.23750109  0.36141537  1  0.085005  0.000335  0.106756  0.109137  0.000255  1.011336  0.0
H  H53  1  0.76251168  0.86228164  0.13857659  1  0.085152  0.000336  0.106745  0.109076  0.000256  1.011298  0.0
H  H54  1  0.86228242  0.76249822  0.63868052  1  0.085272  0.000341  0.10671  0.109196  0.000261  1.010737  0.0
H  H55  1  0.23750662  0.13770625  0.86131043  1  0.085134  0.000334  0.106761  0.109303  0.000263  1.010815  0.0
H  H56  1  0.68815571  0.11413791  0.34324666  1  0.087611  0.000286  0.102278  0.104144  0.000222  1.006183  0.0
H  H57  1  0.88585409  0.31185451  0.15675776  1  0.087705  0.000286  0.102332  0.10415  0.000222  1.006304  0.0
H  H58  1  0.31148726  0.88628697  0.65672603  1  0.085859  0.000266  0.10203  0.104178  0.000229  1.00655  0.0
H  H59  1  0.11371721  0.68850039  0.84328097  1  0.08571  -0.000266  0.102052  0.104143  -0.000254  1.006611  0.0
H  H60  1  0.71066582  0.05964809  0.13961351  1  0.079816  0.000346  0.106719  0.10641  0.000281  1.028677  0.0
H  H61  1  0.94035665  0.28932894  0.36039247  1  0.079736  0.000346  0.106754  0.106516  0.000281  1.028496  0.0
H  H62  1  0.28913659  0.94066695  0.86033461  1  0.11475  -0.000291  0.106742  0.106905  -0.000277  1.028998  0.0
H  H63  1  0.05932218  0.71086656  0.63967144  1  0.11502  0.000307  0.106747  0.106893  0.000277  1.028865  0.0
H  H64  1  0.71739879  0.92505544  0.30649937  1  0.1024  0.000216  0.102225  0.119456  9.6e-05  1.036944  0.0
H  H65  1  0.07493161  0.28260660  0.19349740  1  0.102298  0.000216  0.102181  0.119385  9.6e-05  1.036957  0.0
H  H66  1  0.28297827  0.07490681  0.69357195  1  0.103249  0.000233  0.101994  0.119243  0.000117  1.037253  0.0
H  H67  1  0.92507391  0.71703159  0.80642006  1  0.103511  0.000236  0.101887  0.119013  0.000108  1.036954  0.0
H  H68  1  0.83570780  0.96114549  0.40074551  1  0.08045  -2.3e-05  0.11681  0.045192  5e-06  1.025536  0.0
H  H69  1  0.03884766  0.16430755  0.09924887  1  0.080284  -2.2e-05  0.116806  0.045192  5e-06  1.025608  0.0
H  H70  1  0.16440165  0.03884605  0.59913476  1  0.081334  -2.7e-05  0.116825  0.044762  -2e-05  1.024359  0.0
H  H71  1  0.96114711  0.83560567  0.90085917  1  0.081317  2.4e-05  0.116801  0.044722  -6e-06  1.024363  0.0
H  H72  1  0.40275225  0.32448555  0.28013939  1  0.095842  0.000226  0.107199  0.122381  0.000115  0.994038  0.0
H  H73  1  0.67549562  0.59726033  0.21987601  1  0.096596  0.000226  0.107171  0.122288  0.000115  0.99393  0.0
H  H74  1  0.59687730  0.67580359  0.71954863  1  0.097243  0.000231  0.107105  0.121849  0.000119  0.994036  0.0
H  H75  1  0.32419105  0.40311697  0.78045142  1  0.097447  0.000229  0.107153  0.121975  0.000116  0.994087  0.0
H  H76  1  0.70477619  0.62676511  0.40546608  1  0.107513  0.000272  0.109151  0.117399  0.000207  0.983244  0.0
H  H77  1  0.37323725  0.29521911  0.09454281  1  0.107439  0.000272  0.109177  0.117391  0.000207  0.983305  0.0
H  H78  1  0.29529964  0.37334367  0.59465361  1  0.107373  0.000274  0.10923  0.117625  0.000208  0.983557  0.0
H  H79  1  0.62665432  0.70469095  0.90534888  1  0.107125  0.000273  0.109259  0.117697  0.000207  0.983633  0.0
H  H80  1  0.26808953  0.43408430  0.35404667  1  0.097678  0.000404  0.107616  0.115921  0.000308  0.988322  0.0
H  H81  1  0.56590078  0.73192524  0.14595742  1  0.097309  0.000405  0.10764  0.115956  0.000308  0.988278  0.0
H  H82  1  0.73159774  0.56618083  0.64570194  1  0.107496  0.000402  0.107569  0.115693  0.000309  0.988515  0.0
H  H83  1  0.43381714  0.26839319  0.85429358  1  0.107425  0.000399  0.107546  0.115767  0.000307  0.988614  0.0
H  H84  1  0.50998097  0.16295453  0.34501393  1  0.081013  0.000226  0.104391  0.119411  0.000111  1.001853  0.0
H  H85  1  0.83702510  0.49002648  0.15499876  1  0.081133  0.000226  0.104375  0.119437  0.000111  1.001947  0.0
H  H86  1  0.48963942  0.83752099  0.65488357  1  0.079278  -0.000208  0.104707  0.119498  -0.000122  1.001964  0.0
H  H87  1  0.16248185  0.51035244  0.84511246  1  0.079339  0.000197  0.104678  0.119454  0.000102  1.002063  0.0
H  H88  1  0.99425957  0.91687535  0.53429355  1  0.095059  -4e-06  0.109479  0.133055  6e-06  1.029352  0.0
H  H89  1  0.08314547  0.00576643  0.96569540  1  0.095603  3e-06  0.109567  0.13329  9e-06  1.029207  0.0
H  H90  1  0.00610473  0.08304990  0.46547301  1  0.099318  0.0  0.109516  0.132894  1.1e-05  1.029061  0.0
H  H91  1  0.91696889  0.99388870  0.03452645  1  0.099664  7e-06  0.109532  0.132995  -5e-06  1.029022  0.0
H  H92  1  0.89975055  0.92514830  0.59198927  1  0.054359  -3.5e-05  0.102897  0.123439  -2.7e-05  1.00933  0.0
H  H93  1  0.07486841  0.10027369  0.90800590  1  0.053626  2e-05  0.102884  0.123385  9e-06  1.009251  0.0
H  H94  1  0.10062063  0.07486834  0.40784396  1  0.050047  -7.5e-05  0.103016  0.123528  -4.3e-05  1.010073  0.0
H  H95  1  0.92514568  0.89937353  0.09215323  1  0.049579  -5.9e-05  0.103046  0.123625  -3.4e-05  1.010223  0.0
H  H96  1  0.97518078  0.81118272  0.55701996  1  0.059256  3.5e-05  0.104898  0.123595  2.6e-05  1.00637  0.0
H  H97  1  0.18883309  0.02485182  0.94297514  1  0.059306  -4.4e-05  0.10481  0.123467  -2.7e-05  1.006371  0.0
H  H98  1  0.02504310  0.18883762  0.44280677  1  0.0589  3.5e-05  0.104961  0.123552  2.8e-05  1.0062  0.0
H  H99  1  0.81117647  0.97495477  0.05719518  1  0.058974  4.7e-05  0.104993  0.123642  3.4e-05  1.006167  0.0
H  H100  1  0.11528317  0.71038988  0.42431026  1  0.10006  -2e-05  0.12513  0.055342  -1.7e-05  0.977894  0.0
H  H101  1  0.28960859  0.88472279  0.07568465  1  0.09947  -2e-05  0.125159  0.055375  -1.7e-05  0.977991  0.0
H  H102  1  0.88493508  0.28935433  0.57569496  1  0.098307  -1.2e-05  0.12501  0.055267  -1.4e-05  0.977907  0.0
H  H103  1  0.71063483  0.11508442  0.92429821  1  0.098376  -6.9e-05  0.124959  0.055259  -5.9e-05  0.977862  0.0
H  H104  1  0.28549740  0.74940963  0.55304271  1  0.025726  9e-06  0.103426  0.111682  2e-06  0.986051  0.0
H  H105  1  0.25056472  0.71451416  0.94696067  1  0.026048  -2.3e-05  0.103445  0.111552  -1.1e-05  0.986046  0.0
H  H106  1  0.71440941  0.25090275  0.44693459  1  0.02701  1e-05  0.103388  0.111559  3e-06  0.985803  0.0
H  H107  1  0.74909283  0.28559400  0.05306621  1  0.027096  1e-05  0.103395  0.111572  4e-06  0.98579  0.0
H  H108  1  0.22842463  0.67220662  0.57859829  1  0.092436  -1e-05  0.112103  0.131807  -5e-06  0.995806  0.0
H  H109  1  0.32776949  0.77157953  0.92139909  1  0.092849  -8e-06  0.112095  0.131741  5e-06  0.995777  0.0
H  H110  1  0.77163808  0.32796731  0.42141921  1  0.090785  -1.4e-05  0.112254  0.13178  -1e-05  0.99621  0.0
H  H111  1  0.67203013  0.22835850  0.07857850  1  0.090702  -1.7e-05  0.112231  0.131766  -1.2e-05  0.996299  0.0
H  H112  1  0.16310236  0.80043516  0.58584106  1  0.102874  3.2e-05  0.10743  0.132282  3.1e-05  0.995614  0.0
H  H113  1  0.19954467  0.83690745  0.91415835  1  0.103136  -3.6e-05  0.107517  0.132402  -4e-05  0.995531  0.0
H  H114  1  0.83678851  0.19974358  0.41407390  1  0.104309  8e-06  0.107419  0.132031  2.4e-05  0.996465  0.0
H  H115  1  0.80026121  0.16320539  0.08592391  1  0.104154  7e-06  0.107423  0.132053  2.4e-05  0.996389  0.0
H  H116  1  0.16715894  0.81803084  0.39726321  1  0.123083  -4.6e-05  0.111931  0.1353  -2.9e-05  1.009267  0.0
H  H117  1  0.18196149  0.83286680  0.10273340  1  0.122503  -4.6e-05  0.111873  0.135208  -3e-05  1.009328  0.0
H  H118  1  0.83276455  0.18191949  0.60267723  1  0.12461  -1.7e-05  0.111909  0.135268  -2e-05  1.009414  0.0
H  H119  1  0.81808627  0.16723642  0.89732182  1  0.124516  6e-06  0.111902  0.135215  1.4e-05  1.009383  0.0
H  H120  1  0.27675167  0.79665184  0.43490960  1  0.024625  -4e-06  0.096918  0.102943  -1e-05  0.998792  0.0
H  H121  1  0.20333169  0.72326709  0.06509555  1  0.024965  -7e-06  0.096908  0.102851  -1.1e-05  0.998829  0.0
H  H122  1  0.72320937  0.20339472  0.56495410  1  0.024313  0.0  0.097013  0.103147  -5e-06  0.99867  0.0
H  H123  1  0.79661989  0.27678899  0.93504760  1  0.024276  -5e-06  0.09707  0.10316  3e-06  0.998638  0.0
H  H124  1  0.16222547  0.89168768  0.46087252  1  0.059381  4e-06  0.10525  0.125271  7e-06  0.997899  0.0
H  H125  1  0.10830065  0.83779854  0.03913221  1  0.059354  5e-06  0.105197  0.125309  7e-06  0.997808  0.0
H  H126  1  0.83773334  0.10833205  0.53902380  1  0.058481  2e-06  0.105257  0.125371  3e-06  0.997584  0.0
H  H127  1  0.89166973  0.16225870  0.96097835  1  0.058361  -2e-05  0.105245  0.125393  -1.4e-05  0.997503  0.0
C  C128  1  0.17783301  0.96322927  0.26288147  1  1.520698  -0.001234  0.21106  0.574632  0.000657  4.168614  -0.004
C  C129  1  0.03676014  0.82217142  0.23711513  1  1.520807  -0.001232  0.21125  0.575094  0.000658  4.16866  -0.004
C  C130  1  0.82272997  0.03639032  0.73728338  1  1.520023  -7e-06  0.211061  0.574521  -0.000371  4.170087  0.0
C  C131  1  0.96361455  0.17726875  0.76271624  1  1.518977  -6e-06  0.211024  0.574276  -0.000279  4.170107  0.0
C  C132  1  0.27913050  0.94913943  0.27051932  1  -0.030201  0.015381  -0.027939  -0.055736  0.010806  3.988013  0.012
C  C133  1  0.05085114  0.72087770  0.22948370  1  -0.030072  0.015377  -0.027915  -0.05587  0.010803  3.988168  0.012
C  C134  1  0.72125757  0.05081484  0.72957944  1  -0.016469  -0.000456  -0.02714  -0.053964  -0.000473  3.984439  0.0
C  C135  1  0.94918412  0.27875488  0.77041256  1  -0.016267  0.000408  -0.027052  -0.053854  0.000155  3.984027  0.0
C  C136  1  0.33641123  0.95549278  0.21617118  1  -0.040267  0.000586  -0.078132  -0.067839  0.00042  3.95743  0.001
C  C137  1  0.04449123  0.66359004  0.28382918  1  -0.040024  0.000586  -0.078085  -0.067783  0.000419  3.957188  0.001
C  C138  1  0.66396308  0.04439503  0.78390447  1  -0.030801  0.001094  -0.078139  -0.068282  0.000659  3.958664  0.001
C  C139  1  0.95561484  0.33603915  0.71608801  1  -0.030988  -0.000908  -0.078123  -0.068292  -0.000644  3.959067  -0.001
C  C140  1  0.43024827  0.94349990  0.22354620  1  0.0337  0.000936  -0.092105  -0.175078  0.000579  3.959388  0.001
C  C141  1  0.05648992  0.56975094  0.27645097  1  0.03247  0.000936  -0.092115  -0.175043  0.000578  3.959644  0.001
C  C142  1  0.57009786  0.05652049  0.77652022  1  0.059868  0.000528  -0.092353  -0.175221  0.00041  3.961185  0.0
C  C143  1  0.94348438  0.42989606  0.72348131  1  0.059983  -0.00058  -0.092271  -0.174976  -0.000453  3.961226  0.0
C  C144  1  0.31754677  0.93206294  0.33241473  1  -0.03571  0.000637  -0.088068  -0.087423  0.000472  4.010715  0.001
C  C145  1  0.06793141  0.68246348  0.16758745  1  -0.035952  0.000638  -0.088051  -0.087418  0.000473  4.010453  0.001
C  C146  1  0.68273897  0.06813350  0.66769607  1  -0.050662  -0.000743  -0.088065  -0.087417  -0.000493  4.011379  -0.001
C  C147  1  0.93187917  0.31725367  0.83230260  1  -0.050488  0.000931  -0.088132  -0.087399  0.000505  4.010968  0.001
C  C148  1  0.41189410  0.91900913  0.34025208  1  -0.028953  0.000866  -0.104731  -0.216597  0.000503  4.02476  0.001
C  C149  1  0.08099490  0.58810597  0.15974715  1  -0.029332  0.000866  -0.10469  -0.216553  0.000503  4.02435  0.001
C  C150  1  0.58838246  0.08122599  0.65985756  1  -0.023979  -0.000524  -0.104836  -0.216973  -0.000425  4.02602  0.0
C  C151  1  0.91877484  0.41160725  0.84014782  1  -0.024395  0.000508  -0.104719  -0.216913  0.000381  4.02573  0.0
C  C152  1  0.46854677  0.92355327  0.28518153  1  0.421311  -0.001053  0.091719  0.266673  -0.000806  4.028736  -0.001
C  C153  1  0.07643663  0.53145385  0.21481891  1  0.42252  -0.001052  0.091676  0.26651  -0.000806  4.028962  -0.001
C  C154  1  0.53176820  0.07656994  0.71490800  1  0.403465  0.000102  0.091983  0.266355  6.1e-05  4.029272  0.0
C  C155  1  0.92343503  0.46822514  0.78509795  1  0.402996  5.5e-05  0.091885  0.266224  3.2e-05  4.028721  0.0
C  C156  1  0.63158214  0.84658465  0.32476416  1  0.384889  -0.000882  0.091059  0.271826  -0.000686  4.031698  -0.001
C  C157  1  0.15340602  0.36842748  0.17523848  1  0.384697  -0.000883  0.091026  0.271682  -0.000686  4.032093  -0.001
C  C158  1  0.36867139  0.15349832  0.67535285  1  0.378865  -0.000898  0.091823  0.271762  -0.000692  4.031648  -0.001
C  C159  1  0.84648579  0.63132587  0.82465324  1  0.378504  -0.000865  0.091948  0.271941  -0.000663  4.0318  -0.001
C  C160  1  0.62704692  0.76252461  0.35192978  1  -0.035545  0.000838  -0.111628  -0.228829  0.000488  4.029601  0.001
C  C161  1  0.23747394  0.37295100  0.14807641  1  -0.034867  0.000837  -0.111708  -0.228921  0.000487  4.029939  0.001
C  C162  1  0.37310872  0.23762298  0.64819491  1  -0.041841  0.000875  -0.111314  -0.228194  0.000509  4.027839  0.001
C  C163  1  0.76236815  0.62688772  0.85179975  1  -0.041865  0.000835  -0.111447  -0.228372  0.000484  4.028618  0.001
C  C164  1  0.79094089  0.89262526  0.50695604  1  0.309444  -6.9e-05  -0.13267  -0.275231  -5.4e-05  3.916939  0.0
C  C165  1  0.10736856  0.20909050  0.99304490  1  0.310666  -7.2e-05  -0.132573  -0.275035  -5.7e-05  3.917415  0.0
C  C166  1  0.20923679  0.10755503  0.49300624  1  0.315333  -7e-05  -0.132901  -0.275943  -5.4e-05  3.917326  0.0
C  C167  1  0.89244454  0.79076297  0.00698995  1  0.315849  -2.6e-05  -0.132771  -0.275692  -1.8e-05  3.917207  0.0
C  C168  1  0.81756655  0.04988724  0.24253949  1  1.499406  -0.00081  0.210668  0.574113  0.000962  4.172139  -0.004
C  C169  1  0.95012579  0.18243539  0.25746022  1  1.499103  -0.000809  0.21062  0.574008  0.000964  4.171889  -0.004
C  C170  1  0.18207823  0.95012601  0.75756219  1  1.498996  0.000249  0.210641  0.57299  -0.000167  4.174808  0.001
C  C171  1  0.04987426  0.81791637  0.74243702  1  1.498688  -0.000258  0.210617  0.572858  -0.000539  4.174805  -0.001
C  C172  1  0.79379205  0.79023156  0.36218328  1  -0.005583  0.000777  -0.081955  -0.072328  0.000574  3.99098  0.001
C  C173  1  0.20976633  0.20620854  0.13781593  1  -0.005382  0.000777  -0.081919  -0.072272  0.000574  3.9906  0.001
C  C174  1  0.20647080  0.20974794  0.63791720  1  -0.000541  0.000759  -0.081677  -0.072724  0.000566  3.991598  0.001
C  C175  1  0.79024565  0.79352642  0.86207785  1  -0.000618  0.000767  -0.081502  -0.072458  0.000579  3.990988  0.001
C  C176  1  0.87384128  0.63062156  0.42562402  1  1.517446  -0.001054  0.211086  0.568324  0.000917  4.171915  -0.004
C  C177  1  0.36937235  0.12616165  0.07438384  1  1.517797  -0.001051  0.211005  0.568274  0.00092  4.172321  -0.004
C  C178  1  0.12629467  0.36933389  0.57450815  1  1.5216  -0.001074  0.211323  0.569138  0.000911  4.172304  -0.004
C  C179  1  0.63065953  0.87369944  0.92549935  1  1.521201  -0.001072  0.211356  0.569209  0.000919  4.172131  -0.004
C  C180  1  0.11915512  0.40452065  0.40950983  1  1.520682  -0.001007  0.207622  0.558492  0.000962  4.193379  -0.004
C  C181  1  0.59547683  0.88085183  0.09049649  1  1.520634  -0.001007  0.207569  0.558525  0.000963  4.193275  -0.004
C  C182  1  0.88082049  0.59551212  0.59051752  1  1.521528  -0.001017  0.207663  0.558749  0.000955  4.192605  -0.004
C  C183  1  0.40448529  0.11916960  0.90947655  1  1.521497  -0.001005  0.207652  0.558739  0.000967  4.192586  -0.004
C  C184  1  0.71099608  0.08346419  0.24156966  1  0.005403  0.015944  -0.032096  -0.06987  0.011351  4.010217  0.013
C  C185  1  0.91653210  0.28900948  0.25843282  1  0.005826  0.015942  -0.032125  -0.069754  0.01135  4.010273  0.013
C  C186  1  0.28872629  0.91685351  0.75840846  1  -0.019639  -0.000711  -0.031043  -0.066869  -0.000662  4.006923  -0.001
C  C187  1  0.08313918  0.71126940  0.74159537  1  -0.019897  0.000631  -0.031106  -0.06699  0.000257  4.00677  0.001
C  C188  1  0.27204442  0.19303130  0.30410971  1  0.025891  0.000909  -0.100661  -0.196521  0.000531  3.983976  0.001
C  C189  1  0.80697397  0.72795163  0.19588831  1  0.025733  0.00091  -0.10066  -0.19661  0.000531  3.984291  0.001
C  C190  1  0.72782059  0.80705707  0.69587810  1  0.028108  0.000935  -0.100669  -0.196823  0.000548  3.98431  0.001
C  C191  1  0.19293878  0.27216843  0.80412024  1  0.02744  0.000949  -0.100726  -0.196943  0.000559  3.984202  0.001
C  C192  1  0.56798352  0.11017560  0.18479651  1  0.076938  0.00114  -0.097909  -0.19028  0.000723  3.9431  0.001
C  C193  1  0.88981079  0.43201785  0.31521220  1  0.077375  0.00114  -0.097839  -0.19008  0.000723  3.942739  0.001
C  C194  1  0.43180257  0.89012042  0.81512356  1  0.006771  0.000692  -0.097932  -0.190499  0.000518  3.943266  0.001
C  C195  1  0.10987197  0.56819569  0.68488100  1  0.006789  -0.000694  -0.098042  -0.190598  -0.000539  3.943703  -0.001
C  C196  1  0.34652952  0.21796519  0.28238601  1  0.404921  -0.00111  0.090534  0.267774  -0.000851  4.036067  -0.001
C  C197  1  0.78203010  0.65347772  0.21762112  1  0.404701  -0.00111  0.0906  0.26812  -0.000851  4.035958  -0.001
C  C198  1  0.65327872  0.78218258  0.71752998  1  0.403187  -0.001129  0.090742  0.268548  -0.000861  4.035679  -0.001
C  C199  1  0.21782305  0.34670804  0.78246797  1  0.403769  -0.001137  0.090727  0.268541  -0.000869  4.035644  -0.001
C  C200  1  0.19684477  0.25509739  0.34418916  1  -0.098734  0.0006  -0.079273  -0.063123  0.000389  3.969581  0.001
C  C201  1  0.74490652  0.80314942  0.15580769  1  -0.098679  0.000599  -0.079219  -0.062901  0.000388  3.969621  0.001
C  C202  1  0.80306896  0.74495574  0.65582696  1  -0.099949  0.000603  -0.079163  -0.063174  0.000392  3.96866  0.001
C  C203  1  0.25504434  0.19692208  0.84416852  1  -0.099917  0.000595  -0.079203  -0.063215  0.000389  3.968715  0.001
C  C204  1  0.19624760  0.34113960  0.36330917  1  0.018489  0.015303  -0.028204  -0.057377  0.010773  3.993493  0.012
C  C205  1  0.65886818  0.80374795  0.13668938  1  0.018859  0.015304  -0.028214  -0.057537  0.010774  3.993711  0.012
C  C206  1  0.80362744  0.65895763  0.63662964  1  0.011638  0.015292  -0.028263  -0.057384  0.010754  3.993036  0.012
C  C207  1  0.34103752  0.19637040  0.86336810  1  0.012198  0.015328  -0.02823  -0.057342  0.010776  3.992865  0.012
C  C208  1  0.79020866  0.70609885  0.39038557  1  -0.001881  0.016018  -0.028247  -0.057329  0.011195  3.988355  0.013
C  C209  1  0.29390483  0.20979116  0.10961572  1  -0.001637  0.016008  -0.028164  -0.057366  0.01119  3.988416  0.013
C  C210  1  0.20998524  0.29391798  0.60971958  1  -0.002682  0.016069  -0.028126  -0.056899  0.011216  3.989507  0.013
C  C211  1  0.70607194  0.79001299  0.89027228  1  -0.003142  0.016015  -0.028103  -0.056867  0.01118  3.989203  0.013
C  C212  1  0.65347434  0.11377836  0.29907845  1  -0.010714  0.001087  -0.088134  -0.077014  0.00078  4.016123  0.001
C  C213  1  0.88621503  0.34652888  0.20092486  1  -0.012966  0.001089  -0.088089  -0.077018  0.00078  4.016498  0.001
C  C214  1  0.34622815  0.88661792  0.70088380  1  0.011774  -0.000717  -0.088359  -0.077958  -0.000508  4.016425  -0.001
C  C215  1  0.11338428  0.65376658  0.79912047  1  0.012353  0.000915  -0.088363  -0.077813  0.000515  4.01622  0.001
C  C216  1  0.66706507  0.08268300  0.18452075  1  -0.070703  0.000979  -0.077655  -0.058739  0.000679  3.968253  0.001
C  C217  1  0.91732374  0.33293680  0.31548282  1  -0.071145  0.000981  -0.077774  -0.059068  0.00068  3.968413  0.001
C  C218  1  0.33270130  0.91768855  0.81542332  1  -0.035537  0.001427  -0.077746  -0.059832  0.000871  3.969615  0.001
C  C219  1  0.08230358  0.66729278  0.68458012  1  -0.035714  -0.001258  -0.077619  -0.059631  -0.000882  3.969629  -0.001
C  C220  1  0.71509726  0.86025367  0.32974215  1  -0.027648  0.001011  -0.104587  -0.204374  0.000591  3.988513  0.001
C  C221  1  0.13974287  0.28490897  0.17025982  1  -0.028022  0.001011  -0.104563  -0.204271  0.000591  3.988264  0.001
C  C222  1  0.28520425  0.13973847  0.67034142  1  -0.026834  0.001067  -0.104763  -0.203995  0.000628  3.987524  0.001
C  C223  1  0.86024630  0.71478672  0.82965244  1  -0.026507  0.000984  -0.10476  -0.203823  0.000576  3.986934  0.001
C  C224  1  0.89167561  0.94774984  0.43601010  1  1.376793  -0.000218  0.16678  0.291627  -0.000197  4.114875  0.0
C  C225  1  0.05225073  0.10834185  0.06398369  1  1.375452  -0.000227  0.166744  0.291938  -0.000205  4.114717  0.0
C  C226  1  0.10849612  0.05223490  0.56379538  1  1.371625  -0.000221  0.166932  0.292699  -0.000205  4.114054  0.0
C  C227  1  0.94776577  0.89150480  0.93619951  1  1.371826  0.000229  0.166874  0.292726  0.000188  4.113424  0.0
C  C228  1  0.34537987  0.30520674  0.29910199  1  -0.065084  0.000946  -0.10463  -0.216031  0.000545  4.027633  0.001
C  C229  1  0.69478531  0.65462965  0.20090767  1  -0.065992  0.000946  -0.10464  -0.21605  0.000545  4.027616  0.001
C  C230  1  0.65434303  0.69502962  0.70067239  1  -0.063949  0.000884  -0.105218  -0.216409  0.000501  4.02729  0.001
C  C231  1  0.30496579  0.34565555  0.79932493  1  -0.063576  0.000948  -0.105221  -0.216469  0.000545  4.027927  0.001
C  C232  1  0.70635516  0.69315928  0.38455268  1  -0.022363  0.000553  -0.080717  -0.0595  0.000372  3.978226  0.0
C  C233  1  0.30683991  0.29364546  0.11545516  1  -0.022497  0.000553  -0.080741  -0.059378  0.000372  3.978386  0.0
C  C234  1  0.29377241  0.30694340  0.61556930  1  -0.021951  0.000537  -0.081142  -0.060592  0.000361  3.979252  0.0
C  C235  1  0.69305929  0.70621421  0.88443553  1  -0.021578  0.000556  -0.081138  -0.060665  0.000373  3.979369  0.0
C  C236  1  0.27048289  0.36609734  0.33986277  1  0.006355  0.000621  -0.083043  -0.068197  0.000467  3.987164  0.001
C  C237  1  0.63389261  0.72952396  0.16014725  1  0.006462  0.000621  -0.083091  -0.068253  0.000467  3.987208  0.001
C  C238  1  0.72928084  0.63411196  0.65995249  1  0.002039  0.000592  -0.082712  -0.067604  0.00045  3.987577  0.001
C  C239  1  0.36588853  0.27071618  0.84003970  1  0.000982  0.000612  -0.082697  -0.067754  0.000463  3.987877  0.001
C  C240  1  0.51232895  0.13843319  0.24269754  1  0.369704  -0.000604  0.091379  0.270081  -0.000484  4.033551  0.0
C  C241  1  0.86156188  0.48767361  0.25730582  1  0.369504  -0.000603  0.091363  0.269905  -0.000483  4.033506  0.0
C  C242  1  0.48744841  0.86186091  0.75723039  1  0.338202  0.000271  0.090595  0.269188  0.000171  4.033861  0.0
C  C243  1  0.13813331  0.51255320  0.74277237  1  0.338103  -0.000171  0.090609  0.269315  -0.000136  4.03418  0.0
C  C244  1  0.55427929  0.14126087  0.30014911  1  -0.070087  0.000808  -0.10885  -0.220808  0.000459  4.028881  0.001
C  C245  1  0.85871288  0.44572656  0.19986202  1  -0.067648  0.000806  -0.108906  -0.22081  0.000459  4.029275  0.001
C  C246  1  0.44542958  0.85912588  0.69979103  1  -0.028283  -0.000697  -0.108901  -0.220713  -0.000547  4.029474  -0.001
C  C247  1  0.14087559  0.55456544  0.80020881  1  -0.028378  0.000599  -0.108926  -0.220793  0.000433  4.029578  0.0
C  C248  1  0.93985114  0.89032634  0.54753157  1  0.281401  4.4e-05  -0.138988  -0.280802  2.6e-05  3.874185  0.0
C  C249  1  0.10968882  0.06017791  0.95246433  1  0.279646  -2.3e-05  -0.139077  -0.280769  -1.9e-05  3.874121  0.0
C  C250  1  0.06045811  0.10970544  0.45228733  1  0.278543  1.6e-05  -0.139438  -0.28091  1.5e-05  3.873438  0.0
C  C251  1  0.89031131  0.93953702  0.04771407  1  0.278819  6e-06  -0.139501  -0.28121  -1e-06  3.873586  0.0
C  C252  1  0.13737120  0.69858524  0.47526176  1  1.38603  -0.000332  0.176778  0.303417  -0.000311  4.107009  0.0
C  C253  1  0.30141040  0.86262992  0.02473404  1  1.386643  -0.000341  0.176717  0.303096  -0.000321  4.107322  0.0
C  C254  1  0.86280784  0.30127306  0.52474363  1  1.387731  -0.000332  0.17692  0.303142  -0.00031  4.108053  0.0
C  C255  1  0.69871294  0.13720480  0.97525157  1  1.387554  -0.000371  0.176913  0.303204  -0.000336  4.107639  0.0
C  C256  1  0.21708062  0.74273227  0.55579902  1  0.257211  4.1e-05  -0.130852  -0.270655  3e-05  3.890906  0.0
C  C257  1  0.25724242  0.78293197  0.94420239  1  0.256191  -7e-05  -0.130965  -0.270675  -5.8e-05  3.890733  0.0
C  C258  1  0.78290962  0.25743002  0.44418347  1  0.256869  4.1e-05  -0.131309  -0.270883  2.6e-05  3.891921  0.0
C  C259  1  0.74256681  0.21709080  0.05581546  1  0.256675  4.6e-05  -0.131293  -0.270865  3.2e-05  3.892029  0.0
C  C260  1  0.19863823  0.81751738  0.44331909  1  0.272992  -3.9e-05  -0.133201  -0.282804  -6e-06  3.940726  0.0
C  C261  1  0.18247135  0.80138426  0.05668079  1  0.27315  -3.9e-05  -0.133146  -0.28285  -5e-06  3.940634  0.0
C  C262  1  0.80133223  0.18249074  0.55659176  1  0.268087  -1.1e-05  -0.133093  -0.283303  9e-06  3.940618  0.0
C  C263  1  0.81751491  0.19866704  0.94340693  1  0.268188  -5.6e-05  -0.133136  -0.283221  -6.6e-05  3.940448  0.0
N  N264  1  0.87359894  0.91461603  0.49483602  1  -1.196967  4e-06  -0.285655  0.021754  1.4e-05  3.728389  0.0
N  N265  1  0.08539056  0.12642452  0.00516097  1  -1.193889  -3.9e-05  -0.285599  0.021397  -1.3e-05  3.728818  0.0
N  N266  1  0.12664436  0.08544802  0.50501576  1  -1.188705  4e-06  -0.285177  0.022538  2.1e-05  3.727147  0.0
N  N267  1  0.91455375  0.87335358  0.99498361  1  -1.188825  0.00016  -0.285158  0.022646  8.7e-05  3.726676  0.0
N  N268  1  0.18430284  0.74979529  0.49025965  1  -1.229907  -7.5e-05  -0.285896  0.019766  -4.5e-05  3.733072  0.0
N  N269  1  0.25019193  0.81571293  0.00973726  1  -1.229882  -0.000132  -0.285764  0.020273  -8e-05  3.732886  0.0
N  N270  1  0.81576119  0.25020801  0.50970629  1  -1.225878  -6.4e-05  -0.285726  0.020773  -3.6e-05  3.733183  0.0
N  N271  1  0.74979184  0.18424312  0.99029150  1  -1.225326  -0.000119  -0.285672  0.020647  -6.5e-05  3.733083  0.0
O  O272  1  0.12949778  0.95892822  0.31519164  1  -1.114645  0.092796  -0.315922  -0.52714  0.059319  2.39201  0.084
O  O273  1  0.04106317  0.87051107  0.18480803  1  -1.114618  0.092787  -0.316016  -0.527295  0.059313  2.391969  0.084
O  O274  1  0.87051602  0.04187115  0.68500527  1  -1.109282  0.081363  -0.315663  -0.527083  0.052443  2.395815  0.073
O  O275  1  0.95812500  0.12948780  0.81499550  1  -1.109295  -0.081375  -0.315702  -0.527082  -0.058994  2.395829  -0.073
O  O276  1  0.14670622  0.97910481  0.20546167  1  -1.104044  0.089855  -0.31523  -0.534955  0.057495  2.337079  0.082
O  O277  1  0.02089038  0.85329401  0.29453148  1  -1.10405  0.089835  -0.315334  -0.535231  0.057481  2.337287  0.082
O  O278  1  0.85403800  0.01911269  0.79464359  1  -1.109955  -0.080606  -0.314756  -0.534223  -0.058534  2.341359  -0.073
O  O279  1  0.98088026  0.14596595  0.70535201  1  -1.108737  0.080626  -0.314697  -0.534061  0.052048  2.341393  0.073
O  O280  1  0.56051355  0.91745112  0.28819366  1  -1.107237  -0.00044  -0.139753  -0.201305  -0.000272  2.604383  0.0
O  O281  1  0.08254292  0.43948944  0.21180538  1  -1.107484  -0.00044  -0.139689  -0.201114  -0.000272  2.604737  0.0
O  O282  1  0.43981226  0.08265685  0.71190096  1  -1.103966  -0.000155  -0.140292  -0.201049  -9.6e-05  2.604393  0.0
O  O283  1  0.91733966  0.56019826  0.78809440  1  -1.103509  -0.000312  -0.140408  -0.201234  -0.000215  2.603929  0.0
O  O284  1  0.12424409  0.48102660  0.42559971  1  -1.099645  0.098077  -0.316635  -0.527527  0.06264  2.367807  0.089
O  O285  1  0.51897597  0.87575744  0.07440136  1  -1.099707  0.098073  -0.316606  -0.527483  0.062636  2.367675  0.089
O  O286  1  0.87578964  0.51894795  0.57447608  1  -1.100397  0.098085  -0.316888  -0.527887  0.062635  2.367652  0.089
O  O287  1  0.48104236  0.12420595  0.92552772  1  -1.100229  0.098116  -0.316888  -0.527858  0.062659  2.367669  0.089
O  O288  1  0.86894099  0.55118915  0.44242697  1  -1.110279  0.089877  -0.310363  -0.531104  0.057545  2.39839  0.082
O  O289  1  0.44880503  0.13105724  0.05757769  1  -1.111007  0.089896  -0.310259  -0.530933  0.057554  2.398185  0.082
O  O290  1  0.13115921  0.44877495  0.55768686  1  -1.111544  0.08982  -0.310438  -0.531475  0.057521  2.398025  0.082
O  O291  1  0.55121256  0.86883509  0.94231568  1  -1.110632  0.089868  -0.310539  -0.531595  0.057548  2.397891  0.082
O  O292  1  0.85305734  0.03248038  0.29897607  1  -1.111996  0.096904  -0.319007  -0.536792  0.061925  2.416528  0.088
O  O293  1  0.96753911  0.14693633  0.20102419  1  -1.112046  0.096905  -0.319023  -0.536815  0.061926  2.416511  0.088
O  O294  1  0.14705618  0.96568280  0.70107354  1  -1.112208  0.084942  -0.319097  -0.53641  0.054761  2.419247  0.077
O  O295  1  0.03431832  0.85293404  0.79892977  1  -1.112203  -0.084993  -0.319077  -0.536321  -0.061607  2.41888  -0.077
O  O296  1  0.96357644  0.96383969  0.42048989  1  -1.163591  -0.000276  -0.30981  -0.464245  0.00011  2.311773  0.001
O  O297  1  0.03616403  0.03644137  0.07949882  1  -1.162889  -0.000292  -0.309845  -0.464521  0.0001  2.311642  0.001
O  O298  1  0.03663762  0.03603271  0.57920909  1  -1.163419  -0.000471  -0.309692  -0.465162  -0.000216  2.313567  0.001
O  O299  1  0.96397157  0.96336727  0.92079268  1  -1.163754  0.000478  -0.309658  -0.465246  0.000133  2.313132  -0.001
O  O300  1  0.86587866  0.04009134  0.18837989  1  -1.103387  0.100637  -0.308615  -0.519694  0.064347  2.338592  0.091
O  O301  1  0.95992208  0.13411973  0.31161947  1  -1.103123  0.100644  -0.30859  -0.51959  0.064352  2.338393  0.091
O  O302  1  0.13399664  0.96117772  0.81182222  1  -1.105964  -0.090637  -0.308225  -0.518622  -0.065591  2.341679  -0.082
O  O303  1  0.03881638  0.86600020  0.68818063  1  -1.105864  0.0906  -0.308249  -0.51859  0.058296  2.341965  0.082
O  O304  1  0.94378268  0.65029746  0.43736690  1  -1.101127  0.101054  -0.313513  -0.524156  0.06454  2.317948  0.091
O  O305  1  0.34970580  0.05622075  0.06263020  1  -1.100974  0.101045  -0.313577  -0.524216  0.064533  2.318357  0.091
O  O306  1  0.05636697  0.34964011  0.56276309  1  -1.10186  0.101004  -0.313675  -0.524578  0.0645  2.318842  0.091
O  O307  1  0.65035292  0.94363280  0.93723640  1  -1.102307  0.100989  -0.31367  -0.524589  0.064516  2.318934  0.091
O  O308  1  0.05419110  0.37746033  0.43008238  1  -1.1134  0.091145  -0.312421  -0.526819  0.058285  2.384953  0.083
O  O309  1  0.62253821  0.94580874  0.06991414  1  -1.113234  0.09113  -0.312414  -0.526834  0.058274  2.38508  0.083
O  O310  1  0.94584796  0.62252252  0.57002413  1  -1.11319  0.091114  -0.312241  -0.52684  0.058279  2.384199  0.083
O  O311  1  0.37747911  0.05414437  0.92997488  1  -1.113491  0.091141  -0.312284  -0.526841  0.05831  2.384241  0.083
O  O312  1  0.11950477  0.64283051  0.51482893  1  -1.162084  -0.001333  -0.307998  -0.454697  -0.000516  2.35156  0.0
O  O313  1  0.35717412  0.88048893  0.98516701  1  -1.162016  -0.001362  -0.308034  -0.454635  -0.000515  2.351586  0.0
O  O314  1  0.88074307  0.35703135  0.48522375  1  -1.162107  -0.001346  -0.308062  -0.454569  -0.000528  2.352183  0.0
O  O315  1  0.64295130  0.11927142  0.01476985  1  -1.16209  -0.001437  -0.308101  -0.454639  -0.00059  2.352065  0.0
O  O316  1  0.41658544  0.15578416  0.24042314  1  -1.113783  -0.000409  -0.139783  -0.202225  -0.000256  2.61144  0.0
O  O317  1  0.84419671  0.58341828  0.25958442  1  -1.113735  -0.000408  -0.139815  -0.202269  -0.000256  2.611533  0.0
O  O318  1  0.58322937  0.84436781  0.75948837  1  -1.114301  -0.000175  -0.139594  -0.201784  -0.000112  2.610783  0.0
O  O319  1  0.15563319  0.41677140  0.74051399  1  -1.11421  -0.000348  -0.139553  -0.201837  -0.000223  2.610833  0.0
