# generated using pymatgen
data_K2CaH32C28(S2O13)2
_symmetry_space_group_name_H-M   'P 1'
_cell_length_a   8.08444217
_cell_length_b   9.87814687
_cell_length_c   12.70597790
_cell_angle_alpha   98.44765092
_cell_angle_beta   97.67333166
_cell_angle_gamma   105.05056767
_symmetry_Int_Tables_number   1
_chemical_formula_structural   K2CaH32C28(S2O13)2
_chemical_formula_sum   'K2 Ca1 H32 C28 S4 O26'
_cell_volume   953.47086722
_cell_formula_units_Z   1
loop_
 _symmetry_equiv_pos_site_id
 _symmetry_equiv_pos_as_xyz
  1  'x, y, z'
loop_
 _atom_site_type_symbol
 _atom_site_label
 _atom_site_symmetry_multiplicity
 _atom_site_fract_x
 _atom_site_fract_y
 _atom_site_fract_z
 _atom_site_occupancy
 _atom_site_hle17_bader_spin_density
 _atom_site_hle17_ddec_charge
 _atom_site_hle17_ddec_spin_density
 _atom_site_hle17_ddec_sum_bond_order
 _atom_site_hle17_magmom
 _atom_site_hse06_10hf_bader_spin_density
 _atom_site_hse06_10hf_ddec_charge
 _atom_site_hse06_10hf_ddec_spin_density
 _atom_site_hse06_10hf_ddec_sum_bond_order
 _atom_site_hse06_10hf_magmom
 _atom_site_hse06_bader_spin_density
 _atom_site_hse06_ddec_charge
 _atom_site_hse06_ddec_spin_density
 _atom_site_hse06_ddec_sum_bond_order
 _atom_site_hse06_magmom
 _atom_site_pbe_bader_spin_density
 _atom_site_pbe_cm5_charge
 _atom_site_pbe_ddec_charge
 _atom_site_pbe_ddec_spin_density
 _atom_site_pbe_ddec_sum_bond_order
 _atom_site_pbe_magmom
K  K0  1  0.31422188  0.04054999  0.40815482  1  0  0.933776  0  0.437446  0  0  0.893646  0  0.610313  0  0  0.906346  0  0.588508  0  0  0.748811  0.883498  0  0.626787  0
K  K1  1  0.68577633  0.95945136  0.59184390  1  0  0.93378  0  0.437447  0  0  0.893632  0  0.610342  0  0  0.906338  0  0.588527  0  0  0.748815  0.883491  0  0.626811  0
Ca  Ca2  1  0.00000117  0.50000098  0.50000114  1  0  1.603073  0  1.022646  0  0  1.476886  0  1.36154  0  0  1.515771  0  1.318776  0  0  0.91181  1.447869  0  1.391646  0
H  H3  1  0.51808972  0.69564361  0.78724672  1  0  0.407482  0  0.882329  0  0  0.378445  0  0.954405  0  0  0.391146  0  0.941373  0  0  0.303608  0.369544  0  0.96344  0
H  H4  1  0.48191023  0.30435559  0.21275504  1  0  0.407483  0  0.88236  0  0  0.378518  0  0.954318  0  0  0.391216  0  0.941284  0  0  0.303646  0.369617  0  0.963355  0
H  H5  1  0.64361692  0.76475096  0.06561028  1  0  0.106244  0  0.963766  0  0  0.113561  0  1.031198  0  0  0.116904  0  1.02899  0  0  0.107349  0.111132  0  1.032855  0
H  H6  1  0.35638390  0.23524716  0.93438986  1  0  0.106224  0  0.963765  0  0  0.113544  0  1.031203  0  0  0.116887  0  1.028997  0  0  0.107351  0.111116  0  1.03286  0
H  H7  1  0.62620936  0.77937028  0.25973452  1  0  0.105825  0  0.95695  0  0  0.11458  0  1.019941  0  0  0.118257  0  1.017437  0  0  0.111312  0.111832  0  1.021967  0
H  H8  1  0.37379221  0.22062998  0.74026593  1  0  0.105809  0  0.957007  0  0  0.114583  0  1.019964  0  0  0.118261  0  1.017464  0  0  0.111323  0.111838  0  1.02199  0
H  H9  1  0.10024414  0.50155125  0.17666318  1  0  0.113664  0  0.955918  0  0  0.120072  0  1.021871  0  0  0.12362  0  1.019984  0  0  0.110268  0.117495  0  1.023375  0
H  H10  1  0.89975657  0.49845008  0.82333890  1  0  0.113668  0  0.95591  0  0  0.120075  0  1.021869  0  0  0.123623  0  1.019981  0  0  0.110265  0.117501  0  1.023362  0
H  H11  1  0.12117785  0.48506846  0.97987807  1  0  0.102221  0  0.966828  0  0  0.109864  0  1.033603  0  0  0.113115  0  1.031572  0  0  0.107302  0.107574  0  1.034973  0
H  H12  1  0.87882086  0.51493075  0.02012359  1  0  0.102182  0  0.966827  0  0  0.109845  0  1.033582  0  0  0.113104  0  1.031554  0  0  0.107287  0.107558  0  1.034952  0
H  H13  1  0.98251516  0.82505410  0.22660435  1  0  0.407046  0  0.889012  0  0  0.377665  0  0.961932  0  0  0.390241  0  0.944984  0  0  0.299528  0.368859  0  0.971013  0
H  H14  1  0.01748642  0.17494616  0.77339532  1  0  0.407121  0  0.888973  0  0  0.37775  0  0.961867  0  0  0.390327  0  0.944875  0  0  0.299573  0.368946  0  0.970949  0
H  H15  1  0.21872849  0.47511963  0.69660457  1  0  0.434333  0  0.868246  0  0  0.401239  0  0.935423  0  0  0.412667  0  0.918765  0  0  0.301879  0.393128  0  0.947264  0
H  H16  1  0.78127270  0.52487956  0.30339573  1  0  0.434326  0  0.868259  0  0  0.401229  0  0.935443  0  0  0.412658  0  0.918784  0  0  0.301873  0.393119  0  0.947281  0
H  H17  1  0.30113891  0.40698191  0.60273393  1  0  0.438636  0  0.858911  0  0  0.407387  0  0.922  0  0  0.417877  0  0.906715  0  0  0.307944  0.399939  0  0.932855  0
H  H18  1  0.69886391  0.59301835  0.39726741  1  0  0.43865  0  0.8589  0  0  0.4074  0  0.921991  0  0  0.417891  0  0.906706  0  0  0.307956  0.39995  0  0.93285  0
H  H19  1  0.47416201  0.38236732  0.37112033  1  0  0.432213  0  0.859702  0  0  0.400622  0  0.924661  0  0  0.410728  0  0.909787  0  0  0.304496  0.393372  0  0.935344  0
H  H20  1  0.52583669  0.61763189  0.62887976  1  0  0.432169  0  0.859714  0  0  0.400569  0  0.924728  0  0  0.410675  0  0.909854  0  0  0.304476  0.393319  0  0.935411  0
H  H21  1  0.60404934  0.28751859  0.35825805  1  0  0.428403  0  0.870859  0  0  0.397121  0  0.935336  0  0  0.40761  0  0.919933  0  0  0.304009  0.389624  0  0.946379  0
H  H22  1  0.39595098  0.71248168  0.64174309  1  0  0.428398  0  0.870866  0  0  0.397114  0  0.935346  0  0  0.407603  0  0.919944  0  0  0.304013  0.389617  0  0.946389  0
H  H23  1  0.90451668  0.90148634  0.36715666  1  0  0.412596  0  0.893353  0  0  0.382413  0  0.957246  0  0  0.392402  0  0.942504  0  0  0.297947  0.375156  0  0.967997  0
H  H24  1  0.09548527  0.09851499  0.63284394  1  0  0.412562  0  0.89339  0  0  0.382377  0  0.95729  0  0  0.392366  0  0.942549  0  0  0.297931  0.37512  0  0.968042  0
H  H25  1  0.92665642  0.74626643  0.36492764  1  0  0.430994  0  0.868734  0  0  0.402509  0  0.927469  0  0  0.413225  0  0.911894  0  0  0.300413  0.394773  0  0.938715  0
H  H26  1  0.07334515  0.25373384  0.63507281  1  0  0.430977  0  0.868759  0  0  0.402499  0  0.927487  0  0  0.413216  0  0.911911  0  0  0.300386  0.394763  0  0.938733  0
H  H27  1  0.84692622  0.75213305  0.95385374  1  0  0.105327  0  0.967138  0  0  0.112049  0  1.035506  0  0  0.115622  0  1.032933  0  0  0.106454  0.109529  0  1.037258  0
H  H28  1  0.15306912  0.24786724  0.04614225  1  0  0.105361  0  0.967094  0  0  0.112061  0  1.035474  0  0  0.115631  0  1.032914  0  0  0.106445  0.109546  0  1.037211  0
H  H29  1  0.84420408  0.73910813  0.75693271  1  0  0.112538  0  0.949322  0  0  0.121702  0  1.010115  0  0  0.125372  0  1.008027  0  0  0.115728  0.11902  0  1.011782  0
H  H30  1  0.15579451  0.26089429  0.24306459  1  0  0.112564  0  0.949227  0  0  0.12173  0  1.010025  0  0  0.1254  0  1.007935  0  0  0.115748  0.119047  0  1.011691  0
H  H31  1  0.38616968  0.98222317  0.82300686  1  0  0.112101  0  0.944929  0  0  0.121315  0  1.007176  0  0  0.124908  0  1.004963  0  0  0.113335  0.118651  0  1.008953  0
H  H32  1  0.61382865  0.01777497  0.17699307  1  0  0.112063  0  0.944948  0  0  0.121252  0  1.007227  0  0  0.124826  0  1.005039  0  0  0.113321  0.118601  0  1.008985  0
H  H33  1  0.38284577  0.00079019  0.02196721  1  0  0.100177  0  0.971057  0  0  0.108757  0  1.037133  0  0  0.11201  0  1.035079  0  0  0.107317  0.10645  0  1.038586  0
H  H34  1  0.61715206  0.99921009  0.97803215  1  0  0.100175  0  0.971112  0  0  0.108754  0  1.037201  0  0  0.112004  0  1.035154  0  0  0.10733  0.106448  0  1.038652  0
C  C35  1  0.38064776  0.62557345  0.01064403  1  0  -0.077885  0  3.770487  0  0  -0.056896  0  4.005809  0  0  -0.064978  0  4.030438  0  0  -0.015995  -0.051517  0  3.989174  0
C  C36  1  0.61935182  0.37442468  0.98935758  1  0  -0.078007  0  3.770611  0  0  -0.057004  0  4.005924  0  0  -0.065086  0  4.030553  0  0  -0.016035  -0.051623  0  3.98929  0
C  C37  1  0.52467372  0.70703661  0.08927819  1  0  -0.051405  0  3.687987  0  0  -0.076472  0  3.93873  0  0  -0.076981  0  3.959078  0  0  -0.0753  -0.076119  0  3.925041  0
C  C38  1  0.47532748  0.29296258  0.91072289  1  0  -0.051348  0  3.68796  0  0  -0.076423  0  3.938691  0  0  -0.076932  0  3.959036  0  0  -0.07528  -0.07607  0  3.925007  0
C  C39  1  0.51585886  0.71420877  0.19844839  1  0  -0.057921  0  3.714016  0  0  -0.081727  0  3.966155  0  0  -0.082235  0  3.9848  0  0  -0.077838  -0.081378  0  3.953715  0
C  C40  1  0.48414109  0.28579043  0.80155259  1  0  -0.057943  0  3.714049  0  0  -0.08177  0  3.966198  0  0  -0.082277  0  3.984842  0  0  -0.077895  -0.081425  0  3.953763  0
C  C41  1  0.36304396  0.63948254  0.22888917  1  0  -0.104492  0  3.719204  0  0  -0.082852  0  3.968054  0  0  -0.087501  0  3.988116  0  0  -0.009215  -0.079768  0  3.954661  0
C  C42  1  0.63695674  0.36051879  0.77111211  1  0  -0.104469  0  3.719045  0  0  -0.08283  0  3.967901  0  0  -0.087479  0  3.987962  0  0  -0.009175  -0.079741  0  3.954514  0
C  C43  1  0.21876981  0.55783222  0.15156543  1  0  -0.065637  0  3.724402  0  0  -0.089839  0  3.976874  0  0  -0.090693  0  3.996159  0  0  -0.080442  -0.08937  0  3.96412  0
C  C44  1  0.78123127  0.44217018  0.84843680  1  0  -0.065688  0  3.724148  0  0  -0.089889  0  3.976634  0  0  -0.09074  0  3.995919  0  0  -0.080459  -0.089421  0  3.963888  0
C  C45  1  0.22941273  0.55030923  0.04245201  1  0  -0.056711  0  3.704454  0  0  -0.081503  0  3.955527  0  0  -0.082128  0  3.976084  0  0  -0.076404  -0.080824  0  3.941481  0
C  C46  1  0.77058511  0.44969104  0.95755049  1  0  -0.056581  0  3.704232  0  0  -0.081395  0  3.955274  0  0  -0.082032  0  3.975842  0  0  -0.076378  -0.080717  0  3.941231  0
C  C47  1  0.38091591  0.61913320  0.89286690  1  0  0.659042  0  3.82142  0  0  0.605005  0  4.12355  0  0  0.638093  0  4.116067  0  0  0.236443  0.582465  0  4.128243  0
C  C48  1  0.61908453  0.38086386  0.10713466  1  0  0.659139  0  3.821471  0  0  0.605083  0  4.123616  0  0  0.638173  0  4.11613  0  0  0.236498  0.582542  0  4.128309  0
C  C49  1  0.11795810  0.87424904  0.99961720  1  0  -0.067412  0  3.759448  0  0  -0.045362  0  3.988998  0  0  -0.05245  0  4.013015  0  0  -0.013376  -0.040613  0  3.972828  0
C  C50  1  0.88204211  0.12575444  0.00038272  1  0  -0.067333  0  3.759317  0  0  -0.045279  0  3.988866  0  0  -0.052365  0  4.012881  0  0  -0.01335  -0.040535  0  3.972699  0
C  C51  1  0.96509746  0.80149367  0.92556368  1  0  -0.053818  0  3.698966  0  0  -0.07838  0  3.948856  0  0  -0.079197  0  3.969023  0  0  -0.074879  -0.07783  0  3.935407  0
C  C52  1  0.03489988  0.19850875  0.07443508  1  0  -0.053859  0  3.699004  0  0  -0.078395  0  3.948894  0  0  -0.079219  0  3.969067  0  0  -0.074857  -0.077843  0  3.935448  0
C  C53  1  0.96300039  0.79353272  0.81513830  1  0  -0.060549  0  3.727887  0  0  -0.085528  0  3.980182  0  0  -0.08582  0  3.998752  0  0  -0.075534  -0.085368  0  3.967908  0
C  C54  1  0.03699457  0.20646651  0.18485754  1  0  -0.060623  0  3.727953  0  0  -0.085616  0  3.980242  0  0  -0.085906  0  3.998812  0  0  -0.075622  -0.085456  0  3.967962  0
C  C55  1  0.11490804  0.85746534  0.77907894  1  0  -0.112423  0  3.732967  0  0  -0.089928  0  3.982538  0  0  -0.094966  0  4.003121  0  0  -0.012377  -0.086662  0  3.968959  0
C  C56  1  0.88508979  0.14253494  0.22091962  1  0  -0.112401  0  3.73308  0  0  -0.089865  0  3.982596  0  0  -0.094902  0  4.003173  0  0  -0.012338  -0.086599  0  3.969013  0
C  C57  1  0.26865477  0.93147601  0.85196668  1  0  -0.064796  0  3.7198  0  0  -0.090413  0  3.974294  0  0  -0.090925  0  3.99341  0  0  -0.081697  -0.090051  0  3.961595  0
C  C58  1  0.73134506  0.06852640  0.14803308  1  0  -0.064767  0  3.719771  0  0  -0.090355  0  3.974261  0  0  -0.090854  0  3.993385  0  0  -0.08168  -0.090004  0  3.961553  0
C  C59  1  0.26810381  0.94056231  0.96227533  1  0  -0.061833  0  3.711355  0  0  -0.086458  0  3.962499  0  0  -0.087571  0  3.983028  0  0  -0.078443  -0.085498  0  3.948429  0
C  C60  1  0.73189240  0.05943691  0.03772219  1  0  -0.061823  0  3.711273  0  0  -0.08647  0  3.962465  0  0  -0.087583  0  3.98299  0  0  -0.078459  -0.085511  0  3.948399  0
C  C61  1  0.12440750  0.88380543  0.11850267  1  0  0.654999  0  3.837757  0  0  0.607996  0  4.134345  0  0  0.640181  0  4.127183  0  0  0.229498  0.585971  0  4.138944  0
C  C62  1  0.87559044  0.11619164  0.88149474  1  0  0.655056  0  3.837899  0  0  0.608053  0  4.134489  0  0  0.640238  0  4.127324  0  0  0.229544  0.586031  0  4.139093  0
S  S63  1  0.35979933  0.64579535  0.36923285  1  0  1.353949  0  5.612996  0  0  1.255201  0  6.132743  0  0  1.303583  0  6.107299  0  0  0.539939  1.221741  0  6.149137  0
S  S64  1  0.64020225  0.35420491  0.63076839  1  0  1.354032  0  5.61293  0  0  1.25529  0  6.132671  0  0  1.303669  0  6.107227  0  0  0.539989  1.221829  0  6.149069  0
S  S65  1  0.10925201  0.83978000  0.63729042  1  0  1.319348  0  5.628309  0  0  1.224176  0  6.142196  0  0  1.2717  0  6.118564  0  0  0.534723  1.191255  0  6.157444  0
S  S66  1  0.89074745  0.16022135  0.36270840  1  0  1.319281  0  5.628493  0  0  1.224083  0  6.142393  0  0  1.27161  0  6.118759  0  0  0.534655  1.191162  0  6.15764  0
O  O67  1  0.18173204  0.56555279  0.37629824  1  0  -0.727637  0  1.959182  0  0  -0.667145  0  2.221222  0  0  -0.690309  0  2.205582  0  0  -0.384824  -0.65047  0  2.231296  0
O  O68  1  0.81826829  0.43444747  0.62370289  1  0  -0.727656  0  1.959182  0  0  -0.667177  0  2.221234  0  0  -0.69034  0  2.205593  0  0  -0.384844  -0.650497  0  2.231297  0
O  O69  1  0.48717588  0.57176695  0.40780137  1  0  -0.702516  0  2.027927  0  0  -0.637829  0  2.26777  0  0  -0.660017  0  2.251726  0  0  -0.32484  -0.622092  0  2.27844  0
O  O70  1  0.51282445  0.42823332  0.59219818  1  0  -0.702527  0  2.027872  0  0  -0.637833  0  2.267709  0  0  -0.660021  0  2.25167  0  0  -0.324841  -0.6221  0  2.27838  0
O  O71  1  0.41167619  0.79618457  0.42124994  1  0  -0.723772  0  1.97494  0  0  -0.683762  0  2.2383  0  0  -0.704478  0  2.223266  0  0  -0.436018  -0.66878  0  2.248184  0
O  O72  1  0.58832414  0.20381569  0.57875198  1  0  -0.72382  0  1.974971  0  0  -0.683806  0  2.238323  0  0  -0.704523  0  2.223288  0  0  -0.43603  -0.668824  0  2.248209  0
O  O73  1  0.25051821  0.54940635  0.82432629  1  0  -0.571581  0  1.979976  0  0  -0.519853  0  2.197738  0  0  -0.541298  0  2.188927  0  0  -0.282612  -0.505173  0  2.203752  0
O  O74  1  0.74948223  0.45059071  0.17567448  1  0  -0.571615  0  1.980053  0  0  -0.519892  0  2.19784  0  0  -0.54134  0  2.189032  0  0  -0.282631  -0.50521  0  2.203852  0
O  O75  1  0.52777216  0.69476099  0.86962096  1  0  -0.549068  0  2.10615  0  0  -0.492063  0  2.325683  0  0  -0.515853  0  2.314304  0  0  -0.320518  -0.47547  0  2.3331  0
O  O76  1  0.47222741  0.30523714  0.13037987  1  0  -0.5491  0  2.106059  0  0  -0.492114  0  2.325523  0  0  -0.515901  0  2.314144  0  0  -0.320539  -0.475523  0  2.332942  0
O  O77  1  0.22094764  0.97424544  0.61845574  1  0  -0.683129  0  1.958736  0  0  -0.632836  0  2.201726  0  0  -0.653151  0  2.186556  0  0  -0.347019  -0.618099  0  2.211735  0
O  O78  1  0.77905306  0.02575590  0.38154240  1  0  -0.683103  0  1.958786  0  0  -0.6328  0  2.201774  0  0  -0.653119  0  2.186604  0  0  -0.346987  -0.618059  0  2.211773  0
O  O79  1  0.18228514  0.71825042  0.60735436  1  0  -0.760997  0  2.043797  0  0  -0.693975  0  2.301583  0  0  -0.718206  0  2.286215  0  0  -0.378076  -0.676549  0  2.311705  0
O  O80  1  0.81771518  0.28174985  0.39264599  1  0  -0.761032  0  2.043871  0  0  -0.693994  0  2.301658  0  0  -0.71822  0  2.286278  0  0  -0.378079  -0.676569  0  2.311782  0
O  O81  1  0.92647366  0.80432805  0.58628498  1  0  -0.686959  0  1.945506  0  0  -0.641221  0  2.192811  0  0  -0.661828  0  2.179634  0  0  -0.376868  -0.626437  0  2.201446  0
O  O82  1  0.07352666  0.19567222  0.41371300  1  0  -0.686914  0  1.945502  0  0  -0.641192  0  2.192833  0  0  -0.6618  0  2.179654  0  0  -0.376851  -0.626409  0  2.201465  0
O  O83  1  0.25656688  0.94990571  0.18592565  1  0  -0.601364  0  1.917061  0  0  -0.562968  0  2.137709  0  0  -0.582932  0  2.130757  0  0  -0.354333  -0.549153  0  2.14245  0
O  O84  1  0.74343930  0.05009347  0.81407348  1  0  -0.601385  0  1.917327  0  0  -0.562994  0  2.137999  0  0  -0.582957  0  2.131045  0  0  -0.354345  -0.54918  0  2.142741  0
O  O85  1  0.97486649  0.81400967  0.14334672  1  0  -0.561263  0  2.093338  0  0  -0.507878  0  2.313017  0  0  -0.531297  0  2.298311  0  0  -0.331887  -0.491407  0  2.320593  0
O  O86  1  0.02513546  0.18599166  0.85665310  1  0  -0.561397  0  2.09333  0  0  -0.508014  0  2.313008  0  0  -0.531434  0  2.298267  0  0  -0.331961  -0.491535  0  2.320567  0
O  O87  1  0.18870535  0.41838640  0.62057319  1  0  -0.895144  0  1.86662  0  0  -0.831502  0  2.04864  0  0  -0.854274  0  2.017017  0  0  -0.612354  -0.815066  0  2.070935  0
O  O88  1  0.81129623  0.58161386  0.37942726  1  0  -0.895145  0  1.866587  0  0  -0.831508  0  2.048628  0  0  -0.85428  0  2.017004  0  0  -0.612362  -0.815072  0  2.070926  0
O  O89  1  0.48441577  0.29162347  0.33165440  1  0  -0.827561  0  1.855784  0  0  -0.778823  0  2.02233  0  0  -0.79738  0  1.991993  0  0  -0.604253  -0.765604  0  2.043786  0
O  O90  1  0.51558331  0.70837680  0.66834663  1  0  -0.827551  0  1.855758  0  0  -0.778761  0  2.02235  0  0  -0.79732  0  1.992015  0  0  -0.604231  -0.765541  0  2.043807  0
O  O91  1  0.98036624  0.84133893  0.34705709  1  0  -0.846548  0  1.886004  0  0  -0.798548  0  2.054149  0  0  -0.817014  0  2.022295  0  0  -0.619127  -0.785656  0  2.076418  0
O  O92  1  0.01963571  0.15866240  0.65294351  1  0  -0.846503  0  1.886044  0  0  -0.798514  0  2.054171  0  0  -0.81698  0  2.022308  0  0  -0.619082  -0.785622  0  2.076441  0
