# generated using pymatgen
data_CdH9C13NO4
_symmetry_space_group_name_H-M   'P 1'
_cell_length_a   7.91645492
_cell_length_b   9.84182861
_cell_length_c   9.84185691
_cell_angle_alpha   60.26021026
_cell_angle_beta   75.48062547
_cell_angle_gamma   75.48057085
_symmetry_Int_Tables_number   1
_chemical_formula_structural   CdH9C13NO4
_chemical_formula_sum   'Cd2 H18 C26 N2 O8'
_cell_volume   637.21861612
_cell_formula_units_Z   2
loop_
 _symmetry_equiv_pos_site_id
 _symmetry_equiv_pos_as_xyz
  1  'x, y, z'
loop_
 _atom_site_type_symbol
 _atom_site_label
 _atom_site_symmetry_multiplicity
 _atom_site_fract_x
 _atom_site_fract_y
 _atom_site_fract_z
 _atom_site_occupancy
 _atom_site_hle17_bader_spin_density
 _atom_site_hle17_ddec_charge
 _atom_site_hle17_ddec_spin_density
 _atom_site_hle17_ddec_sum_bond_order
 _atom_site_hle17_magmom
 _atom_site_hse06_10hf_bader_spin_density
 _atom_site_hse06_10hf_ddec_charge
 _atom_site_hse06_10hf_ddec_spin_density
 _atom_site_hse06_10hf_ddec_sum_bond_order
 _atom_site_hse06_10hf_magmom
 _atom_site_hse06_bader_spin_density
 _atom_site_hse06_ddec_charge
 _atom_site_hse06_ddec_spin_density
 _atom_site_hse06_ddec_sum_bond_order
 _atom_site_hse06_magmom
 _atom_site_pbe_bader_spin_density
 _atom_site_pbe_cm5_charge
 _atom_site_pbe_ddec_charge
 _atom_site_pbe_ddec_spin_density
 _atom_site_pbe_ddec_sum_bond_order
 _atom_site_pbe_magmom
Cd  Cd0  1  0.75000041  0.47910159  0.52089994  1  0  1.172983  0  1.609476  0  0  0.990128  0  2.048988  0  0  1.050632  0  1.994936  0  0  0.775916  0.947299  0  2.085646  0
Cd  Cd1  1  0.24999919  0.52089945  0.47910089  1  0  1.172986  0  1.609478  0  0  0.990129  0  2.048989  0  0  1.050635  0  1.994938  0  0  0.775915  0.947295  0  2.085651  0
H  H2  1  0.21391940  0.67708225  0.93838607  1  0  0.102154  0  0.948453  0  0  0.112293  0  1.008211  0  0  0.116085  0  1.005652  0  0  0.104744  0.109422  0  1.010333  0
H  H3  1  0.28608552  0.06161453  0.32291505  1  0  0.102209  0  0.948375  0  0  0.112315  0  1.008174  0  0  0.116106  0  1.005615  0  0  0.104743  0.109439  0  1.010298  0
H  H4  1  0.78608022  0.32291880  0.06161373  1  0  0.102128  0  0.948412  0  0  0.112265  0  1.008184  0  0  0.116056  0  1.005626  0  0  0.104731  0.109395  0  1.010306  0
H  H5  1  0.71391575  0.93838414  0.67708663  1  0  0.102229  0  0.948315  0  0  0.112317  0  1.008131  0  0  0.116108  0  1.005574  0  0  0.104764  0.109456  0  1.01024  0
H  H6  1  0.89924130  0.31879972  0.28098631  1  0  0.102261  0  0.962202  0  0  0.11155  0  1.023506  0  0  0.114661  0  1.021765  0  0  0.102964  0.109055  0  1.025104  0
H  H7  1  0.60075734  0.71901119  0.68120309  1  0  0.102266  0  0.962138  0  0  0.111527  0  1.02349  0  0  0.114638  0  1.02175  0  0  0.10296  0.109031  0  1.02509  0
H  H8  1  0.10075815  0.68120251  0.71901192  1  0  0.102291  0  0.96211  0  0  0.111553  0  1.023463  0  0  0.114662  0  1.021724  0  0  0.102964  0.109055  0  1.025064  0
H  H9  1  0.39924375  0.28098865  0.31879804  1  0  0.102311  0  0.962105  0  0  0.111574  0  1.023453  0  0  0.114683  0  1.021713  0  0  0.102962  0.109076  0  1.025052  0
H  H10  1  0.11909022  0.19108899  0.63044174  1  0  0.094587  0  0.94454  0  0  0.104581  0  1.005228  0  0  0.107103  0  1.00317  0  0  0.118494  0.10269  0  1.006701  0
H  H11  1  0.38090963  0.36955602  0.80891422  1  0  0.094589  0  0.944559  0  0  0.104586  0  1.005239  0  0  0.107073  0  1.003224  0  0  0.118502  0.102694  0  1.006713  0
H  H12  1  0.88090905  0.80891443  0.36955595  1  0  0.094588  0  0.944558  0  0  0.104574  0  1.005248  0  0  0.107069  0  1.003223  0  0  0.118497  0.102677  0  1.006723  0
H  H13  1  0.61909183  0.63044146  0.19108801  1  0  0.094592  0  0.944524  0  0  0.10459  0  1.005204  0  0  0.107092  0  1.003171  0  0  0.118507  0.102698  0  1.006677  0
H  H14  1  0.11737038  0.93276298  0.87841524  1  0  0.100267  0  0.958567  0  0  0.112262  0  1.014302  0  0  0.114517  0  1.015088  0  0  0.107653  0.110832  0  1.013739  0
H  H15  1  0.38263105  0.12158087  0.06723671  1  0  0.10017  0  0.958555  0  0  0.112191  0  1.014263  0  0  0.114447  0  1.015048  0  0  0.107638  0.110762  0  1.013696  0
H  H16  1  0.88262797  0.06723809  0.12158276  1  0  0.100238  0  0.958542  0  0  0.112242  0  1.014267  0  0  0.114496  0  1.015054  0  0  0.107639  0.110808  0  1.013705  0
H  H17  1  0.61737064  0.87841543  0.93276402  1  0  0.100201  0  0.958553  0  0  0.112208  0  1.014277  0  0  0.114462  0  1.015064  0  0  0.10764  0.110773  0  1.013717  0
H  H18  1  0.25000162  0.89631683  0.10367929  1  0  0.112356  0  0.941634  0  0  0.121773  0  1.002362  0  0  0.12471  0  0.99991  0  0  0.110825  0.119411  0  1.004399  0
H  H19  1  0.74999844  0.10368186  0.89631853  1  0  0.112349  0  0.941619  0  0  0.121764  0  1.002351  0  0  0.124712  0  0.999888  0  0  0.110829  0.119404  0  1.004395  0
C  C20  1  0.12045385  0.50293029  0.25260574  1  0  0.626995  0  3.933998  0  0  0.574628  0  4.228185  0  0  0.609214  0  4.222805  0  0  0.193056  0.552046  0  4.229971  0
C  C21  1  0.37954537  0.74739316  0.49707077  1  0  0.627038  0  3.934048  0  0  0.574667  0  4.228235  0  0  0.609255  0  4.222855  0  0  0.193071  0.552087  0  4.230019  0
C  C22  1  0.87954446  0.49707077  0.74739430  1  0  0.627017  0  3.934091  0  0  0.574646  0  4.228272  0  0  0.609233  0  4.222894  0  0  0.193056  0.552068  0  4.230058  0
C  C23  1  0.62045460  0.25260552  0.50293115  1  0  0.627007  0  3.934052  0  0  0.574639  0  4.22824  0  0  0.609226  0  4.222861  0  0  0.193043  0.552059  0  4.230026  0
C  C24  1  0.06102345  0.49928160  0.12204668  1  0  -0.053221  0  3.755531  0  0  -0.029886  0  3.987275  0  0  -0.037059  0  4.01068  0  0  -0.015386  -0.025817  0  3.971888  0
C  C25  1  0.43897834  0.87795194  0.50071798  1  0  -0.053301  0  3.755565  0  0  -0.029956  0  3.987299  0  0  -0.037131  0  4.010706  0  0  -0.015437  -0.025889  0  3.971908  0
C  C26  1  0.93897486  0.50071946  0.87795336  1  0  -0.053295  0  3.755645  0  0  -0.029941  0  3.987368  0  0  -0.037115  0  4.010773  0  0  -0.015408  -0.025877  0  3.971981  0
C  C27  1  0.56102293  0.12204672  0.49928370  1  0  -0.053194  0  3.755588  0  0  -0.029861  0  3.987321  0  0  -0.037035  0  4.010726  0  0  -0.015412  -0.025799  0  3.97194  0
C  C28  1  0.11937789  0.60092149  0.96373341  1  0  -0.07103  0  3.726449  0  0  -0.094538  0  3.975008  0  0  -0.095122  0  3.994498  0  0  -0.081863  -0.093948  0  3.962039  0
C  C29  1  0.38062402  0.03626782  0.39907832  1  0  -0.071047  0  3.726349  0  0  -0.094528  0  3.974906  0  0  -0.095111  0  3.994397  0  0  -0.081874  -0.093931  0  3.961931  0
C  C30  1  0.88062170  0.39907955  0.03626742  1  0  -0.070998  0  3.726394  0  0  -0.094518  0  3.974962  0  0  -0.0951  0  3.994453  0  0  -0.081872  -0.093926  0  3.961992  0
C  C31  1  0.61937687  0.96373321  0.60092227  1  0  -0.071121  0  3.726343  0  0  -0.094586  0  3.974907  0  0  -0.095169  0  3.994398  0  0  -0.081881  -0.094001  0  3.961932  0
C  C32  1  0.05783009  0.60234251  0.84249158  1  0  -0.071344  0  3.726863  0  0  -0.094179  0  3.977212  0  0  -0.095103  0  3.997648  0  0  -0.083609  -0.093468  0  3.963739  0
C  C33  1  0.44217102  0.15750775  0.39765935  1  0  -0.071429  0  3.726855  0  0  -0.094252  0  3.977201  0  0  -0.095176  0  3.997637  0  0  -0.083586  -0.093545  0  3.963727  0
C  C34  1  0.94216694  0.39765857  0.15750768  1  0  -0.071324  0  3.726887  0  0  -0.094164  0  3.977213  0  0  -0.095089  0  3.997648  0  0  -0.083604  -0.09346  0  3.963742  0
C  C35  1  0.55783153  0.84249090  0.60234312  1  0  -0.071289  0  3.726793  0  0  -0.094117  0  3.97713  0  0  -0.095039  0  3.997564  0  0  -0.083592  -0.09341  0  3.963661  0
C  C36  1  0.17746274  0.16916315  0.73007711  1  0  0.124566  0  3.69516  0  0  0.092097  0  3.94468  0  0  0.098851  0  3.9655  0  0  0.045614  0.088004  0  3.930072  0
C  C37  1  0.32253848  0.26992142  0.83083660  1  0  0.124575  0  3.695141  0  0  0.092102  0  3.944664  0  0  0.098881  0  3.965492  0  0  0.045637  0.088008  0  3.930056  0
C  C38  1  0.82253821  0.83083789  0.26992143  1  0  0.124548  0  3.695103  0  0  0.09209  0  3.944624  0  0  0.098863  0  3.965447  0  0  0.045592  0.088005  0  3.930005  0
C  C39  1  0.67746412  0.73007724  0.16916382  1  0  0.124575  0  3.695176  0  0  0.092112  0  3.944689  0  0  0.098879  0  3.965515  0  0  0.045609  0.088017  0  3.930076  0
C  C40  1  0.17708886  0.02616542  0.86846782  1  0  -0.119526  0  3.740599  0  0  -0.129426  0  3.988972  0  0  -0.137412  0  4.011957  0  0  -0.081762  -0.124333  0  3.973331  0
C  C41  1  0.32291107  0.13152849  0.97383340  1  0  -0.11941  0  3.740404  0  0  -0.129318  0  3.988755  0  0  -0.137303  0  4.011729  0  0  -0.081776  -0.124222  0  3.973106  0
C  C42  1  0.82290936  0.97383683  0.13152758  1  0  -0.119493  0  3.740454  0  0  -0.129386  0  3.988814  0  0  -0.137371  0  4.011793  0  0  -0.081726  -0.12429  0  3.97317  0
C  C43  1  0.67709046  0.86846900  0.02616576  1  0  -0.119475  0  3.740462  0  0  -0.129368  0  3.988819  0  0  -0.137352  0  4.011801  0  0  -0.081748  -0.124265  0  3.973171  0
C  C44  1  0.25000134  0.00666788  0.99332839  1  0  -0.005409  0  3.70857  0  0  -0.024696  0  3.956243  0  0  -0.020056  0  3.973473  0  0  -0.060951  -0.027812  0  3.945111  0
C  C45  1  0.74999870  0.99333080  0.00667046  1  0  -0.005371  0  3.708546  0  0  -0.024674  0  3.956239  0  0  -0.020044  0  3.973464  0  0  -0.060988  -0.0278  0  3.945119  0
N  N46  1  0.24999998  0.28855254  0.71144697  1  0  -0.353681  0  3.303954  0  0  -0.269571  0  3.56586  0  0  -0.293457  0  3.58962  0  0  -0.335212  -0.253601  0  3.549259  0
N  N47  1  0.75000110  0.71144731  0.28855417  1  0  -0.353656  0  3.304021  0  0  -0.26956  0  3.565928  0  0  -0.293444  0  3.589678  0  0  -0.335196  -0.253595  0  3.549323  0
O  O48  1  0.23379504  0.59133711  0.21825914  1  0  -0.613559  0  1.932665  0  0  -0.552085  0  2.168359  0  0  -0.579777  0  2.158109  0  0  -0.322047  -0.532045  0  2.174088  0
O  O49  1  0.26620692  0.78173965  0.40866282  1  0  -0.613559  0  1.932722  0  0  -0.552087  0  2.168425  0  0  -0.579774  0  2.158171  0  0  -0.322033  -0.532048  0  2.174153  0
O  O50  1  0.76620458  0.40866393  0.78174066  1  0  -0.613527  0  1.932794  0  0  -0.552053  0  2.16848  0  0  -0.579741  0  2.15823  0  0  -0.322013  -0.532015  0  2.174213  0
O  O51  1  0.73379285  0.21826021  0.59133855  1  0  -0.613523  0  1.932775  0  0  -0.552053  0  2.16847  0  0  -0.579742  0  2.158224  0  0  -0.322007  -0.532016  0  2.174203  0
O  O52  1  0.94426311  0.58321057  0.60353337  1  0  -0.685334  0  2.045522  0  0  -0.616149  0  2.305359  0  0  -0.646907  0  2.294961  0  0  -0.333146  -0.595113  0  2.311767  0
O  O53  1  0.55573709  0.39646592  0.41679110  1  0  -0.685318  0  2.045467  0  0  -0.616144  0  2.305315  0  0  -0.646902  0  2.294917  0  0  -0.333144  -0.595108  0  2.311722  0
O  O54  1  0.05573671  0.41678930  0.39646596  1  0  -0.685309  0  2.045521  0  0  -0.616137  0  2.305374  0  0  -0.646898  0  2.294981  0  0  -0.333136  -0.5951  0  2.311783  0
O  O55  1  0.44426419  0.60353274  0.58321058  1  0  -0.685338  0  2.045536  0  0  -0.616167  0  2.305394  0  0  -0.646924  0  2.294993  0  0  -0.33316  -0.595133  0  2.311805  0
