# generated using pymatgen
data_Zn2P2H10C6N2O7
_symmetry_space_group_name_H-M   'P 1'
_cell_length_a   9.40050321
_cell_length_b   10.46735830
_cell_length_c   13.51470000
_cell_angle_alpha   107.91135034
_cell_angle_beta   90.00000000
_cell_angle_gamma   90.00000000
_symmetry_Int_Tables_number   1
_chemical_formula_structural   Zn2P2H10C6N2O7
_chemical_formula_sum   'Zn8 P8 H40 C24 N8 O28'
_cell_volume   1265.37335083
_cell_formula_units_Z   4
loop_
 _symmetry_equiv_pos_site_id
 _symmetry_equiv_pos_as_xyz
  1  'x, y, z'
loop_
 _atom_site_type_symbol
 _atom_site_label
 _atom_site_symmetry_multiplicity
 _atom_site_fract_x
 _atom_site_fract_y
 _atom_site_fract_z
 _atom_site_occupancy
 _atom_site_hle17_bader_spin_density
 _atom_site_hle17_ddec_charge
 _atom_site_hle17_ddec_spin_density
 _atom_site_hle17_ddec_sum_bond_order
 _atom_site_hle17_magmom
 _atom_site_hse06_10hf_bader_spin_density
 _atom_site_hse06_10hf_ddec_charge
 _atom_site_hse06_10hf_ddec_spin_density
 _atom_site_hse06_10hf_ddec_sum_bond_order
 _atom_site_hse06_10hf_magmom
 _atom_site_hse06_bader_spin_density
 _atom_site_hse06_ddec_charge
 _atom_site_hse06_ddec_spin_density
 _atom_site_hse06_ddec_sum_bond_order
 _atom_site_hse06_magmom
 _atom_site_pbe_bader_charge
 _atom_site_pbe_bader_spin_density
 _atom_site_pbe_cm5_charge
 _atom_site_pbe_ddec_charge
 _atom_site_pbe_ddec_spin_density
 _atom_site_pbe_ddec_sum_bond_order
 _atom_site_pbe_magmom
Zn  Zn0  1  0.60872486  0.23499700  0.76163946  1  0  1.118707  0  1.880725  0  0  0.943606  0  2.365006  0  0  0.986  0  2.306334  0  1.291036  0  0.709778  0.913543  0  2.405755  0
Zn  Zn1  1  0.10872397  0.26500290  0.23836144  1  0  1.118666  0  1.880784  0  0  0.94356  0  2.365074  0  0  0.985957  0  2.306399  0  1.291046  0  0.709755  0.913498  0  2.405822  0
Zn  Zn2  1  0.39127480  0.76500279  0.23836012  1  0  1.118678  0  1.880803  0  0  0.943571  0  2.365093  0  0  0.985968  0  2.306416  0  1.291037  0  0.709745  0.91351  0  2.40584  0
Zn  Zn3  1  0.89127463  0.73499690  0.76163888  1  0  1.118714  0  1.88073  0  0  0.943616  0  2.365011  0  0  0.986008  0  2.306336  0  1.291039  0  0.709774  0.913552  0  2.405759  0
Zn  Zn4  1  0.60115186  0.87368507  0.58616942  1  0  1.247319  0  1.767399  0  0  1.079571  0  2.253858  0  0  1.12228  0  2.191034  0  1.340598  0  0.702277  1.047811  0  2.298439  0
Zn  Zn5  1  0.10115203  0.62631462  0.41383032  1  0  1.247323  0  1.767397  0  0  1.079585  0  2.253861  0  0  1.12229  0  2.191036  0  1.34039  0  0.702281  1.047825  0  2.298441  0
Zn  Zn6  1  0.39884886  0.12631473  0.41383016  1  0  1.247301  0  1.767389  0  0  1.07959  0  2.253854  0  0  1.122292  0  2.191027  0  1.340391  0  0.702284  1.047828  0  2.298435  0
Zn  Zn7  1  0.89884869  0.37368517  0.58616926  1  0  1.247313  0  1.767383  0  0  1.079593  0  2.25385  0  0  1.122299  0  2.191023  0  1.340593  0  0.702272  1.047833  0  2.298431  0
P  P8  1  0.69172148  0.12660991  0.52246226  1  0  1.741487  0  4.991532  0  0  1.557344  0  5.504186  0  0  1.615158  0  5.452264  0  3.649991  0  0.378035  1.516003  0  5.540069  0
P  P9  1  0.19172165  0.37338999  0.47753716  1  0  1.741508  0  4.991567  0  0  1.557376  0  5.504216  0  0  1.615183  0  5.452293  0  3.650014  0  0.378024  1.516034  0  5.5401  0
P  P10  1  0.30827818  0.87338989  0.47753732  1  0  1.741537  0  4.991589  0  0  1.557426  0  5.504213  0  0  1.615231  0  5.452294  0  3.649986  0  0.378037  1.516085  0  5.540097  0
P  P11  1  0.80827801  0.62660980  0.52246242  1  0  1.741432  0  4.991614  0  0  1.557286  0  5.504276  0  0  1.615092  0  5.452356  0  3.649997  0  0.378013  1.515945  0  5.540158  0
P  P12  1  0.71920512  0.99470564  0.82453487  1  0  1.410308  0  4.99729  0  0  1.227274  0  5.503206  0  0  1.277108  0  5.467107  0  3.370063  0  0.265491  1.192261  0  5.527156  0
P  P13  1  0.21920422  0.50529405  0.17546487  1  0  1.410295  0  4.997215  0  0  1.227254  0  5.503132  0  0  1.277087  0  5.467038  0  3.370065  0  0.265529  1.192241  0  5.527079  0
P  P14  1  0.28079454  0.00529415  0.17546471  1  0  1.410288  0  4.997247  0  0  1.227251  0  5.503161  0  0  1.277082  0  5.467069  0  3.370063  0  0.265502  1.192237  0  5.527111  0
P  P15  1  0.78079437  0.49470574  0.82453471  1  0  1.410276  0  4.997183  0  0  1.227251  0  5.503098  0  0  1.277085  0  5.467005  0  3.370066  0  0.26551  1.192238  0  5.527046  0
H  H16  1  0.64986415  0.00243473  0.91911606  1  0  -0.160745  0  0.883096  0  0  -0.128686  0  0.966839  0  0  -0.132659  0  0.962635  0  -0.464606  0  0.077391  -0.12593  0  0.96942  0
H  H17  1  0.14986432  0.49756517  0.08088262  1  0  -0.160753  0  0.883093  0  0  -0.128692  0  0.966838  0  0  -0.132663  0  0.96263  0  -0.464618  0  0.077381  -0.125936  0  0.969418  0
H  H18  1  0.35013551  0.99756406  0.08088328  1  0  -0.160748  0  0.883099  0  0  -0.128687  0  0.966843  0  0  -0.132659  0  0.962636  0  -0.464607  0  0.07739  -0.12593  0  0.969422  0
H  H19  1  0.85013534  0.50243463  0.91911696  1  0  -0.160741  0  0.883085  0  0  -0.128678  0  0.966823  0  0  -0.13265  0  0.962616  0  -0.464602  0  0.077392  -0.125921  0  0.969403  0
H  H20  1  0.46710585  0.21225312  0.95356775  1  0  0.075074  0  0.938934  0  0  0.085704  0  1.002531  0  0  0.087541  0  1.001118  0  0.067905  0  0.119217  0.08425  0  1.003541  0
H  H21  1  0.96710567  0.28774678  0.04643241  1  0  0.075057  0  0.938952  0  0  0.08569  0  1.002547  0  0  0.087526  0  1.001133  0  0.068099  0  0.119217  0.084236  0  1.003556  0
H  H22  1  0.53289488  0.78774667  0.04643257  1  0  0.075053  0  0.938974  0  0  0.08567  0  1.002583  0  0  0.087507  0  1.00117  0  0.067904  0  0.119202  0.084216  0  1.003593  0
H  H23  1  0.03289398  0.71225302  0.95356717  1  0  0.075065  0  0.938968  0  0  0.085686  0  1.002572  0  0  0.087523  0  1.001158  0  0.068077  0  0.119206  0.084232  0  1.003581  0
H  H24  1  0.22447203  0.15868608  0.00482584  1  0  0.112729  0  0.96609  0  0  0.119683  0  1.030391  0  0  0.122893  0  1.029398  0  0.124471  0  0.107908  0.117111  0  1.031601  0
H  H25  1  0.72447292  0.34131382  0.99517432  1  0  0.112715  0  0.966106  0  0  0.119668  0  1.030411  0  0  0.122879  0  1.029417  0  0.12449  0  0.107898  0.117097  0  1.03162  0
H  H26  1  0.77552870  0.84131472  0.99517398  1  0  0.112717  0  0.9661  0  0  0.11965  0  1.030428  0  0  0.122861  0  1.029433  0  0.124472  0  0.1079  0.117079  0  1.031635  0
H  H27  1  0.27552780  0.65868597  0.00482600  1  0  0.112728  0  0.966098  0  0  0.119681  0  1.030402  0  0  0.122891  0  1.029409  0  0.124489  0  0.107905  0.117109  0  1.031612  0
H  H28  1  0.02845911  0.11189411  0.87102694  1  0  0.117524  0  0.952168  0  0  0.128005  0  1.01063  0  0  0.131243  0  1.00808  0  0.120229  0  0.111818  0.125994  0  1.011806  0
H  H29  1  0.52845894  0.38810579  0.12897322  1  0  0.117515  0  0.952135  0  0  0.127995  0  1.010597  0  0  0.131231  0  1.008044  0  0.120206  0  0.111808  0.125984  0  1.011772  0
H  H30  1  0.97154161  0.88810669  0.12897362  1  0  0.117547  0  0.952153  0  0  0.128011  0  1.01063  0  0  0.131252  0  1.008081  0  0.120258  0  0.111815  0.126  0  1.011806  0
H  H31  1  0.47154178  0.61189400  0.87102636  1  0  0.117515  0  0.952129  0  0  0.127998  0  1.010586  0  0  0.13124  0  1.008036  0  0.120222  0  0.111806  0.125988  0  1.011762  0
H  H32  1  0.33277793  0.18268798  0.65468167  1  0  0.102806  0  0.939052  0  0  0.107401  0  1.008614  0  0  0.110374  0  1.005579  0  0.164024  0  0.124152  0.104951  0  1.011165  0
H  H33  1  0.83277776  0.31731091  0.34531751  1  0  0.102769  0  0.939066  0  0  0.107377  0  1.008608  0  0  0.110349  0  1.005574  0  0.164018  0  0.12416  0.104927  0  1.011159  0
H  H34  1  0.66722173  0.81731181  0.34531791  1  0  0.102825  0  0.939032  0  0  0.10742  0  1.008594  0  0  0.110394  0  1.005559  0  0.164031  0  0.12416  0.10497  0  1.011145  0
H  H35  1  0.16722190  0.68268788  0.65468183  1  0  0.102812  0  0.939028  0  0  0.107414  0  1.00859  0  0  0.110388  0  1.005554  0  0.164013  0  0.124158  0.104965  0  1.011141  0
H  H36  1  0.96438667  0.19732447  0.70302737  1  0  0.09772  0  0.945736  0  0  0.11103  0  1.00957  0  0  0.112117  0  1.00865  0  0.129361  0  0.115657  0.109986  0  1.010535  0
H  H37  1  0.46438684  0.30267442  0.29697255  1  0  0.097716  0  0.9457  0  0  0.111024  0  1.009537  0  0  0.112104  0  1.008613  0  0.129362  0  0.11564  0.109979  0  1.010502  0
H  H38  1  0.03561299  0.80267432  0.29697271  1  0  0.097741  0  0.945659  0  0  0.111055  0  1.009489  0  0  0.112135  0  1.008565  0  0.129359  0  0.115664  0.110011  0  1.010454  0
H  H39  1  0.53561282  0.69732436  0.70302753  1  0  0.097734  0  0.945697  0  0  0.111047  0  1.009524  0  0  0.112125  0  1.008598  0  0.129365  0  0.115672  0.110002  0  1.010489  0
H  H40  1  0.09412156  0.14644617  0.60239201  1  0  0.094263  0  0.926379  0  0  0.106832  0  0.990023  0  0  0.10839  0  0.988841  0  0.126843  0  0.117822  0.105587  0  0.991027  0
H  H41  1  0.59412139  0.35355373  0.39760815  1  0  0.094242  0  0.926353  0  0  0.10681  0  0.99  0  0  0.108361  0  0.988815  0  0.126838  0  0.117813  0.105564  0  0.991007  0
H  H42  1  0.90587917  0.85355463  0.39760855  1  0  0.094225  0  0.926369  0  0  0.106808  0  0.990006  0  0  0.108359  0  0.98882  0  0.126837  0  0.117818  0.105561  0  0.991013  0
H  H43  1  0.40587934  0.64644607  0.60239143  1  0  0.094236  0  0.926351  0  0  0.10682  0  0.989986  0  0  0.108368  0  0.988798  0  0.126843  0  0.117814  0.105572  0  0.990994  0
H  H44  1  0.89375109  0.98817454  0.59816767  1  0  0.342287  0  0.889046  0  0  0.321361  0  0.949754  0  0  0.329828  0  0.943559  0  0.529612  0  0.305115  0.315309  0  0.954243  0
H  H45  1  0.39375126  0.51182515  0.40183207  1  0  0.342285  0  0.889059  0  0  0.321358  0  0.949769  0  0  0.329822  0  0.943576  0  0.529611  0  0.305115  0.315306  0  0.954256  0
H  H46  1  0.10624963  0.01182525  0.40183265  1  0  0.342283  0  0.88907  0  0  0.32137  0  0.949769  0  0  0.329835  0  0.943576  0  0.529606  0  0.305104  0.315317  0  0.954263  0
H  H47  1  0.60624946  0.48817465  0.59816751  1  0  0.342269  0  0.889071  0  0  0.321345  0  0.949782  0  0  0.329809  0  0.94359  0  0.529607  0  0.305113  0.315292  0  0.954273  0
H  H48  1  0.96211871  0.95972185  0.70329953  1  0  0.319007  0  0.877899  0  0  0.302417  0  0.93663  0  0  0.309414  0  0.931504  0  0.498807  0  0.311096  0.297474  0  0.94025  0
H  H49  1  0.46211888  0.54027784  0.29670021  1  0  0.319007  0  0.877899  0  0  0.30242  0  0.93662  0  0  0.309419  0  0.931493  0  0.498805  0  0.311101  0.297478  0  0.94024  0
H  H50  1  0.03788095  0.04027794  0.29670079  1  0  0.319017  0  0.877899  0  0  0.30243  0  0.936624  0  0  0.309426  0  0.9315  0  0.498811  0  0.311093  0.297488  0  0.940244  0
H  H51  1  0.53788078  0.45972195  0.70329937  1  0  0.319009  0  0.877902  0  0  0.302419  0  0.936631  0  0  0.309417  0  0.931507  0  0.498809  0  0.311106  0.297478  0  0.94025  0
H  H52  1  0.05895110  0.91641882  0.59107429  1  0  0.345233  0  0.874079  0  0  0.323775  0  0.933382  0  0  0.332335  0  0.92714  0  0.521077  0  0.305652  0.31766  0  0.937967  0
H  H53  1  0.55895093  0.58358087  0.40892545  1  0  0.345229  0  0.874005  0  0  0.323763  0  0.933328  0  0  0.332323  0  0.927086  0  0.52108  0  0.305648  0.317647  0  0.937913  0
H  H54  1  0.94104962  0.08358097  0.40892603  1  0  0.345216  0  0.874  0  0  0.323764  0  0.93331  0  0  0.332325  0  0.927067  0  0.521078  0  0.305644  0.317649  0  0.937895  0
H  H55  1  0.44104979  0.41641892  0.59107413  1  0  0.345197  0  0.874013  0  0  0.323744  0  0.933322  0  0  0.332304  0  0.92708  0  0.521079  0  0.305641  0.317629  0  0.937907  0
C  C56  1  0.37893397  0.19266385  0.89851203  1  0  0.13261  0  3.701748  0  0  0.099194  0  3.948763  0  0  0.106073  0  3.968198  0  0.499352  0  0.052233  0.094805  0  3.935664  0
C  C57  1  0.87893486  0.30733505  0.10148789  1  0  0.132659  0  3.701866  0  0  0.099242  0  3.948878  0  0  0.106121  0  3.968313  0  0.499138  0  0.052254  0.094853  0  3.935779  0
C  C58  1  0.62106569  0.80733595  0.10148829  1  0  0.132769  0  3.701909  0  0  0.099372  0  3.9489  0  0  0.106251  0  3.968334  0  0.499348  0  0.052307  0.094982  0  3.935802  0
C  C59  1  0.12106586  0.69266475  0.89851169  1  0  0.132701  0  3.701907  0  0  0.099293  0  3.948902  0  0  0.106172  0  3.968335  0  0.49918  0  0.052275  0.094904  0  3.935801  0
C  C60  1  0.24386460  0.16180153  0.92619955  1  0  -0.117494  0  3.74453  0  0  -0.127415  0  3.994666  0  0  -0.135463  0  4.017542  0  -0.024513  0  -0.081316  -0.122206  0  3.979453  0
C  C61  1  0.74386550  0.33819737  0.07379963  1  0  -0.117495  0  3.744529  0  0  -0.127426  0  3.994675  0  0  -0.135475  0  4.01755  0  -0.024528  0  -0.081319  -0.122216  0  3.979462  0
C  C62  1  0.75613505  0.83819827  0.07380077  1  0  -0.117504  0  3.744549  0  0  -0.127413  0  3.994685  0  0  -0.135461  0  4.017563  0  -0.024509  0  -0.081304  -0.122204  0  3.979474  0
C  C63  1  0.25613522  0.66180243  0.92619995  1  0  -0.117525  0  3.744533  0  0  -0.127448  0  3.994666  0  0  -0.135497  0  4.017543  0  -0.024539  0  -0.081309  -0.122239  0  3.979454  0
C  C64  1  0.13552679  0.13776950  0.85229754  1  0  -0.045045  0  3.658139  0  0  -0.071034  0  3.89668  0  0  -0.067876  0  3.915409  0  -0.068606  0  -0.060583  -0.072607  0  3.883319  0
C  C65  1  0.63552768  0.36223040  0.14770262  1  0  -0.045025  0  3.658128  0  0  -0.070982  0  3.896685  0  0  -0.067822  0  3.915416  0  -0.068554  0  -0.060553  -0.072555  0  3.883323  0
C  C66  1  0.86447394  0.86223130  0.14770376  1  0  -0.045076  0  3.658177  0  0  -0.071023  0  3.896732  0  0  -0.06787  0  3.915466  0  -0.068603  0  -0.060575  -0.072596  0  3.883371  0
C  C67  1  0.36447304  0.63776940  0.85229622  1  0  -0.045019  0  3.658129  0  0  -0.070982  0  3.896681  0  0  -0.067829  0  3.915417  0  -0.068548  0  -0.060556  -0.072555  0  3.883319  0
C  C68  1  0.30377310  0.17632556  0.73114273  1  0  0.114982  0  3.632244  0  0  0.07615  0  3.874979  0  0  0.083257  0  3.892711  0  0.442974  0  0.062275  0.071355  0  3.863635  0
C  C69  1  0.80377293  0.32367434  0.26885743  1  0  0.11502  0  3.632138  0  0  0.076196  0  3.874914  0  0  0.083304  0  3.892648  0  0.443037  0  0.062277  0.0714  0  3.863571  0
C  C70  1  0.69622762  0.82367423  0.26885759  1  0  0.114978  0  3.632173  0  0  0.076162  0  3.874931  0  0  0.08327  0  3.892665  0  0.442959  0  0.062263  0.071368  0  3.863588  0
C  C71  1  0.19622673  0.67632546  0.73114215  1  0  0.115012  0  3.632126  0  0  0.076172  0  3.874907  0  0  0.083278  0  3.892641  0  0.442963  0  0.062274  0.071376  0  3.863563  0
C  C72  1  0.16523584  0.14559979  0.75283156  1  0  0.03437  0  3.700426  0  0  0.061809  0  3.936112  0  0  0.05593  0  3.960943  0  0.016401  0  0.004328  0.064993  0  3.920068  0
C  C73  1  0.66523566  0.35440011  0.24716860  1  0  0.034379  0  3.700481  0  0  0.061748  0  3.936258  0  0  0.055857  0  3.961085  0  0.016335  0  0.004333  0.064931  0  3.920214  0
C  C74  1  0.83476382  0.85440001  0.24716876  1  0  0.03438  0  3.700513  0  0  0.061752  0  3.936282  0  0  0.055862  0  3.96111  0  0.016382  0  0.004333  0.064935  0  3.920239  0
C  C75  1  0.33476399  0.64559968  0.75283098  1  0  0.034357  0  3.700485  0  0  0.061739  0  3.936259  0  0  0.055844  0  3.961083  0  0.016373  0  0.004328  0.064922  0  3.920216  0
C  C76  1  0.05156001  0.12671533  0.67168121  1  0  0.029135  0  3.568828  0  0  -0.037994  0  3.820616  0  0  -0.033252  0  3.830806  0  0.20779  0  -0.056724  -0.041315  0  3.814518  0
C  C77  1  0.55156090  0.37328457  0.32831895  1  0  0.029161  0  3.568806  0  0  -0.037944  0  3.820611  0  0  -0.033168  0  3.830756  0  0.207789  0  -0.056712  -0.041263  0  3.814509  0
C  C78  1  0.94843965  0.87328447  0.32831911  1  0  0.029155  0  3.568775  0  0  -0.037974  0  3.820596  0  0  -0.033194  0  3.830736  0  0.207788  0  -0.056761  -0.041292  0  3.814494  0
C  C79  1  0.44843876  0.62671623  0.67168161  1  0  0.02915  0  3.568809  0  0  -0.037981  0  3.820628  0  0  -0.033186  0  3.830747  0  0.207775  0  -0.056758  -0.041299  0  3.814525  0
N  N80  1  0.40818453  0.19926924  0.80258641  1  0  -0.340768  0  3.331468  0  0  -0.255695  0  3.611906  0  0  -0.27497  0  3.626322  0  -1.248578  0  -0.330463  -0.24307  0  3.602366  0
N  N81  1  0.90818436  0.30073066  0.19741301  1  0  -0.340789  0  3.331556  0  0  -0.255706  0  3.611992  0  0  -0.274984  0  3.626407  0  -1.248583  0  -0.330474  -0.243081  0  3.602453  0
N  N82  1  0.59181619  0.80073156  0.19741341  1  0  -0.340886  0  3.331563  0  0  -0.255814  0  3.611996  0  0  -0.275091  0  3.62641  0  -1.24857  0  -0.330503  -0.243189  0  3.602458  0
N  N83  1  0.09181636  0.69926914  0.80258657  1  0  -0.340859  0  3.331533  0  0  -0.25577  0  3.611955  0  0  -0.275046  0  3.626369  0  -1.248578  0  -0.330496  -0.243144  0  3.602414  0
N  N84  1  0.99011295  0.98870265  0.63927477  1  0  -0.493319  0  3.165383  0  0  -0.438523  0  3.365996  0  0  -0.455042  0  3.364964  0  -1.166372  0  -0.609179  -0.427329  0  3.367441  0
N  N85  1  0.49011206  0.51129704  0.36072497  1  0  -0.493303  0  3.165307  0  0  -0.438506  0  3.365924  0  0  -0.455034  0  3.364883  0  -1.166367  0  -0.609169  -0.427312  0  3.367368  0
N  N86  1  0.00988777  0.01129714  0.36072555  1  0  -0.493326  0  3.165342  0  0  -0.438525  0  3.365929  0  0  -0.455056  0  3.364888  0  -1.166369  0  -0.609135  -0.427334  0  3.367372  0
N  N87  1  0.50988760  0.48870276  0.63927461  1  0  -0.493267  0  3.165319  0  0  -0.438471  0  3.365928  0  0  -0.455005  0  3.364879  0  -1.166361  0  -0.609158  -0.427279  0  3.367369  0
O  O88  1  0.86662063  0.93081133  0.82870089  1  0  -0.849442  0  2.025458  0  0  -0.750623  0  2.307554  0  0  -0.778518  0  2.284152  0  -1.451084  0  -0.389652  -0.730601  0  2.323381  0
O  O89  1  0.36661974  0.56918836  0.17129959  1  0  -0.849452  0  2.02543  0  0  -0.750627  0  2.307526  0  0  -0.778524  0  2.284125  0  -1.451069  0  -0.38967  -0.730605  0  2.323353  0
O  O90  1  0.13337903  0.06918846  0.17129869  1  0  -0.849435  0  2.02545  0  0  -0.750623  0  2.307555  0  0  -0.778516  0  2.284156  0  -1.451088  0  -0.389662  -0.7306  0  2.323385  0
O  O91  1  0.63337886  0.43081143  0.82870073  1  0  -0.849442  0  2.025465  0  0  -0.750625  0  2.30756  0  0  -0.778521  0  2.284162  0  -1.451089  0  -0.389657  -0.730602  0  2.323389  0
O  O92  1  0.60860891  0.22005228  0.61574056  1  0  -0.93431  0  2.027824  0  0  -0.836215  0  2.338336  0  0  -0.863978  0  2.308336  0  -1.449532  0  -0.398157  -0.816077  0  2.358413  0
O  O93  1  0.10860802  0.27994761  0.38426034  1  0  -0.93431  0  2.027811  0  0  -0.836214  0  2.33831  0  0  -0.863977  0  2.30831  0  -1.449571  0  -0.398159  -0.816077  0  2.358388  0
O  O94  1  0.39139288  0.77994851  0.38426000  1  0  -0.934324  0  2.027763  0  0  -0.83624  0  2.338292  0  0  -0.864003  0  2.308291  0  -1.449537  0  -0.39816  -0.816105  0  2.358374  0
O  O95  1  0.89139164  0.72005218  0.61573999  1  0  -0.934304  0  2.027813  0  0  -0.836214  0  2.338334  0  0  -0.863976  0  2.308334  0  -1.44954  0  -0.398156  -0.816077  0  2.358413  0
O  O96  1  0.74245068  0.13985985  0.82289320  1  0  -0.844112  0  2.033562  0  0  -0.747616  0  2.337764  0  0  -0.775511  0  2.313236  0  -1.438901  0  -0.389814  -0.727329  0  2.353824  0
O  O97  1  0.24244872  0.36013904  0.17710598  1  0  -0.844076  0  2.033534  0  0  -0.747582  0  2.337748  0  0  -0.775478  0  2.313223  0  -1.438902  0  -0.389827  -0.727294  0  2.353805  0
O  O98  1  0.25755004  0.86013894  0.17710688  1  0  -0.844105  0  2.033561  0  0  -0.747607  0  2.337773  0  0  -0.775502  0  2.313248  0  -1.4389  0  -0.389822  -0.727318  0  2.353831  0
O  O99  1  0.75754987  0.63986075  0.82289360  1  0  -0.844119  0  2.033531  0  0  -0.747626  0  2.337737  0  0  -0.77552  0  2.313211  0  -1.438899  0  -0.389847  -0.727337  0  2.353796  0
O  O100  1  0.62196670  0.90946704  0.73892966  1  0  -0.865544  0  2.065769  0  0  -0.770075  0  2.36625  0  0  -0.797171  0  2.340145  0  -1.459194  0  -0.382277  -0.750262  0  2.383309  0
O  O101  1  0.12196581  0.59053265  0.26107008  1  0  -0.86553  0  2.065781  0  0  -0.77005  0  2.366247  0  0  -0.797146  0  2.340145  0  -1.458994  0  -0.382273  -0.750242  0  2.383318  0
O  O102  1  0.37803402  0.09053275  0.26106992  1  0  -0.865523  0  2.065763  0  0  -0.770044  0  2.366227  0  0  -0.797138  0  2.340122  0  -1.458981  0  -0.382266  -0.750234  0  2.383295  0
O  O103  1  0.87803385  0.40946715  0.73892950  1  0  -0.865514  0  2.065726  0  0  -0.770058  0  2.366195  0  0  -0.797152  0  2.340089  0  -1.459189  0  -0.382274  -0.750254  0  2.383275  0
O  O104  1  0.60094549  0.09705582  0.42318369  1  0  -0.915395  0  1.965892  0  0  -0.821543  0  2.265941  0  0  -0.851324  0  2.239379  0  -1.437448  0  -0.39485  -0.79969  0  2.283824  0
O  O105  1  0.10094566  0.40294408  0.57681647  1  0  -0.915413  0  1.965903  0  0  -0.821564  0  2.265955  0  0  -0.851348  0  2.239394  0  -1.437439  0  -0.394846  -0.799711  0  2.283837  0
O  O106  1  0.39905417  0.90294398  0.57681589  1  0  -0.915417  0  1.965907  0  0  -0.821562  0  2.265951  0  0  -0.851345  0  2.239392  0  -1.437441  0  -0.394838  -0.79971  0  2.283834  0
O  O107  1  0.89905506  0.59705571  0.42318385  1  0  -0.915378  0  1.965885  0  0  -0.821536  0  2.265951  0  0  -0.85132  0  2.239392  0  -1.43744  0  -0.394852  -0.799684  0  2.283834  0
O  O108  1  0.83538719  0.19181044  0.50523750  1  0  -0.926666  0  1.985415  0  0  -0.823702  0  2.273623  0  0  -0.85324  0  2.247184  0  -1.446399  0  -0.388725  -0.801871  0  2.292187  0
O  O109  1  0.33538736  0.30818946  0.49476192  1  0  -0.926679  0  1.985484  0  0  -0.823687  0  2.273635  0  0  -0.853223  0  2.247193  0  -1.446395  0  -0.388712  -0.801855  0  2.292198  0
O  O110  1  0.16461353  0.80818936  0.49476208  1  0  -0.926691  0  1.985483  0  0  -0.82369  0  2.273654  0  0  -0.853224  0  2.247211  0  -1.446399  0  -0.388711  -0.80186  0  2.292217  0
O  O111  1  0.66461229  0.69181033  0.50523692  1  0  -0.926676  0  1.98556  0  0  -0.82364  0  2.273688  0  0  -0.853175  0  2.247247  0  -1.446403  0  -0.388685  -0.801809  0  2.292251  0
O  O112  1  0.73443834  0.99262031  0.54370858  1  0  -0.942708  0  2.032143  0  0  -0.842052  0  2.324319  0  0  -0.870955  0  2.29697  0  -1.445305  0  -0.388516  -0.820819  0  2.343167  0
O  O113  1  0.23443851  0.50737938  0.45629116  1  0  -0.942727  0  2.032163  0  0  -0.842086  0  2.324371  0  0  -0.870975  0  2.297008  0  -1.445296  0  -0.388512  -0.820853  0  2.343217  0
O  O114  1  0.26556238  0.00737949  0.45629174  1  0  -0.942663  0  2.03214  0  0  -0.842096  0  2.324397  0  0  -0.870985  0  2.297037  0  -1.445299  0  -0.388515  -0.820861  0  2.343244  0
O  O115  1  0.76556221  0.49262041  0.54370916  1  0  -0.942689  0  2.032164  0  0  -0.842059  0  2.324363  0  0  -0.870947  0  2.297004  0  -1.445308  0  -0.388521  -0.820825  0  2.34321  0
