# generated using pymatgen
data_Mn3H20C22(NO7)2
_symmetry_space_group_name_H-M   'P 1'
_cell_length_a   5.96595222
_cell_length_b   9.37766383
_cell_length_c   11.81196430
_cell_angle_alpha   68.64336804
_cell_angle_beta   81.40693207
_cell_angle_gamma   76.69393301
_symmetry_Int_Tables_number   1
_chemical_formula_structural   Mn3H20C22(NO7)2
_chemical_formula_sum   'Mn3 H20 C22 N2 O14'
_cell_volume   597.36826296
_cell_formula_units_Z   1
loop_
 _symmetry_equiv_pos_site_id
 _symmetry_equiv_pos_as_xyz
  1  'x, y, z'
loop_
 _atom_site_type_symbol
 _atom_site_label
 _atom_site_symmetry_multiplicity
 _atom_site_fract_x
 _atom_site_fract_y
 _atom_site_fract_z
 _atom_site_occupancy
 _atom_site_hle17_ddec_charge
 _atom_site_hle17_ddec_spin_density
 _atom_site_hle17_ddec_sum_bond_order
 _atom_site_hle17_magmom
 _atom_site_hse06_10hf_ddec_charge
 _atom_site_hse06_10hf_ddec_spin_density
 _atom_site_hse06_10hf_ddec_sum_bond_order
 _atom_site_hse06_10hf_magmom
 _atom_site_hse06_ddec_charge
 _atom_site_hse06_ddec_spin_density
 _atom_site_hse06_ddec_sum_bond_order
 _atom_site_hse06_magmom
 _atom_site_pbe_cm5_charge
 _atom_site_pbe_ddec_charge
 _atom_site_pbe_ddec_spin_density
 _atom_site_pbe_ddec_sum_bond_order
 _atom_site_pbe_magmom
Mn  Mn0  1  0.49920890  0.50012914  0.50035037  1  1.298709  4.797242  1.69367  4.697  1.157883  4.71487  2.190574  4.557  1.210339  4.75927  2.115552  4.617  0.608043  1.117592  4.666788  2.245914  4.495
Mn  Mn1  1  0.99716829  0.84303312  0.63554272  1  1.227515  -4.779789  1.756958  -4.664  1.052219  -4.696899  2.270285  -4.518  1.117814  -4.751381  2.192829  -4.588  0.615843  0.9993  -4.637251  2.329658  -4.446
Mn  Mn2  1  0.00301236  0.15702607  0.36413168  1  1.227784  4.776682  1.752463  4.666  1.052332  4.698906  2.263571  4.524  1.117485  4.748866  2.187006  4.59  0.616062  1.000244  4.645389  2.321793  4.455
H  H3  1  0.25624286  0.51308101  0.11667727  1  0.106477  -0.000353  0.93032  0.0  0.118674  -0.000265  0.984339  0.0  0.122359  -0.000302  0.981562  0.0  0.108833  0.115803  -0.000206  0.986665  0.0
H  H4  1  0.74318859  0.48688720  0.88348395  1  0.106577  0.000253  0.930046  0.0  0.118591  0.000213  0.984291  0.0  0.122285  0.000245  0.981496  0.0  0.108811  0.115709  0.000173  0.98664  0.0
H  H5  1  0.34019546  0.71039480  0.91921749  1  0.103214  0.000232  0.960625  0.0  0.116733  0.000111  1.016693  0.0  0.119557  0.000145  1.016328  0.0  0.104734  0.114323  6.6e-05  1.017652  0.0
H  H6  1  0.65955145  0.28933085  0.08086640  1  0.103305  -0.000181  0.960545  0.0  0.116886  -4.6e-05  1.016534  0.0  0.119716  -9.7e-05  1.01617  0.0  0.104867  0.114439  2.4e-05  1.017515  0.0
H  H7  1  0.63455064  0.95832612  0.93405425  1  0.083728  0.000199  1.013216  0.0  0.096167  0.000178  1.076431  0.0  0.098928  0.000163  1.075188  0.0  0.095876  0.094043  0.000219  1.077751  0.0
H  H8  1  0.36539237  0.04182388  0.06574874  1  0.083885  -0.000148  1.012845  0.0  0.096296  -8.4e-05  1.076069  0.0  0.099091  -9.2e-05  1.074783  0.0  0.095868  0.094046  -7.5e-05  1.077584  0.0
H  H9  1  0.55634256  0.75550005  0.12907917  1  0.092824  -0.000287  0.96714  0.0  0.101539  -0.000202  1.034002  0.0  0.104722  -0.000231  1.031573  0.0  0.101236  0.098921  -0.000124  1.036296  0.0
H  H10  1  0.44327923  0.24475614  0.87078484  1  0.092953  -8.9e-05  0.966561  0.0  0.101648  -0.000179  1.033442  0.0  0.104798  -0.000194  1.031096  0.0  0.101376  0.099067  -0.000182  1.035662  0.0
H  H11  1  0.35870956  0.97355612  0.85279839  1  0.086218  0.000242  0.97161  0.0  0.097071  7.6e-05  1.043797  0.0  0.097997  0.000147  1.044053  0.0  0.106972  0.096567  2.6e-05  1.043706  0.0
H  H12  1  0.64182406  0.02580659  0.14745672  1  0.086298  -0.000219  0.97153  0.0  0.097143  -3.6e-05  1.043914  0.0  0.098064  -0.000118  1.044119  0.0  0.106779  0.096654  5.5e-05  1.043797  0.0
H  H13  1  0.28062782  0.11309399  0.70990567  1  0.13109  -0.000191  0.906891  0.0  0.147618  -0.000423  0.961989  0.0  0.149783  -0.000346  0.960905  0.0  0.130267  0.145917  -0.000509  0.963092  -0.001
H  H14  1  0.71997994  0.88678733  0.29052740  1  0.131081  -0.000223  0.906821  0.0  0.147688  -1.2e-05  0.961938  0.0  0.149794  -0.000155  0.960884  0.0  0.13028  0.145992  0.00019  0.963055  0.001
H  H15  1  0.89911491  0.19762232  0.79901303  1  0.100681  0.000173  0.946634  0.0  0.112971  0.000433  1.010947  0.0  0.113286  0.000331  1.012715  0.0  0.108849  0.112886  0.000695  1.009545  0.001
H  H16  1  0.10156821  0.80266437  0.20048530  1  0.10121  -0.000296  0.94584  0.0  0.113248  -0.000294  1.010436  0.0  0.113645  -0.000317  1.012191  0.0  0.108948  0.11304  -0.000308  1.009104  0.0
H  H17  1  0.69974155  0.09268261  0.78275670  1  0.106831  0.000486  0.962017  0.0  0.120815  0.000814  1.024071  0.001  0.122771  0.000673  1.022403  0.001  0.120607  0.119284  0.001089  1.025559  0.001
H  H18  1  0.30068439  0.90741448  0.21722836  1  0.106331  2.3e-05  0.962494  0.0  0.120318  0.000144  1.024596  0.0  0.122332  -1e-05  1.022934  0.0  0.120398  0.118712  0.000319  1.026137  0.001
H  H19  1  0.55071271  0.72862647  0.57157080  1  0.42131  0.00045  0.884984  0.001  0.388255  0.000947  0.952156  0.001  0.399806  0.00084  0.935398  0.001  0.296817  0.380098  0.001036  0.963921  0.001
H  H20  1  0.44927089  0.27141329  0.42876819  1  0.42133  -0.00051  0.884991  0.001  0.388666  0.000335  0.95159  0.002  0.400177  1.6e-05  0.93488  0.001  0.297094  0.380547  0.000608  0.963302  0.002
H  H21  1  0.79898409  0.62900124  0.56519815  1  0.433464  0.000163  0.841097  0.001  0.406491  0.00059  0.910975  0.002  0.415867  0.00041  0.897338  0.002  0.310375  0.399846  0.000753  0.919738  0.002
H  H22  1  0.20098536  0.37113337  0.43449528  1  0.433747  -0.000451  0.840409  0.001  0.406643  0.000374  0.910849  0.002  0.416024  7.6e-05  0.897199  0.001  0.310254  0.399991  0.000676  0.919352  0.002
C  C23  1  0.85058601  0.51127598  0.26132629  1  0.688275  0.011809  3.870558  0.012  0.635651  0.019318  4.164679  0.018  0.672678  0.01458  4.155841  0.015  0.226089  0.608947  0.025128  4.170869  0.023
C  C24  1  0.14897333  0.48910088  0.73884397  1  0.688175  -0.003469  3.869745  -0.003  0.634917  -0.004638  4.164592  -0.003  0.672305  -0.003235  4.155502  -0.002  0.225659  0.607739  -0.007017  4.171117  -0.005
C  C25  1  0.90092386  0.62228468  0.13717389  1  -0.107255  -0.002065  3.790946  -0.002  -0.086996  -0.001876  4.0282  -0.001  -0.097552  -0.002108  4.050927  -0.001  -0.033832  -0.081049  -0.001939  4.014351  -0.002
C  C26  1  0.09862582  0.37792185  0.86284299  1  -0.107053  0.003387  3.792208  0.003  -0.086665  0.003362  4.029749  0.003  -0.09728  0.00303  4.052332  0.002  -0.033805  -0.080672  0.004047  4.01611  0.003
C  C27  1  0.12033380  0.61089512  0.07517270  1  -0.033531  0.00369  3.740402  0.003  -0.057747  0.003322  3.991929  0.003  -0.053577  0.003082  4.009677  0.003  -0.077816  -0.060265  0.003976  3.979845  0.004
C  C28  1  0.87926152  0.38914114  0.92490448  1  -0.033434  -0.001879  3.740214  -0.002  -0.0576  -0.000777  3.991764  -0.001  -0.053334  -0.000981  4.009391  -0.001  -0.077738  -0.060243  -0.000961  3.979839  -0.001
C  C29  1  0.16725693  0.72380690  0.96397820  1  -0.181773  -0.00403  3.727447  -0.004  -0.202438  -0.003767  3.986482  -0.003  -0.210331  -0.003467  4.00784  -0.003  -0.101779  -0.196295  -0.004418  3.971421  -0.003
C  C30  1  0.83258250  0.27611419  0.03608789  1  -0.181733  0.003539  3.727706  0.003  -0.202293  0.003596  3.986727  0.003  -0.210188  0.003107  4.008001  0.002  -0.101614  -0.196162  0.004447  3.971805  0.003
C  C31  1  0.99420418  0.85300351  0.91011446  1  0.206848  0.002038  3.759649  0.003  0.200321  -0.000451  4.009137  0.002  0.211259  5.6e-05  4.02926  0.002  0.100032  0.192396  -0.000356  3.994707  0.002
C  C32  1  0.00581434  0.14701943  0.08991227  1  0.207419  -0.000893  3.759988  -0.002  0.200421  0.002192  4.009959  0.0  0.211445  0.00139  4.029946  -0.001  0.099874  0.192384  0.002445  3.995706  0.0
C  C33  1  0.77279888  0.86104838  0.97152373  1  -0.175593  -0.002787  3.759542  -0.003  -0.197059  -0.001815  4.015659  -0.002  -0.204126  -0.001886  4.036555  -0.002  -0.107935  -0.192707  -0.002309  4.001992  -0.002
C  C34  1  0.22704418  0.13910328  0.02837632  1  -0.175323  0.002135  3.759366  0.002  -0.196702  0.001425  4.015692  0.001  -0.203758  0.001358  4.036478  0.001  -0.107657  -0.192362  0.002045  4.002259  0.002
C  C35  1  0.72778429  0.74774720  0.08189590  1  -0.054261  0.003526  3.780439  0.003  -0.077271  0.00319  4.029068  0.003  -0.073908  0.002907  4.048211  0.003  -0.088141  -0.079059  0.00399  4.017286  0.004
C  C36  1  0.27185848  0.25247980  0.91800024  1  -0.05384  -0.002796  3.778943  -0.002  -0.076931  -0.001972  4.027828  -0.002  -0.073484  -0.001927  4.046869  -0.002  -0.088089  -0.078874  -0.002299  4.016196  -0.002
C  C37  1  0.28015573  0.99134931  0.76919791  1  -0.187344  -0.000821  3.676788  -0.001  -0.247405  -0.001476  3.929051  -0.001  -0.248748  -0.000995  3.937054  -0.001  -0.063923  -0.246523  -0.001865  3.923529  -0.001
C  C38  1  0.72030930  0.00848213  0.23098010  1  -0.187155  0.000835  3.676091  0.001  -0.247947  0.001655  3.929174  0.001  -0.249055  0.001074  3.936845  0.001  -0.06413  -0.247157  0.002189  3.923805  0.001
C  C39  1  0.44039752  0.89210558  0.70208034  1  0.719739  -0.007877  3.817622  -0.009  0.665634  -0.013765  4.116814  -0.014  0.701504  -0.010392  4.108323  -0.012  0.238522  0.640611  -0.017236  4.121544  -0.017
C  C40  1  0.55980961  0.10793288  0.29787898  1  0.719315  0.007861  3.8189  0.009  0.665452  0.013915  4.117841  0.014  0.70122  0.010443  4.109369  0.012  0.238466  0.640536  0.01744  4.122522  0.017
C  C41  1  0.87594619  0.11444053  0.75778884  1  -0.176545  0.002267  3.662199  0.002  -0.238026  0.002402  3.91498  0.002  -0.238326  0.001824  3.921571  0.002  -0.064008  -0.237488  0.003101  3.91005  0.003
C  C42  1  0.12448160  0.88557016  0.24207063  1  -0.175999  -0.001865  3.662904  -0.002  -0.237464  -0.000813  3.915529  -0.001  -0.238002  -0.000889  3.922322  -0.001  -0.064027  -0.236777  -0.000793  3.910676  -0.001
C  C43  1  0.88362793  0.19193730  0.61986147  1  0.729215  0.011381  3.796259  0.012  0.675273  0.017543  4.094037  0.017  0.711772  0.0134  4.085452  0.013  0.241293  0.649059  0.022006  4.099343  0.02
C  C44  1  0.11659680  0.80752282  0.37998620  1  0.728428  0.008633  3.796625  0.009  0.67538  0.012682  4.093176  0.013  0.712021  0.009459  4.084551  0.01  0.240943  0.648891  0.016849  4.098701  0.016
N  N45  1  0.04159539  0.96724443  0.79739156  1  -0.184528  -0.015222  3.391611  -0.009  -0.098938  -0.018491  3.624764  -0.011  -0.11826  -0.016951  3.646495  -0.01  -0.291061  -0.084019  -0.02023  3.608615  -0.013
N  N46  1  0.95883031  0.03275494  0.20273984  1  -0.185704  0.015767  3.392579  0.01  -0.099898  0.019423  3.626234  0.012  -0.119181  0.017637  3.647887  0.01  -0.291327  -0.085076  0.021553  3.610247  0.014
O  O47  1  0.00965697  0.39058670  0.30397527  1  -0.704225  0.040627  2.086898  0.026  -0.634419  0.049094  2.370038  0.03  -0.665808  0.042602  2.35017  0.023  -0.328978  -0.609883  0.055053  2.383093  0.035
O  O48  1  0.98997909  0.60977812  0.69612668  1  -0.70296  -0.038594  2.087302  -0.023  -0.633602  -0.044067  2.371407  -0.023  -0.665164  -0.039187  2.351387  -0.018  -0.328715  -0.608843  -0.048369  2.384643  -0.027
O  O49  1  0.65819804  0.54349069  0.31691748  1  -0.64546  0.032786  2.032426  0.021  -0.589128  0.04175  2.299482  0.027  -0.617315  0.036742  2.28447  0.022  -0.303495  -0.569082  0.047432  2.310165  0.032
O  O50  1  0.34161602  0.45719056  0.68324073  1  -0.646576  0.024156  2.034603  0.011  -0.589892  0.027407  2.30254  0.01  -0.618168  0.025948  2.287323  0.009  -0.303956  -0.569736  0.028216  2.313454  0.011
O  O51  1  0.65122749  0.89736097  0.69577989  1  -0.642912  -0.034796  2.0872  -0.02  -0.573309  -0.043392  2.365797  -0.024  -0.605261  -0.039008  2.350442  -0.021  -0.3049  -0.549276  -0.047673  2.376059  -0.028
O  O52  1  0.34901354  0.10289139  0.30382851  1  -0.642652  0.03479  2.087857  0.02  -0.572956  0.043642  2.365886  0.025  -0.60486  0.039076  2.350721  0.021  -0.304892  -0.54902  0.048133  2.375939  0.029
O  O53  1  0.35633316  0.81417580  0.65571203  1  -0.645363  -0.033961  2.091752  -0.021  -0.565964  -0.04107  2.343819  -0.025  -0.598652  -0.03699  2.329477  -0.021  -0.287105  -0.541772  -0.04488  2.353254  -0.029
O  O54  1  0.64379864  0.18563940  0.34445126  1  -0.64517  0.033501  2.091681  0.021  -0.565614  0.040776  2.343163  0.026  -0.598102  0.036464  2.328769  0.022  -0.287015  -0.541651  0.044963  2.352627  0.03
O  O55  1  0.96787852  0.10262573  0.55638461  1  -0.688539  0.014228  2.149171  0.011  -0.603875  0.017749  2.440466  0.012  -0.640621  0.014634  2.423024  0.009  -0.301405  -0.575947  0.020691  2.452358  0.015
O  O56  1  0.03384400  0.89661694  0.44376652  1  -0.68763  -0.008753  2.148528  -0.004  -0.604218  -0.006611  2.44067  0.0  -0.640781  -0.006219  2.422915  0.001  -0.300913  -0.576247  -0.006354  2.452793  0.0
O  O57  1  0.80243610  0.33463014  0.57716942  1  -0.625559  0.023316  2.029933  0.008  -0.563764  0.031185  2.289929  0.012  -0.591124  0.028119  2.274197  0.01  -0.291387  -0.543372  0.034187  2.300491  0.015
O  O58  1  0.19636871  0.66454704  0.42231894  1  -0.625308  0.025024  2.030422  0.01  -0.564005  0.032477  2.29032  0.013  -0.591444  0.029312  2.274631  0.011  -0.291475  -0.543573  0.035444  2.300931  0.016
O  O59  1  0.66004092  0.67631930  0.51909397  1  -0.835298  0.029855  1.8653  0.018  -0.778024  0.03711  2.07676  0.021  -0.801868  0.033855  2.04213  0.019  -0.564262  -0.759811  0.040072  2.100022  0.024
O  O60  1  0.33946809  0.32377088  0.48096725  1  -0.835253  0.031247  1.864934  0.019  -0.778794  0.04021  2.076542  0.024  -0.802564  0.036197  2.041995  0.021  -0.564684  -0.760644  0.043838  2.09946  0.027
