# generated using pymatgen
data_ZnH8C22N2(Cl2O5)2
_symmetry_space_group_name_H-M   'P 1'
_cell_length_a   14.49697266
_cell_length_b   15.09477121
_cell_length_c   16.78523441
_cell_angle_alpha   87.34037403
_cell_angle_beta   84.77002022
_cell_angle_gamma   89.17547197
_symmetry_Int_Tables_number   1
_chemical_formula_structural   ZnH8C22N2(Cl2O5)2
_chemical_formula_sum   'Zn2 H16 C44 N4 Cl8 O20'
_cell_volume   3653.66507346
_cell_formula_units_Z   2
loop_
 _symmetry_equiv_pos_site_id
 _symmetry_equiv_pos_as_xyz
  1  'x, y, z'
loop_
 _atom_site_type_symbol
 _atom_site_label
 _atom_site_symmetry_multiplicity
 _atom_site_fract_x
 _atom_site_fract_y
 _atom_site_fract_z
 _atom_site_occupancy
 _atom_site_pbe_bader_charge
 _atom_site_pbe_bader_spin_density
 _atom_site_pbe_cm5_charge
 _atom_site_pbe_ddec_charge
 _atom_site_pbe_ddec_spin_density
 _atom_site_pbe_ddec_sum_bond_order
 _atom_site_pbe_magmom
Zn  Zn0  1  0.60107384  0.51357283  0.49852841  1  1.323422  0  0.68656  0.877198  0  2.310851  0
Zn  Zn1  1  0.39351020  0.50962405  0.49624718  1  1.322316  0  0.687885  0.880684  0  2.300141  0
H  H2  1  0.05118203  0.46977230  0.61609372  1  0.117305  0  0.123278  0.136054  0  0.979019  0
H  H3  1  0.92562270  0.39636789  0.56982710  1  0.104552  0  0.122399  0.136006  0  0.982208  0
H  H4  1  0.28245043  0.51990025  0.24017681  1  0.622593  0  0.358502  0.401139  0  0.820981  0
H  H5  1  0.73716225  0.27494902  0.63833844  1  0.624068  0  0.357769  0.397511  0  0.828047  0
H  H6  1  0.22249426  0.43805563  0.74013133  1  0.635146  0  0.349853  0.390874  0  0.843522  0
H  H7  1  0.73875792  0.77001011  0.38601643  1  0.61643  0  0.35916  0.400283  0  0.823768  0
H  H8  1  0.32689894  0.73857906  0.35997975  1  0.652168  0  0.316477  0.383023  0  0.920639  0
H  H9  1  0.76211181  0.25599188  0.37267226  1  0.633136  0  0.345691  0.385502  0  0.843518  0
H  H10  1  0.93565457  0.63566019  0.41760507  1  0.118118  0  0.124536  0.139242  0  0.971725  0
H  H11  1  0.63266962  0.53280530  0.24137338  1  0.145718  0  0.115524  0.149646  0  0.987816  0
H  H12  1  0.39995943  0.36702407  0.72577714  1  0.108118  0  0.107742  0.128455  0  1.013673  0
H  H13  1  0.62615797  0.93208801  0.59868569  1  0.065965  0  0.10565  0.112298  0  0.98144  0
H  H14  1  0.40438029  0.07765139  0.64127724  1  0.075592  0  0.110281  0.118211  0  0.97556  0
H  H15  1  0.62645592  0.77014095  0.57442236  1  0.120568  0  0.107063  0.117267  0  0.993274  0
H  H16  1  0.41058467  0.24278249  0.62687181  1  0.095198  0  0.109369  0.123658  0  0.995468  0
H  H17  1  0.07719882  0.55258346  0.36535103  1  0.129451  0  0.123046  0.135182  0  0.974757  0
C  C18  1  0.50664749  0.68066999  0.49721281  1  1.582386  0  0.220642  0.605988  0  4.146809  0
C  C19  1  0.57140726  0.09992890  0.48623231  1  0.020407  0  0.020617  0.083704  0  3.982161  0
C  C20  1  0.49955131  0.95941638  0.54420500  1  0.074348  0  -0.013358  0.018169  0  4.016931  0
C  C21  1  0.50885609  0.05723515  0.54420394  1  0.03924  0  -0.0128  0.012106  0  4.01892  0
C  C22  1  0.10581582  0.53409662  0.42166815  1  0.026704  0  -0.063483  -0.182041  0  3.878797  0
C  C23  1  0.89327058  0.45092907  0.53756509  1  0.109949  0  -0.065198  -0.183531  0  3.879624  0
C  C24  1  0.20184363  0.52946871  0.42365085  1  0.518087  0  0.145128  0.162322  0  3.883847  0
C  C25  1  0.79691281  0.45622669  0.54182550  1  0.45141  0  0.139132  0.159463  0  3.897557  0
C  C26  1  0.18769504  0.47971139  0.55598402  1  0.501215  0  0.143808  0.165454  0  3.877744  0
C  C27  1  0.80235598  0.57955165  0.45519020  1  0.500111  0  0.142072  0.155584  0  3.902795  0
C  C28  1  0.09145751  0.48627817  0.55952857  1  0.07904  0  -0.060989  -0.17597  0  3.871961  0
C  C29  1  0.52129133  0.34280354  0.52219576  1  1.595935  0  0.218559  0.600249  0  4.168265  0
C  C30  1  0.89894692  0.58176192  0.45175774  1  0.070645  0  -0.064378  -0.183273  0  3.877386  0
C  C31  1  0.04836748  0.51298249  0.49110483  1  -0.065484  0  0.024865  0.126692  0  3.985748  0
C  C32  1  0.94643775  0.51550220  0.49286467  1  -0.067767  0  0.022601  0.123297  0  3.986251  0
C  C33  1  0.50391460  0.47380684  0.35004063  1  1.613266  0  0.2261  0.621392  0  4.13922  0
C  C34  1  0.45435795  0.51831492  0.64877249  1  1.64146  0  0.217788  0.611599  0  4.179124  0
C  C35  1  0.51610951  0.44658573  0.26460360  1  0.046255  0  -0.002774  -0.025336  0  3.914266  0
C  C36  1  0.45015489  0.49909001  0.73770506  1  0.064351  0  -0.010061  -0.036126  0  3.952242  0
C  C37  1  0.45944593  0.38436278  0.23283690  1  0.147227  0  0.010573  0.058724  0  4.018741  0
C  C38  1  0.47977237  0.56033790  0.78982739  1  0.092794  0  0.010984  0.067083  0  4.024914  0
C  C39  1  0.46526330  0.37465285  0.14954547  1  0.088186  0  0.014824  0.037695  0  3.996347  0
C  C40  1  0.57025809  0.81317922  0.55667021  1  -0.063964  0  -0.089079  -0.095469  0  4.002749  0
C  C41  1  0.48623066  0.53559183  0.87087003  1  0.111528  0  0.015887  0.037261  0  3.990219  0
C  C42  1  0.52855265  0.42648996  0.09769101  1  0.44319  0  0.07971  0.0554  0  3.996158  0
C  C43  1  0.46200102  0.44859294  0.90007128  1  0.466923  0  0.079953  0.060179  0  4.028985  0
C  C44  1  0.59353214  0.47804603  0.13292608  1  0.06842  0  0.023574  0.111068  0  4.016533  0
C  C45  1  0.42811630  0.38991180  0.84709386  1  0.028035  0  0.012597  0.092964  0  4.051005  0
C  C46  1  0.58584437  0.48917216  0.21493300  1  0.020673  0  -0.086385  -0.15772  0  3.944884  0
C  C47  1  0.42284518  0.41438884  0.76675022  1  0.007669  0  -0.100516  -0.184047  0  3.99815  0
C  C48  1  0.56965541  0.90325519  0.57024941  1  0.001653  0  -0.09162  -0.125525  0  4.017825  0
C  C49  1  0.45333772  0.10990506  0.59629764  1  0.010531  0  -0.083593  -0.113497  0  3.998316  0
C  C50  1  0.25674989  0.55781931  0.34575261  1  1.589866  0  0.254123  0.574261  0  4.111792  0
C  C51  1  0.45738798  0.20198041  0.58912086  1  -0.036135  0  -0.083038  -0.094766  0  3.97171  0
C  C52  1  0.74463321  0.39564751  0.60370160  1  1.585091  0  0.236189  0.544688  0  4.155875  0
C  C53  1  0.22603347  0.43294406  0.62766869  1  1.583682  0  0.238905  0.549901  0  4.153873  0
C  C54  1  0.75606621  0.64615155  0.40131897  1  1.559016  0  0.240223  0.551562  0  4.1442  0
C  C55  1  0.34609905  0.79115216  0.45754963  1  1.594273  0  0.221565  0.602178  0  4.167675  0
C  C56  1  0.63833596  0.23668854  0.41225496  1  1.540892  0  0.22821  0.594882  0  4.14294  0
C  C57  1  0.49964604  0.77652322  0.51738937  1  0.02852  0  -0.009323  -0.039475  0  3.931119  0
C  C58  1  0.51963788  0.24352366  0.53117376  1  -0.011923  0  -0.004719  -0.023646  0  3.943095  0
C  C59  1  0.42465542  0.83015371  0.49667473  1  0.024587  0  -0.004428  -0.081255  0  3.909207  0
C  C60  1  0.57844270  0.19249924  0.47990528  1  0.071643  0  -0.012575  -0.103223  0  3.937184  0
C  C61  1  0.42568080  0.92106705  0.50979468  1  0.026794  0  0.021245  0.081151  0  3.985046  0
N  N62  1  0.53264557  0.43717258  0.01377082  1  -0.441814  0  -0.142005  -0.086893  0  3.324087  0
N  N63  1  0.45913799  0.42188958  0.98188537  1  -0.441164  0  -0.147532  -0.10012  0  3.320442  0
N  N64  1  0.24369500  0.50271438  0.48944004  1  -1.184537  0  -0.269579  -0.226861  0  3.333047  0
N  N65  1  0.75090806  0.51854711  0.50002609  1  -1.186793  0  -0.274608  -0.231129  0  3.361178  0
Cl  Cl66  1  0.50701681  0.66620309  0.75362110  1  -0.176938  0  -0.002639  -0.051303  0  1.537059  0
Cl  Cl67  1  0.38670932  0.31754154  0.29477843  1  -0.15826  0  0.00302  -0.032714  0  1.605568  0
Cl  Cl68  1  0.51731201  0.61376146  0.93431183  1  -0.159895  0  -0.00254  -0.054244  0  1.612144  0
Cl  Cl69  1  0.39832013  0.29647954  0.11225309  1  -0.147718  0  -0.001818  -0.058448  0  1.625927  0
Cl  Cl70  1  0.68032467  0.53319955  0.07448573  1  -0.173842  0  -0.014516  -0.08039  0  1.493175  0
Cl  Cl71  1  0.39665387  0.28415605  0.88206232  1  -0.189514  0  -0.020694  -0.078901  0  1.458675  0
Cl  Cl72  1  0.33758837  0.98812711  0.47684789  1  -0.201364  0  -0.005538  -0.067626  0  1.479405  0
Cl  Cl73  1  0.63588326  0.03763914  0.41634869  1  -0.207548  0  -0.012254  -0.078479  0  1.498216  0
O  O74  1  0.58809884  0.64657390  0.49321120  1  -1.163292  0  -0.318144  -0.556391  0  2.373026  0
O  O75  1  0.24684640  0.49862745  0.28982320  1  -1.099057  0  -0.314964  -0.46525  0  2.259326  0
O  O76  1  0.69310990  0.42305958  0.65838297  1  -1.08782  0  -0.261035  -0.427938  0  2.111418  0
O  O77  1  0.77171406  0.31014410  0.59528269  1  -1.113191  0  -0.327183  -0.47189  0  2.239411  0
O  O78  1  0.26786076  0.36268185  0.62334139  1  -1.102861  0  -0.263343  -0.44516  0  2.134235  0
O  O79  1  0.19617192  0.47210275  0.69621741  1  -1.115964  0  -0.3264  -0.466131  0  2.227994  0
O  O80  1  0.71884294  0.62600272  0.34290396  1  -1.096515  0  -0.257746  -0.432923  0  2.110643  0
O  O81  1  0.77022461  0.72979155  0.42266088  1  -1.085591  0  -0.324074  -0.471282  0  2.219164  0
O  O82  1  0.27087666  0.77284275  0.49258443  1  -1.12948  0  -0.311713  -0.500105  0  2.048284  0
O  O83  1  0.37043010  0.78087718  0.37914719  1  -1.149577  0  -0.349859  -0.495227  0  2.236242  0
O  O84  1  0.60788732  0.27527441  0.35473952  1  -1.111073  0  -0.27835  -0.46961  0  2.114693  0
O  O85  1  0.44355491  0.38170312  0.52298702  1  -1.17246  0  -0.30417  -0.53583  0  2.355999  0
O  O86  1  0.73016144  0.22725738  0.42089206  1  -1.12579  0  -0.339663  -0.489131  0  2.239521  0
O  O87  1  0.43287313  0.64089912  0.48584038  1  -1.1663  0  -0.302741  -0.536743  0  2.368245  0
O  O88  1  0.60089463  0.37897289  0.51453218  1  -1.157043  0  -0.311856  -0.548025  0  2.368266  0
O  O89  1  0.57672734  0.48957150  0.38251076  1  -1.155291  0  -0.301572  -0.527506  0  2.358564  0
O  O90  1  0.37804625  0.52329487  0.61675649  1  -1.154685  0  -0.309738  -0.538078  0  2.349316  0
O  O91  1  0.42058849  0.48321602  0.38034080  1  -1.148789  0  -0.316226  -0.562212  0  2.418779  0
O  O92  1  0.53483560  0.52319302  0.61370931  1  -1.157857  0  -0.301202  -0.535187  0  2.383478  0
O  O93  1  0.29531300  0.62880901  0.33248427  1  -1.128577  0  -0.251657  -0.450622  0  2.177735  0
