# generated using pymatgen
data_Nd2H18C9(NO)12
_symmetry_space_group_name_H-M   'P 1'
_cell_length_a   9.46866843
_cell_length_b   10.20858122
_cell_length_c   14.30506487
_cell_angle_alpha   69.47238229
_cell_angle_beta   75.23420947
_cell_angle_gamma   86.63018911
_symmetry_Int_Tables_number   1
_chemical_formula_structural   Nd2H18C9(NO)12
_chemical_formula_sum   'Nd4 H36 C18 N24 O24'
_cell_volume   1251.47177987
_cell_formula_units_Z   2
loop_
 _symmetry_equiv_pos_site_id
 _symmetry_equiv_pos_as_xyz
  1  'x, y, z'
loop_
 _atom_site_type_symbol
 _atom_site_label
 _atom_site_symmetry_multiplicity
 _atom_site_fract_x
 _atom_site_fract_y
 _atom_site_fract_z
 _atom_site_occupancy
 _atom_site_pbe_bader_charge
 _atom_site_pbe_bader_spin_density
 _atom_site_pbe_cm5_charge
 _atom_site_pbe_ddec_charge
 _atom_site_pbe_ddec_spin_density
 _atom_site_pbe_ddec_sum_bond_order
 _atom_site_pbe_magmom
Nd  Nd0  1  0.62198605  0.94307837  0.36686892  1  2.235157  0  1.519926  2.05274  0  2.128225  0
Nd  Nd1  1  0.37801277  0.05692215  0.63313148  1  2.235197  0  1.519956  2.052805  0  2.128123  0
Nd  Nd2  1  0.87950148  0.80863086  0.11453736  1  2.23471  0  1.45368  2.079475  0  2.039366  0
Nd  Nd3  1  0.12049732  0.19136966  0.88546234  1  2.234693  0  1.453672  2.079425  0  2.039476  0
H  H4  1  0.16747938  0.82130169  0.45575957  1  0.088985  0  0.124345  0.159601  0  0.945375  0
H  H5  1  0.83252044  0.17869884  0.54423646  1  0.089011  0  0.124333  0.159626  0  0.945325  0
H  H6  1  0.07507458  0.97728323  0.41817126  1  0.149551  0  0.115805  0.156621  0  1.000007  0
H  H7  1  0.92492638  0.02271834  0.58182501  1  0.149568  0  0.115829  0.15668  0  0.999959  0
H  H8  1  0.34660535  0.71690593  0.27678501  1  0.103333  0  0.122551  0.156993  0  0.962312  0
H  H9  1  0.65339018  0.28309565  0.72321361  1  0.103443  0  0.122571  0.157044  0  0.962233  0
H  H10  1  0.40959195  0.54591765  0.30795485  1  0.078821  0  0.121485  0.15762  0  0.944863  0
H  H11  1  0.59040248  0.45408393  0.69204397  1  0.078822  0  0.121496  0.157672  0  0.944829  0
H  H12  1  0.99696193  0.16042147  0.25092728  1  0.107167  0  0.12117  0.156777  0  0.970967  0
H  H13  1  0.00304009  0.83957486  0.74907709  1  0.107289  0  0.121181  0.156825  0  0.970953  0
H  H14  1  0.85914458  0.25492760  0.19902473  1  0.120787  0  0.119353  0.155732  0  0.990801  0
H  H15  1  0.14085975  0.74507187  0.80097915  1  0.120762  0  0.119358  0.155736  0  0.990783  0
H  H16  1  0.60677469  0.25574654  0.35132301  1  0.647759  0  0.293506  0.337148  0  1.031756  0
H  H17  1  0.39322728  0.74425189  0.64867525  1  0.647725  0  0.293477  0.337111  0  1.031809  0
H  H18  1  0.56364809  0.25311787  0.24991060  1  0.618588  0  0.340494  0.42714  0  0.849992  0
H  H19  1  0.43635282  0.74688161  0.75008759  1  0.618591  0  0.340503  0.427138  0  0.849994  0
H  H20  1  0.81202565  0.73868878  0.50318719  1  0.611305  0  0.332227  0.412234  0  0.86753  0
H  H21  1  0.18797416  0.26130965  0.49681285  1  0.611256  0  0.332228  0.412236  0  0.867523  0
H  H22  1  0.72879366  0.63077899  0.47285745  1  0.636647  0  0.290105  0.349397  0  1.011191  0
H  H23  1  0.27120512  0.36922049  0.52714322  1  0.636654  0  0.290127  0.349434  0  1.011136  0
H  H24  1  0.69214349  0.99006095  0.97072240  1  0.647439  0  0.296567  0.337946  0  1.026218  0
H  H25  1  0.30785750  0.00993957  0.02927692  1  0.647459  0  0.296581  0.337952  0  1.026215  0
H  H26  1  0.61142302  0.00108784  0.08323494  1  0.630013  0  0.296671  0.344127  0  1.014541  0
H  H27  1  0.38857580  0.99891373  0.91676380  1  0.630022  0  0.29668  0.34414  0  1.014516  0
H  H28  1  0.17916043  0.67478905  0.04390553  1  0.650252  0  0.291587  0.350402  0  1.010104  0
H  H29  1  0.82084176  0.32521251  0.95609681  1  0.650229  0  0.29158  0.350378  0  1.010141  0
H  H30  1  0.20654299  0.84197591  0.01894094  1  0.648063  0  0.298054  0.399374  0  0.930314  0
H  H31  1  0.79345809  0.15802565  0.98106090  1  0.647959  0  0.298054  0.39932  0  0.930397  0
H  H32  1  0.06246372  0.84679910  0.25504680  1  0.638549  0  0.289478  0.349815  0  1.007229  0
H  H33  1  0.93753728  0.15320142  0.74495321  1  0.63854  0  0.289468  0.349797  0  1.00723  0
H  H34  1  0.92066332  0.75499999  0.33123231  1  0.647599  0  0.299253  0.388852  0  0.938673  0
H  H35  1  0.07933656  0.24499949  0.66876886  1  0.647607  0  0.299273  0.38886  0  0.938662  0
H  H36  1  0.81360106  0.51524078  0.19339062  1  0.620282  0  0.308374  0.376403  0  0.95258  0
H  H37  1  0.18639993  0.48475869  0.80661105  1  0.620194  0  0.308349  0.376365  0  0.95262  0
H  H38  1  0.98112647  0.50856152  0.18923426  1  0.644637  0  0.291696  0.362738  0  0.989077  0
H  H39  1  0.01887560  0.49143795  0.81076652  1  0.644644  0  0.291686  0.362721  0  0.989071  0
C  C40  1  0.27229427  0.96767841  0.30905048  1  0.940191  0  0.224323  0.33301  0  4.008922  0
C  C41  1  0.72770562  0.03232421  0.69094501  1  0.940222  0  0.224393  0.33325  0  4.008918  0
C  C42  1  0.18512789  0.93572113  0.41773091  1  -0.037116  0  -0.143172  -0.386009  0  3.901705  0
C  C43  1  0.81487409  0.06427836  0.58226569  1  -0.037179  0  -0.143257  -0.386222  0  3.901739  0
C  C44  1  0.24800787  0.98354227  0.48807840  1  1.558311  0  0.214784  0.667787  0  4.145886  0
C  C45  1  0.75199412  0.01645721  0.51191889  1  1.55827  0  0.214804  0.667824  0  4.14593  0
C  C46  1  0.39874122  0.63479919  0.42352997  1  0.962463  0  0.223889  0.333551  0  4.031579  0
C  C47  1  0.60124884  0.36520133  0.57647128  1  0.962238  0  0.223748  0.333376  0  4.031682  0
C  C48  1  0.42616686  0.64806139  0.31345996  1  -0.00623  0  -0.14037  -0.383074  0  3.907406  0
C  C49  1  0.57382545  0.35194123  0.68653968  1  -0.005624  0  -0.140325  -0.383145  0  3.90749  0
C  C50  1  0.57781370  0.70570111  0.24709772  1  1.606283  0  0.215913  0.665836  0  4.164507  0
C  C51  1  0.42218471  0.29429526  0.75289190  1  1.605576  0  0.215741  0.665694  0  4.164726  0
C  C52  1  0.07235866  0.31673736  0.10227860  1  1.009156  0  0.219813  0.346858  0  4.02665  0
C  C53  1  0.92764558  0.68326001  0.89772511  1  1.009196  0  0.219833  0.346941  0  4.026656  0
C  C54  1  0.96396500  0.20661668  0.17798236  1  -0.019126  0  -0.141981  -0.399315  0  3.919043  0
C  C55  1  0.03603821  0.79338174  0.82202268  1  -0.01906  0  -0.141973  -0.39939  0  3.919036  0
C  C56  1  0.93016889  0.08489769  0.15035616  1  1.551416  0  0.23981  0.710983  0  4.106761  0
C  C57  1  0.06983204  0.91509969  0.84964674  1  1.551262  0  0.239813  0.711048  0  4.106775  0
N  N58  1  0.41739292  0.99467071  0.27036814  1  -0.759702  0  -0.312922  -0.40687  0  3.42825  0
N  N59  1  0.58260815  0.00533401  0.72962732  1  -0.759893  0  -0.312967  -0.406997  0  3.428253  0
N  N60  1  0.44303328  0.01223922  0.16947280  1  -0.166765  0  -0.076655  -0.048794  0  3.342568  0
N  N61  1  0.55696671  0.98776550  0.83052355  1  -0.166779  0  -0.0767  -0.048794  0  3.342546  0
N  N62  1  0.31950887  0.99614596  0.14869859  1  -0.157622  0  -0.068443  -0.027898  0  3.322974  0
N  N63  1  0.68049101  0.00385561  0.85129856  1  -0.15857  0  -0.068411  -0.02791  0  3.322952  0
N  N64  1  0.20993676  0.96762931  0.23451593  1  -0.694103  0  -0.203156  -0.266536  0  3.233597  0
N  N65  1  0.79006413  0.03237018  0.76548087  1  -0.692873  0  -0.203165  -0.266587  0  3.233503  0
N  N66  1  0.43991146  0.72921517  0.45833008  1  -0.748056  0  -0.316118  -0.415849  0  3.457059  0
N  N67  1  0.56008294  0.27078535  0.54166900  1  -0.748072  0  -0.316093  -0.415743  0  3.456971  0
N  N68  1  0.39567120  0.67247617  0.56230035  1  -0.234585  0  -0.087714  -0.0692  0  3.417159  0
N  N69  1  0.60432754  0.32752331  0.43769892  1  -0.234599  0  -0.087711  -0.069205  0  3.417166  0
N  N70  1  0.33094558  0.55028405  0.58965694  1  -0.070826  0  -0.07698  -0.021251  0  3.224314  0
N  N71  1  0.66905216  0.44971647  0.41034435  1  -0.070796  0  -0.077003  -0.021321  0  3.224441  0
N  N72  1  0.33047412  0.52397986  0.50398528  1  -0.752524  0  -0.209745  -0.27444  0  3.294749  0
N  N73  1  0.66952034  0.47602171  0.49601493  1  -0.75249  0  -0.209674  -0.274321  0  3.294819  0
N  N74  1  0.13183195  0.33549141  0.00245836  1  -0.772584  0  -0.310327  -0.407504  0  3.401872  0
N  N75  1  0.86817222  0.66450492  0.99754423  1  -0.772632  0  -0.310381  -0.40758  0  3.401885  0
N  N76  1  0.20671197  0.46029867  0.96256965  1  -0.133055  0  -0.097494  -0.065897  0  3.299779  0
N  N77  1  0.79328891  0.53969766  0.03743282  1  -0.133155  0  -0.097408  -0.065823  0  3.299738  0
N  N78  1  0.19364617  0.51156099  0.03622688  1  -0.178804  0  -0.096428  -0.074042  0  3.385633  0
N  N79  1  0.80635476  0.48843639  0.96377602  1  -0.178803  0  -0.09645  -0.074089  0  3.385706  0
N  N80  1  0.11042345  0.42392578  0.12562487  1  -0.754832  0  -0.237494  -0.309618  0  3.252582  0
N  N81  1  0.88958085  0.57607368  0.87437761  1  -0.7548  0  -0.237524  -0.309654  0  3.252668  0
O  O82  1  0.65403949  0.77922731  0.27520843  1  -1.224127  0  -0.444308  -0.733841  0  2.394277  0
O  O83  1  0.34595838  0.22077529  0.72479511  1  -1.224204  0  -0.444175  -0.733664  0  2.394824  0
O  O84  1  0.38420795  0.01945451  0.46391190  1  -1.212752  0  -0.421603  -0.732311  0  2.383964  0
O  O85  1  0.61579194  0.98054706  0.53608595  1  -1.212869  0  -0.421583  -0.732336  0  2.384006  0
O  O86  1  0.16483230  0.98602557  0.57216780  1  -1.191954  0  -0.349811  -0.601485  0  2.149363  0
O  O87  1  0.83517069  0.01397077  0.42783080  1  -1.191951  0  -0.349787  -0.601449  0  2.149422  0
O  O88  1  0.62541539  0.68348197  0.16413998  1  -1.161965  0  -0.344464  -0.593218  0  2.207371  0
O  O89  1  0.37457819  0.31652062  0.83586782  1  -1.161769  0  -0.344462  -0.593291  0  2.206908  0
O  O90  1  0.81479282  0.01064235  0.20651424  1  -1.220893  0  -0.417099  -0.714127  0  2.350154  0
O  O91  1  0.18520489  0.98935712  0.79348801  1  -1.220836  0  -0.417103  -0.714182  0  2.350227  0
O  O92  1  0.01258899  0.05034135  0.07781313  1  -1.204099  0  -0.386227  -0.688176  0  2.32871  0
O  O93  1  0.98740976  0.94965602  0.92219016  1  -1.204171  0  -0.386253  -0.688219  0  2.328769  0
O  O94  1  0.61917240  0.20444068  0.29980100  1  -1.27006  0  -0.626943  -0.834055  0  2.114972  0
O  O95  1  0.38083066  0.79555776  0.70019707  1  -1.27006  0  -0.626929  -0.834018  0  2.114979  0
O  O96  1  0.76734976  0.73366173  0.45040985  1  -1.258312  0  -0.600632  -0.822009  0  2.135464  0
O  O97  1  0.23265115  0.26633670  0.54959000  1  -1.258271  0  -0.600656  -0.822051  0  2.135431  0
O  O98  1  0.70819358  0.99164550  0.03764215  1  -1.291754  0  -0.614345  -0.821206  0  2.251491  0
O  O99  1  0.29180520  0.00835397  0.96235852  1  -1.29177  0  -0.614363  -0.821232  0  2.25149  0
O  O100  1  0.13906926  0.75986496  0.06061777  1  -1.314132  0  -0.658574  -0.839836  0  2.088195  0
O  O101  1  0.86093510  0.24013450  0.93938751  1  -1.314031  0  -0.658553  -0.839731  0  2.088239  0
O  O102  1  0.99229317  0.77140385  0.26449632  1  -1.294666  0  -0.634173  -0.806427  0  2.076199  0
O  O103  1  0.00770785  0.22859667  0.73550439  1  -1.294666  0  -0.634183  -0.806414  0  2.076206  0
O  O104  1  0.88933755  0.55759508  0.21046752  1  -1.256719  0  -0.647676  -0.826132  0  2.16251  0
O  O105  1  0.11066452  0.44240439  0.78953326  1  -1.256602  0  -0.647651  -0.826071  0  2.162548  0
