# generated using pymatgen
data_ZnH16C25(NO2)2
_symmetry_space_group_name_H-M   'P 1'
_cell_length_a   16.43379099
_cell_length_b   18.18825035
_cell_length_c   21.91109294
_cell_angle_alpha   90.00000036
_cell_angle_beta   108.94423015
_cell_angle_gamma   90.00000238
_symmetry_Int_Tables_number   1
_chemical_formula_structural   ZnH16C25(NO2)2
_chemical_formula_sum   'Zn8 H128 C200 N16 O32'
_cell_volume   6194.52650792
_cell_formula_units_Z   8
loop_
 _symmetry_equiv_pos_site_id
 _symmetry_equiv_pos_as_xyz
  1  'x, y, z'
loop_
 _atom_site_type_symbol
 _atom_site_label
 _atom_site_symmetry_multiplicity
 _atom_site_fract_x
 _atom_site_fract_y
 _atom_site_fract_z
 _atom_site_occupancy
 _atom_site_pbe_bader_charge
 _atom_site_pbe_bader_spin_density
 _atom_site_pbe_cm5_charge
 _atom_site_pbe_ddec_charge
 _atom_site_pbe_ddec_spin_density
 _atom_site_pbe_ddec_sum_bond_order
 _atom_site_pbe_magmom
Zn  Zn0  1  0.44206003  0.55147966  0.71964717  1  1.305234  0  0.671324  0.844016  0  2.372226  0
Zn  Zn1  1  0.05794032  0.05147939  0.78035259  1  1.305233  0  0.671342  0.844052  0  2.372207  0
Zn  Zn2  1  0.55793992  0.44851979  0.28035217  1  1.305315  0  0.671317  0.843992  0  2.372251  0
Zn  Zn3  1  0.94205964  0.94852061  0.21964720  1  1.305228  0  0.671364  0.844088  0  2.372148  0
Zn  Zn4  1  0.53931993  0.45905076  0.65933738  1  1.30875  0  0.67737  0.84334  0  2.399203  0
Zn  Zn5  1  0.96068000  0.95905049  0.84066299  1  1.308757  0  0.677341  0.843271  0  2.399287  0
Zn  Zn6  1  0.46068066  0.54094979  0.34066302  1  1.308761  0  0.677369  0.84333  0  2.399176  0
Zn  Zn7  1  0.03931931  0.04095006  0.15933710  1  1.308768  0  0.677363  0.84331  0  2.399235  0
H  H8  1  0.54905803  0.60738004  0.51274755  1  0.089367  0  0.105226  0.106965  0  1.015787  0
H  H9  1  0.95094188  0.10738033  0.98725236  1  0.08937  0  0.105231  0.106983  0  1.015783  0
H  H10  1  0.45094192  0.39261941  0.48725269  1  0.089382  0  0.105206  0.106914  0  1.015814  0
H  H11  1  0.04905808  0.89262022  0.01274653  1  0.089361  0  0.105221  0.106945  0  1.01579  0
H  H12  1  0.53077526  0.69919536  0.42659480  1  0.08905  0  0.105492  0.121067  0  1.031965  0
H  H13  1  0.96922493  0.19919565  0.07340564  1  0.08905  0  0.105481  0.12105  0  1.031956  0
H  H14  1  0.46922533  0.30080410  0.57340560  1  0.089055  0  0.105483  0.121066  0  1.031967  0
H  H15  1  0.03077503  0.80080435  0.92659416  1  0.089038  0  0.10548  0.121063  0  1.031965  0
H  H16  1  0.41125541  0.84763734  0.52575772  1  0.056772  0  0.106157  0.116705  0  0.98905  0
H  H17  1  0.08874431  0.34763762  0.97424234  1  0.056777  0  0.106161  0.116706  0  0.989035  0
H  H18  1  0.58874518  0.15236211  0.47424223  1  0.056753  0  0.106157  0.116689  0  0.989025  0
H  H19  1  0.91125565  0.65236348  0.02575791  1  0.05678  0  0.106155  0.116683  0  0.989066  0
H  H20  1  0.42694081  0.75195414  0.61138694  1  0.088255  0  0.103739  0.109354  0  0.997938  0
H  H21  1  0.07305890  0.25195387  0.88861312  1  0.088261  0  0.103743  0.10936  0  0.997935  0
H  H22  1  0.57305914  0.24804586  0.38861285  1  0.088253  0  0.10373  0.109339  0  0.997958  0
H  H23  1  0.92694105  0.74804668  0.11138668  1  0.088299  0  0.103701  0.109286  0  0.997939  0
H  H24  1  0.16038375  0.82504803  0.36567107  1  0.08575  0  0.098724  0.099407  0  1.014335  0
H  H25  1  0.33961624  0.32504777  0.13432952  1  0.085748  0  0.098727  0.099394  0  1.014332  0
H  H26  1  0.83961684  0.17495198  0.63432980  1  0.085848  0  0.098725  0.099415  0  1.014324  0
H  H27  1  0.66038371  0.67495169  0.86567073  1  0.08575  0  0.098731  0.09941  0  1.014323  0
H  H28  1  0.30567272  0.77578051  0.42462983  1  0.089429  0  0.096563  0.10415  0  1.047991  0
H  H29  1  0.19432791  0.27578079  0.07537045  1  0.08942  0  0.096568  0.104139  0  1.047976  0
H  H30  1  0.69432788  0.22421949  0.57537012  1  0.089428  0  0.096573  0.104152  0  1.047966  0
H  H31  1  0.80567204  0.72421921  0.92462980  1  0.089428  0  0.09658  0.104162  0  1.047947  0
H  H32  1  0.41971261  0.94805382  0.34388276  1  0.052851  0  0.101382  0.110704  0  1.005493  0
H  H33  1  0.08028804  0.44805354  0.15611753  1  0.052855  0  0.101394  0.110721  0  1.005497  0
H  H34  1  0.58028799  0.05194674  0.65611764  1  0.052868  0  0.101395  0.110711  0  1.005522  0
H  H35  1  0.91971256  0.55194646  0.84388242  1  0.052853  0  0.101386  0.110702  0  1.005501  0
H  H36  1  0.27315331  0.99284097  0.28147419  1  0.093801  0  0.102297  0.106957  0  1.005084  0
H  H37  1  0.22684669  0.49284015  0.21852594  1  0.093797  0  0.102294  0.106948  0  1.005105  0
H  H38  1  0.72684728  0.00715958  0.71852621  1  0.093798  0  0.102288  0.106943  0  1.005111  0
H  H39  1  0.77315326  0.50715930  0.78147385  1  0.093783  0  0.102296  0.106963  0  1.005085  0
H  H40  1  0.94162091  0.87139500  0.34128164  1  0.131882  0  0.124436  0.101416  0  0.98365  0
H  H41  1  0.55837929  0.37139472  0.15871834  1  0.131894  0  0.124412  0.101374  0  0.983659  0
H  H42  1  0.05837969  0.12860501  0.65871831  1  0.131896  0  0.124389  0.101352  0  0.983671  0
H  H43  1  0.44162002  0.62860528  0.84128129  1  0.131902  0  0.12441  0.101371  0  0.983667  0
H  H44  1  0.83238054  0.83323354  0.39193833  1  0.062075  0  0.106767  0.11218  0  1.016676  0
H  H45  1  0.66761966  0.33323328  0.10806211  1  0.062081  0  0.106764  0.112193  0  1.016682  0
H  H46  1  0.16762006  0.16676646  0.60806162  1  0.062024  0  0.106766  0.11219  0  1.016677  0
H  H47  1  0.33237965  0.66676618  0.89193798  1  0.061982  0  0.106766  0.112197  0  1.016684  0
H  H48  1  0.63595480  0.89427460  0.21358767  1  0.062986  0  0.108887  0.114779  0  1.003546  0
H  H49  1  0.86404540  0.39427434  0.28641277  1  0.062981  0  0.108874  0.114777  0  1.003556  0
H  H50  1  0.36404515  0.10572486  0.78641258  1  0.062978  0  0.108882  0.114771  0  1.003568  0
H  H51  1  0.13595455  0.60572512  0.71358747  1  0.062978  0  0.108882  0.114776  0  1.003565  0
H  H52  1  0.75411455  0.92789685  0.17059590  1  0.107291  0  0.117643  0.093079  0  1.028662  0
H  H53  1  0.74588501  0.42789604  0.32940438  1  0.107288  0  0.117601  0.093004  0  1.028693  0
H  H54  1  0.24588541  0.07210315  0.82940480  1  0.107282  0  0.117625  0.093055  0  1.028635  0
H  H55  1  0.25411430  0.57210341  0.67059525  1  0.107283  0  0.117628  0.093053  0  1.028642  0
H  H56  1  0.55720363  0.81748656  0.24709271  1  0.054975  0  0.099503  0.096112  0  1.032136  0
H  H57  1  0.94279657  0.31748685  0.25290682  1  0.054981  0  0.099492  0.096095  0  1.03214  0
H  H58  1  0.44279633  0.18251289  0.75290708  1  0.054983  0  0.099511  0.09612  0  1.032127  0
H  H59  1  0.05720338  0.68251370  0.74709298  1  0.054975  0  0.099504  0.096119  0  1.032104  0
H  H60  1  0.44100340  0.80760490  0.29443421  1  0.101881  0  0.109485  0.118452  0  0.99795  0
H  H61  1  0.05899723  0.30760463  0.20556608  1  0.101797  0  0.109487  0.118461  0  0.99794  0
H  H62  1  0.55899719  0.19239510  0.70556574  1  0.101879  0  0.109485  0.118461  0  0.997944  0
H  H63  1  0.94100272  0.69239537  0.79443417  1  0.1018  0  0.109489  0.118463  0  0.997936  0
H  H64  1  0.61865404  0.86223028  0.48142549  1  0.066479  0  0.111455  0.122854  0  0.981087  0
H  H65  1  0.88134552  0.36223002  0.01857434  1  0.066487  0  0.111454  0.12282  0  0.981069  0
H  H66  1  0.38134592  0.13776972  0.51857431  1  0.066479  0  0.111459  0.122833  0  0.981056  0
H  H67  1  0.11865444  0.63776998  0.98142591  1  0.06648  0  0.111446  0.122828  0  0.981082  0
H  H68  1  0.73504369  0.87628386  0.43394359  1  0.055376  0  0.104115  0.101247  0  1.003234  0
H  H69  1  0.76495586  0.37628360  0.06605624  1  0.055383  0  0.104116  0.101215  0  1.003274  0
H  H70  1  0.26495626  0.12371559  0.56605620  1  0.055376  0  0.104109  0.101205  0  1.00329  0
H  H71  1  0.23504345  0.62371586  0.93394340  1  0.05538  0  0.104115  0.101237  0  1.003238  0
H  H72  1  0.33156327  0.30635438  0.56392086  1  0.110308  0  0.102947  0.105591  0  1.0318  0
H  H73  1  0.16843710  0.80635409  0.93607936  1  0.110312  0  0.10295  0.105594  0  1.031806  0
H  H74  1  0.66843604  0.69364617  0.43607969  1  0.110297  0  0.102937  0.105571  0  1.031809  0
H  H75  1  0.83156350  0.19364591  0.06392151  1  0.110254  0  0.102948  0.105593  0  1.031807  0
H  H76  1  0.19470594  0.24121452  0.50792207  1  0.055851  0  0.102142  0.107966  0  1.016141  0
H  H77  1  0.30529442  0.74121479  0.99207769  1  0.055851  0  0.102141  0.107961  0  1.016152  0
H  H78  1  0.80529402  0.75878493  0.49207818  1  0.055852  0  0.102161  0.107996  0  1.016174  0
H  H79  1  0.69470553  0.25878521  0.00792211  1  0.055851  0  0.102139  0.107959  0  1.016151  0
H  H80  1  0.05281096  0.43683751  0.52036666  1  0.065568  0  0.10194  0.111502  0  1.006164  0
H  H81  1  0.44718941  0.93683724  0.97963310  1  0.06543  0  0.101946  0.11153  0  1.006197  0
H  H82  1  0.94718964  0.56316304  0.47963329  1  0.065562  0  0.101939  0.1115  0  1.006153  0
H  H83  1  0.55280990  0.06316167  0.02036699  1  0.065414  0  0.101952  0.111531  0  1.006158  0
H  H84  1  0.19051924  0.50110978  0.57670247  1  0.065991  0  0.098091  0.095111  0  1.032388  0
H  H85  1  0.30948110  0.00111062  0.92329775  1  0.065972  0  0.098078  0.095105  0  1.032384  0
H  H86  1  0.80948071  0.49888968  0.42329733  1  0.065998  0  0.09809  0.095089  0  1.032407  0
H  H87  1  0.69051885  0.99888939  0.07670296  1  0.065983  0  0.098095  0.095105  0  1.032457  0
H  H88  1  0.92370483  0.09514331  0.35591682  1  0.109144  0  0.106019  0.113201  0  0.994326  0
H  H89  1  0.57629536  0.59514357  0.14408270  1  0.109114  0  0.106018  0.113183  0  0.994308  0
H  H90  1  0.07629577  0.90485614  0.64408313  1  0.109153  0  0.10602  0.113201  0  0.994274  0
H  H91  1  0.42370395  0.40485589  0.85591693  1  0.109153  0  0.106038  0.113223  0  0.994296  0
H  H92  1  0.93791902  0.17822167  0.44952402  1  0.065822  0  0.104177  0.114847  0  1.000165  0
H  H93  1  0.56208052  0.67822193  0.05047581  1  0.065829  0  0.104187  0.114864  0  1.00015  0
H  H94  1  0.06208028  0.82177778  0.55047607  1  0.065838  0  0.104192  0.114866  0  1.000146  0
H  H95  1  0.43791879  0.32177753  0.94952383  1  0.065826  0  0.104181  0.114843  0  1.000157  0
H  H96  1  0.11553807  0.31337869  0.39120311  1  0.081539  0  0.105368  0.117991  0  0.997317  0
H  H97  1  0.38446256  0.81337841  0.10879717  1  0.08155  0  0.10536  0.117975  0  0.997362  0
H  H98  1  0.88446124  0.68662131  0.60879698  1  0.081534  0  0.105366  0.117988  0  0.997311  0
H  H99  1  0.61553803  0.18662214  0.89120323  1  0.081534  0  0.105367  0.118003  0  0.997337  0
H  H100  1  0.10221372  0.22804503  0.29943574  1  0.083037  0  0.104722  0.10715  0  1.003276  0
H  H101  1  0.39778627  0.72804530  0.20056393  1  0.083035  0  0.104744  0.107236  0  1.003289  0
H  H102  1  0.89778623  0.77195498  0.70056405  1  0.083031  0  0.104735  0.107172  0  1.003274  0
H  H103  1  0.60221369  0.27195471  0.79943632  1  0.083038  0  0.10472  0.107159  0  1.003279  0
H  H104  1  0.58115807  0.47938477  0.53692027  1  0.130103  0  0.122751  0.098494  0  1.006853  0
H  H105  1  0.91884185  0.97938450  0.96307965  1  0.13011  0  0.122759  0.098512  0  1.006838  0
H  H106  1  0.41884188  0.52061523  0.46307952  1  0.130103  0  0.122755  0.098508  0  1.006844  0
H  H107  1  0.08115810  0.02061496  0.03692060  1  0.130104  0  0.122759  0.0985  0  1.006858  0
H  H108  1  0.69353007  0.44034803  0.49137061  1  0.104278  0  0.1098  0.122963  0  1.015619  0
H  H109  1  0.80647078  0.94034720  0.00862908  1  0.104295  0  0.109811  0.122995  0  1.015589  0
H  H110  1  0.30646989  0.55965142  0.50862964  1  0.10427  0  0.109804  0.123007  0  1.015593  0
H  H111  1  0.19352982  0.05965170  0.99137087  1  0.104277  0  0.109809  0.123006  0  1.01561  0
H  H112  1  0.80991943  0.31729717  0.66780732  1  0.063815  0  0.110635  0.116561  0  1.004107  0
H  H113  1  0.69007985  0.81729743  0.83219198  1  0.063808  0  0.110655  0.116597  0  1.00408  0
H  H114  1  0.19008117  0.68270284  0.33219263  1  0.063826  0  0.110619  0.116528  0  1.004107  0
H  H115  1  0.30991881  0.18270257  0.16780750  1  0.063813  0  0.110636  0.116567  0  1.004105  0
H  H116  1  0.69175682  0.36234108  0.70551202  1  0.103465  0  0.124993  0.101124  0  0.978346  0
H  H117  1  0.80824310  0.86234080  0.79448790  1  0.103448  0  0.125002  0.10115  0  0.978358  0
H  H118  1  0.30824378  0.63765947  0.29448793  1  0.10347  0  0.124984  0.101118  0  0.97833  0
H  H119  1  0.19175685  0.13765920  0.20551190  1  0.103463  0  0.125005  0.101129  0  0.97839  0
H  H120  1  0.75421797  0.35919454  0.44921309  1  0.100778  0  0.108002  0.112182  0  1.003678  0
H  H121  1  0.74578223  0.85919481  0.05078690  1  0.100779  0  0.107982  0.112149  0  1.00365  0
H  H122  1  0.24578263  0.64080546  0.55078732  1  0.100779  0  0.107986  0.112166  0  1.003633  0
H  H123  1  0.25421837  0.14080520  0.94921260  1  0.100783  0  0.107984  0.112166  0  1.003644  0
H  H124  1  0.87183805  0.32558164  0.40770239  1  0.044856  0  0.104128  0.111361  0  1.011433  0
H  H125  1  0.62816214  0.82558190  0.09229714  1  0.044855  0  0.104164  0.111424  0  1.011446  0
H  H126  1  0.12816254  0.67441782  0.59229756  1  0.04485  0  0.104158  0.111425  0  1.011432  0
H  H127  1  0.37183781  0.17441811  0.90770311  1  0.044857  0  0.104163  0.111416  0  1.011452  0
H  H128  1  0.04289669  0.29757783  0.60238172  1  0.098666  0  0.108004  0.118143  0  0.993977  0
H  H129  1  0.45710367  0.79757755  0.89761804  1  0.098677  0  0.108007  0.118155  0  0.993992  0
H  H130  1  0.95710391  0.70242272  0.39761823  1  0.09867  0  0.107995  0.11813  0  0.994006  0
H  H131  1  0.54289628  0.20242245  0.10238176  1  0.09867  0  0.107998  0.118135  0  0.99401  0
H  H132  1  0.92592417  0.33059532  0.64437170  1  0.071378  0  0.106826  0.106327  0  0.99629  0
H  H133  1  0.57407575  0.83059503  0.85562821  1  0.071349  0  0.106834  0.106343  0  0.996271  0
H  H134  1  0.07407643  0.66940524  0.35562870  1  0.07139  0  0.106824  0.106323  0  0.996336  0
H  H135  1  0.42592420  0.16940498  0.14437158  1  0.071348  0  0.106831  0.106336  0  0.996279  0
C  C136  1  0.48830367  0.61351862  0.61315982  1  1.556111  0  0.20965  0.590997  0  4.186184  0
C  C137  1  0.01169604  0.11351779  0.88684070  1  1.55605  0  0.209574  0.590921  0  4.186265  0
C  C138  1  0.51169629  0.38648084  0.38684043  1  1.556088  0  0.20969  0.591119  0  4.186115  0
C  C139  1  0.98830327  0.88648276  0.11315940  1  1.556111  0  0.2096  0.590981  0  4.186095  0
C  C140  1  0.48792191  0.67367888  0.56688263  1  -0.009647  0  -0.027893  -0.057004  0  3.996722  0
C  C141  1  0.01207780  0.17367861  0.93311743  1  -0.009138  0  -0.027905  -0.057021  0  3.996653  0
C  C142  1  0.51207804  0.32632167  0.43311716  1  -0.009641  0  -0.027934  -0.057099  0  3.996731  0
C  C143  1  0.98792087  0.82632194  0.06688205  1  -0.008772  0  -0.027946  -0.057158  0  3.996761  0
C  C144  1  0.51985735  0.66029497  0.51595950  1  0.011812  0  -0.084029  -0.071813  0  3.996097  0
C  C145  1  0.98014256  0.16029471  0.98404086  1  0.011368  0  -0.084042  -0.071855  0  3.996091  0
C  C146  1  0.48014324  0.33970448  0.48404045  1  0.011815  0  -0.083992  -0.071694  0  3.996094  0
C  C147  1  0.01985611  0.83970529  0.01595861  1  0.011386  0  -0.084001  -0.071698  0  3.996041  0
C  C148  1  0.51044678  0.71230272  0.46794016  1  0.01047  0  -0.097921  -0.18291  0  3.984981  0
C  C149  1  0.98955341  0.21230301  0.03206028  1  0.010455  0  -0.097904  -0.182845  0  3.984994  0
C  C150  1  0.48955382  0.28769728  0.53206025  1  0.010473  0  -0.097908  -0.182926  0  3.985039  0
C  C151  1  0.01044590  0.78769699  0.96793936  1  0.010452  0  -0.097914  -0.182965  0  3.985012  0
C  C152  1  0.47001777  0.77941748  0.47091094  1  0.264748  0  0.0928  0.184361  0  4.036733  0
C  C153  1  0.02998222  0.27941720  0.02908965  1  0.264734  0  0.092764  0.18429  0  4.036804  0
C  C154  1  0.52998282  0.22058253  0.52908901  1  0.264741  0  0.092802  0.184366  0  4.036729  0
C  C155  1  0.97001774  0.72058335  0.97091014  1  0.26474  0  0.092795  0.184407  0  4.036695  0
C  C156  1  0.44168970  0.79490495  0.52348377  1  -0.007614  0  -0.09847  -0.18277  0  4.009051  0
C  C157  1  0.05831001  0.29490468  0.97651629  1  -0.007592  0  -0.098453  -0.182718  0  4.008995  0
C  C158  1  0.55831025  0.20509506  0.47651648  1  -0.007601  0  -0.098436  -0.182682  0  4.008976  0
C  C159  1  0.94168865  0.70509478  0.02348319  1  -0.007604  0  -0.09842  -0.182679  0  4.008888  0
C  C160  1  0.45022337  0.74191304  0.57088683  1  -0.082441  0  -0.08709  -0.081441  0  3.998355  0
C  C161  1  0.04977699  0.24191277  0.92911338  1  -0.082437  0  -0.087088  -0.081443  0  3.998338  0
C  C162  1  0.54977723  0.25808641  0.42911312  1  -0.082432  0  -0.087099  -0.081454  0  3.998337  0
C  C163  1  0.95022296  0.75808833  0.07088641  1  -0.082867  0  -0.087077  -0.081376  0  3.998276  0
C  C164  1  0.12101397  0.93731886  0.27814010  1  1.555334  0  0.207057  0.594035  0  4.185414  0
C  C165  1  0.37898603  0.43731915  0.22186004  1  1.555213  0  0.207009  0.593923  0  4.185414  0
C  C166  1  0.87898598  0.06268169  0.72185970  1  1.55519  0  0.207064  0.594058  0  4.185492  0
C  C167  1  0.62101328  0.56268086  0.77814006  1  1.555222  0  0.206995  0.593883  0  4.18549  0
C  C168  1  0.20755128  0.91152254  0.31921337  1  0.033596  0  -0.031123  -0.05624  0  3.996316  0
C  C169  1  0.29244937  0.41152227  0.18078646  1  0.033723  0  -0.031152  -0.056329  0  3.996283  0
C  C170  1  0.79244868  0.08847802  0.68078642  1  0.033756  0  -0.031147  -0.056309  0  3.996289  0
C  C171  1  0.70755123  0.58847773  0.81921395  1  0.033772  0  -0.031151  -0.056288  0  3.996261  0
C  C172  1  0.21765743  0.85149972  0.36100449  1  -0.066488  0  -0.089106  -0.079825  0  4.010921  0
C  C173  1  0.28234256  0.35149891  0.13899610  1  -0.066518  0  -0.08905  -0.07969  0  4.010867  0
C  C174  1  0.78234252  0.14850083  0.63899576  1  -0.06663  0  -0.089077  -0.079786  0  4.010929  0
C  C175  1  0.71765739  0.64850055  0.86100460  1  -0.066528  0  -0.089075  -0.07976  0  4.010837  0
C  C176  1  0.29901942  0.82414195  0.39421378  1  -0.030107  0  -0.10753  -0.19697  0  4.009783  0
C  C177  1  0.20098250  0.32414113  0.10578637  1  -0.030121  0  -0.107558  -0.197021  0  4.009712  0
C  C178  1  0.70098246  0.17585805  0.60578694  1  -0.030107  0  -0.107572  -0.197008  0  4.009791  0
C  C179  1  0.79901809  0.67585777  0.89421358  1  -0.03011  0  -0.107555  -0.196991  0  4.009691  0
C  C180  1  0.37290073  0.85774606  0.38756165  1  0.317252  0  0.095801  0.191684  0  4.032288  0
C  C181  1  0.12709862  0.35774579  0.11243832  1  0.317299  0  0.095846  0.191779  0  4.03225  0
C  C182  1  0.62709922  0.14225449  0.61243906  1  0.317275  0  0.095828  0.19176  0  4.03224  0
C  C183  1  0.87290133  0.64225421  0.88756147  1  0.317273  0  0.09579  0.191684  0  4.032299  0
C  C184  1  0.36292626  0.92040740  0.34803765  1  -0.054205  0  -0.105974  -0.194868  0  4.021679  0
C  C185  1  0.13707374  0.42040713  0.15196249  1  -0.054219  0  -0.105982  -0.194914  0  4.021747  0
C  C186  1  0.63707433  0.07959371  0.65196276  1  -0.054212  0  -0.105959  -0.194858  0  4.021723  0
C  C187  1  0.86292622  0.57959398  0.84803685  1  -0.054198  0  -0.105965  -0.194844  0  4.021668  0
C  C188  1  0.28137428  0.94576662  0.31365101  1  -0.052263  0  -0.087525  -0.073872  0  4.00509  0
C  C189  1  0.21862508  0.44576691  0.18634896  1  -0.052247  0  -0.087516  -0.073823  0  4.005074  0
C  C190  1  0.71862503  0.05423283  0.68634908  1  -0.052267  0  -0.087521  -0.07385  0  4.005087  0
C  C191  1  0.78137423  0.55423310  0.81365022  1  -0.052293  0  -0.087537  -0.073897  0  4.005094  0
C  C192  1  0.87283371  0.87507209  0.31500494  1  0.447347  0  0.05181  0.095912  0  3.942565  0
C  C193  1  0.62716713  0.37507237  0.18499566  1  0.447358  0  0.051848  0.095991  0  3.942582  0
C  C194  1  0.12716689  0.12492791  0.68499546  1  0.447357  0  0.051864  0.096036  0  3.942548  0
C  C195  1  0.37283282  0.62492763  0.81500459  1  0.447348  0  0.051859  0.096038  0  3.942592  0
C  C196  1  0.81136900  0.85468531  0.34282965  1  -0.012558  0  -0.085812  -0.186164  0  3.953065  0
C  C197  1  0.68863119  0.35468559  0.15717034  1  -0.012558  0  -0.08583  -0.186252  0  3.9531  0
C  C198  1  0.18863159  0.14531470  0.65717076  1  -0.01251  0  -0.085799  -0.186203  0  3.953118  0
C  C199  1  0.31136876  0.64531442  0.84282945  1  -0.01246  0  -0.085817  -0.186256  0  3.953181  0
C  C200  1  0.72316461  0.86209503  0.30777651  1  -0.005612  0  0.017003  0.122969  0  3.985157  0
C  C201  1  0.77683558  0.36209532  0.19222348  1  -0.005589  0  0.016984  0.123025  0  3.985122  0
C  C202  1  0.27683470  0.13790497  0.69222313  1  -0.005591  0  0.017005  0.123004  0  3.985151  0
C  C203  1  0.22316437  0.63790469  0.80777677  1  -0.005594  0  0.017  0.123022  0  3.985148  0
C  C204  1  0.70273022  0.88664385  0.24360142  1  0.030054  0  -0.085206  -0.183555  0  3.956636  0
C  C205  1  0.79726997  0.38664413  0.25639856  1  0.030056  0  -0.085207  -0.183604  0  3.956634  0
C  C206  1  0.29727037  0.11335616  0.75639898  1  0.030055  0  -0.085213  -0.183573  0  3.956641  0
C  C207  1  0.20272998  0.61335587  0.74360123  1  0.030049  0  -0.085211  -0.183593  0  3.956661  0
C  C208  1  0.76764142  0.90573969  0.21909996  1  0.442116  0  0.046712  0.095855  0  3.942955  0
C  C209  1  0.73235749  0.40573943  0.28090017  1  0.442124  0  0.046776  0.095962  0  3.942927  0
C  C210  1  0.23235789  0.09426086  0.78090014  1  0.442132  0  0.046744  0.095899  0  3.942922  0
C  C211  1  0.26764182  0.59426058  0.71909992  1  0.442122  0  0.046746  0.095913  0  3.94293  0
C  C212  1  0.65526765  0.84911137  0.33659725  1  -0.016897  0  -0.017074  0.037292  0  4.007453  0
C  C213  1  0.84473191  0.34911166  0.16340212  1  -0.016919  0  -0.017083  0.037214  0  4.007503  0
C  C214  1  0.34473231  0.15088863  0.66340254  1  -0.016925  0  -0.017081  0.037252  0  4.007503  0
C  C215  1  0.15526805  0.65088834  0.83659722  1  -0.016934  0  -0.017088  0.037261  0  4.007459  0
C  C216  1  0.57115716  0.82997209  0.29815180  1  -0.03379  0  -0.083833  -0.101814  0  3.971134  0
C  C217  1  0.92884368  0.32997183  0.20184835  1  -0.033799  0  -0.083761  -0.101688  0  3.971092  0
C  C218  1  0.42884279  0.17002791  0.70184800  1  -0.033829  0  -0.083829  -0.101787  0  3.97112  0
C  C219  1  0.07115692  0.67002817  0.79815160  1  -0.033904  0  -0.083832  -0.101828  0  3.97108  0
C  C220  1  0.50535230  0.82362459  0.32457499  1  -0.074036  0  -0.086374  -0.157124  0  3.974975  0
C  C221  1  0.99464725  0.32362543  0.17542484  1  -0.073942  0  -0.086425  -0.157189  0  3.975014  0
C  C222  1  0.49464765  0.17637487  0.67542480  1  -0.073991  0  -0.086395  -0.157157  0  3.974975  0
C  C223  1  0.00535270  0.67637457  0.82457587  1  -0.073829  0  -0.086374  -0.157139  0  3.975007  0
C  C224  1  0.52156237  0.83606119  0.39072767  1  0.382191  0  0.100976  0.187991  0  4.025346  0
C  C225  1  0.97843782  0.33606203  0.10927231  1  0.382183  0  0.100988  0.187915  0  4.02528  0
C  C226  1  0.47843822  0.16393827  0.60927228  1  0.382187  0  0.100962  0.187906  0  4.025327  0
C  C227  1  0.02156213  0.66393797  0.89072702  1  0.382159  0  0.100961  0.188006  0  4.025257  0
C  C228  1  0.60573147  0.85302984  0.42998385  1  0.025035  0  -0.089979  -0.168213  0  3.98632  0
C  C229  1  0.89426937  0.35303068  0.07001675  1  0.025172  0  -0.089944  -0.168066  0  3.986178  0
C  C230  1  0.39426848  0.14696962  0.57001640  1  0.025164  0  -0.089926  -0.168059  0  3.986172  0
C  C231  1  0.10573059  0.64696933  0.92998350  1  0.025178  0  -0.089986  -0.168194  0  3.986224  0
C  C232  1  0.67117978  0.85960771  0.40314222  1  -0.05957  0  -0.085437  -0.108275  0  3.997643  0
C  C233  1  0.82882106  0.35960800  0.09685838  1  -0.059708  0  -0.085451  -0.10825  0  3.997667  0
C  C234  1  0.32882082  0.14039174  0.59685818  1  -0.059696  0  -0.085469  -0.108277  0  3.99768  0
C  C235  1  0.17117954  0.64039146  0.90314157  1  -0.059684  0  -0.085389  -0.108206  0  3.997554  0
C  C236  1  0.35238443  0.44627163  0.60915484  1  1.574422  0  0.209013  0.582535  0  4.195749  0
C  C237  1  0.14761530  0.94627079  0.89084522  1  1.57439  0  0.209065  0.58264  0  4.195601  0
C  C238  1  0.64761488  0.55372947  0.39084525  1  1.574399  0  0.209034  0.582575  0  4.195687  0
C  C239  1  0.85238530  0.05372866  0.10915564  1  1.574433  0  0.209061  0.582546  0  4.195682  0
C  C240  1  0.26995725  0.40796723  0.57386939  1  -0.027582  0  -0.025423  -0.04969  0  3.977269  0
C  C241  1  0.23004247  0.90796805  0.92613021  1  -0.02759  0  -0.025392  -0.049629  0  3.977133  0
C  C242  1  0.73004270  0.59203277  0.42613086  1  -0.027593  0  -0.025421  -0.0497  0  3.977281  0
C  C243  1  0.76995683  0.09203251  0.07386988  1  -0.027537  0  -0.025365  -0.049508  0  3.977072  0
C  C244  1  0.27031615  0.33479912  0.55379055  1  -0.080254  0  -0.082063  -0.068101  0  3.970959  0
C  C245  1  0.22968486  0.83479938  0.94620937  1  -0.080216  0  -0.082072  -0.068121  0  3.970948  0
C  C246  1  0.72968445  0.66520034  0.44620986  1  -0.080234  0  -0.082071  -0.068098  0  3.970995  0
C  C247  1  0.77031574  0.16520007  0.05379058  1  -0.08021  0  -0.082076  -0.068164  0  3.970958  0
C  C248  1  0.19376204  0.29823650  0.52292810  1  -0.045213  0  -0.099185  -0.186036  0  4.007677  0
C  C249  1  0.30623832  0.79823622  0.97707212  1  -0.045231  0  -0.09918  -0.186043  0  4.007767  0
C  C250  1  0.80623791  0.70176350  0.47707261  1  -0.0452  0  -0.099195  -0.18606  0  4.007733  0
C  C251  1  0.69376163  0.20176379  0.02292768  1  -0.045212  0  -0.099187  -0.186041  0  4.007682  0
C  C252  1  0.11471506  0.33466221  0.51077299  1  0.352437  0  0.092542  0.181653  0  4.040528  0
C  C253  1  0.38528530  0.83466193  0.98922722  1  0.352469  0  0.092563  0.181706  0  4.040419  0
C  C254  1  0.88528489  0.66533779  0.48922726  1  0.352425  0  0.092532  0.18165  0  4.040528  0
C  C255  1  0.61471465  0.16533752  0.01077257  1  0.352467  0  0.092545  0.181679  0  4.040438  0
C  C256  1  0.11404630  0.40827512  0.53019973  1  -0.032785  0  -0.100496  -0.183609  0  4.00351  0
C  C257  1  0.38595406  0.90827594  0.96980003  1  -0.032664  0  -0.100509  -0.183653  0  4.003541  0
C  C258  1  0.88595429  0.59172488  0.46980022  1  -0.032784  0  -0.100506  -0.183629  0  4.003481  0
C  C259  1  0.61404589  0.09172406  0.03020022  1  -0.032658  0  -0.100515  -0.183659  0  4.003511  0
C  C260  1  0.19087092  0.44401798  0.56176903  1  0.004326  0  -0.087713  -0.078016  0  4.004973  0
C  C261  1  0.30912944  0.94401825  0.93823119  1  0.004326  0  -0.087728  -0.078056  0  4.005002  0
C  C262  1  0.80912903  0.55598203  0.43823077  1  0.004328  0  -0.087702  -0.077971  0  4.004959  0
C  C263  1  0.69087051  0.05598176  0.06176951  1  0.004304  0  -0.087753  -0.078082  0  4.005074  0
C  C264  1  0.00409707  0.10536088  0.26671928  1  1.571104  0  0.21002  0.592333  0  4.17911  0
C  C265  1  0.49590356  0.60536060  0.23328054  1  1.570913  0  0.210029  0.592297  0  4.179201  0
C  C266  1  0.99590289  0.89463968  0.73328051  1  1.571092  0  0.209984  0.592297  0  4.179139  0
C  C267  1  0.50409704  0.39463940  0.76671895  1  1.571092  0  0.21003  0.592404  0  4.179088  0
C  C268  1  0.01133743  0.15681278  0.32150027  1  -0.032648  0  -0.027189  -0.05416  0  3.980324  0
C  C269  1  0.48866255  0.65681250  0.17849940  1  -0.032482  0  -0.02727  -0.054222  0  3.980429  0
C  C270  1  0.98866252  0.84318723  0.67849998  1  -0.032632  0  -0.027212  -0.054247  0  3.980361  0
C  C271  1  0.51133676  0.34318750  0.82150024  1  -0.032622  0  -0.027231  -0.054208  0  3.98031  0
C  C272  1  0.96494271  0.14351410  0.36397741  1  -0.00713  0  -0.083988  -0.07215  0  3.993493  0
C  C273  1  0.53505683  0.64351436  0.13602287  1  -0.007088  0  -0.083931  -0.072007  0  3.993369  0
C  C274  1  0.03505725  0.85648536  0.63602284  1  -0.007121  0  -0.084  -0.072131  0  3.99345  0
C  C275  1  0.46494247  0.35648510  0.86397722  1  -0.007135  0  -0.083981  -0.072118  0  3.993406  0
C  C276  1  0.97290744  0.18983961  0.41601535  1  -0.025202  0  -0.10408  -0.193205  0  4.013312  0
C  C277  1  0.52709211  0.68983987  0.08398447  1  -0.02522  0  -0.104054  -0.193222  0  4.013335  0
C  C278  1  0.02709251  0.81015984  0.58398490  1  -0.025224  0  -0.104061  -0.193185  0  4.013279  0
C  C279  1  0.47290656  0.31015959  0.91601500  1  -0.025212  0  -0.104043  -0.193152  0  4.013321  0
C  C280  1  0.02723343  0.25161959  0.42641869  1  0.34502  0  0.092133  0.183587  0  4.050864  0
C  C281  1  0.47276785  0.75161876  0.07358176  1  0.344993  0  0.092136  0.183602  0  4.050865  0
C  C282  1  0.97276717  0.74838042  0.57358217  1  0.345192  0  0.092138  0.1836  0  4.050799  0
C  C283  1  0.52723210  0.24838069  0.92641804  1  0.34522  0  0.092133  0.18358  0  4.050823  0
C  C284  1  0.07334445  0.26563523  0.38357221  1  -0.102957  0  -0.103536  -0.194419  0  4.006367  0
C  C285  1  0.42665490  0.76563660  0.11642731  1  -0.102781  0  -0.103467  -0.19426  0  4.006322  0
C  C286  1  0.92665550  0.73436477  0.61642804  1  -0.103335  0  -0.103532  -0.194414  0  4.006362  0
C  C287  1  0.57334441  0.23436340  0.88357233  1  -0.103234  0  -0.103494  -0.19436  0  4.006339  0
C  C288  1  0.06584644  0.21818207  0.33229589  1  -0.0425  0  -0.084199  -0.075715  0  4.002754  0
C  C289  1  0.43415354  0.71818124  0.16770469  1  -0.042631  0  -0.084263  -0.075967  0  4.00291  0
C  C290  1  0.93415286  0.78181794  0.66770420  1  -0.042511  0  -0.084215  -0.075721  0  4.002741  0
C  C291  1  0.56584641  0.28181767  0.83229556  1  -0.042631  0  -0.084219  -0.075787  0  4.002757  0
C  C292  1  0.63301758  0.44317843  0.56404688  1  0.477959  0  0.055252  0.109354  0  3.924939  0
C  C293  1  0.86698234  0.94317815  0.93595303  1  0.478068  0  0.055259  0.109361  0  3.92491  0
C  C294  1  0.36698237  0.55682212  0.43595337  1  0.478103  0  0.055239  0.109315  0  3.924968  0
C  C295  1  0.13301761  0.05682240  0.06404676  1  0.478109  0  0.055239  0.109343  0  3.924959  0
C  C296  1  0.69645315  0.42085743  0.53904669  1  -0.015407  0  -0.08017  -0.171164  0  3.919227  0
C  C297  1  0.80354678  0.92085660  0.96095323  1  -0.015525  0  -0.080177  -0.171191  0  3.919228  0
C  C298  1  0.30354680  0.57914312  0.46095356  1  -0.015528  0  -0.080167  -0.171207  0  3.919207  0
C  C299  1  0.19645253  0.07914341  0.03904595  1  -0.015297  0  -0.080181  -0.171217  0  3.919229  0
C  C300  1  0.76304899  0.37448354  0.57539052  1  0.00974  0  0.01471  0.112423  0  3.988462  0
C  C301  1  0.73695093  0.87448380  0.92460939  1  0.00973  0  0.014675  0.112387  0  3.988481  0
C  C302  1  0.23695160  0.62551647  0.42460942  1  0.009748  0  0.014691  0.112412  0  3.988424  0
C  C303  1  0.26304902  0.12551675  0.07538995  1  0.009519  0  0.014736  0.112471  0  3.988357  0
C  C304  1  0.76148683  0.35400438  0.63702050  1  -0.023867  0  -0.084509  -0.185178  0  3.96429  0
C  C305  1  0.73851245  0.85400520  0.86297926  1  -0.023848  0  -0.084528  -0.185242  0  3.964313  0
C  C306  1  0.23851377  0.64599562  0.36297991  1  -0.023866  0  -0.084495  -0.185136  0  3.964217  0
C  C307  1  0.26148686  0.14599591  0.13702083  1  -0.023852  0  -0.084543  -0.185239  0  3.964122  0
C  C308  1  0.69553761  0.37826675  0.65851456  1  0.478151  0  0.051426  0.097585  0  3.941656  0
C  C309  1  0.80446231  0.87826701  0.84148444  1  0.478145  0  0.051398  0.097569  0  3.94163  0
C  C310  1  0.30446299  0.62173326  0.34148585  1  0.478163  0  0.05142  0.097565  0  3.94166  0
C  C311  1  0.19553700  0.12173354  0.15851473  1  0.478129  0  0.051411  0.097614  0  3.941644  0
C  C312  1  0.83120812  0.34943770  0.55022013  1  -0.002414  0  -0.014857  0.041566  0  4.004316  0
C  C313  1  0.66879116  0.84943796  0.94977963  1  -0.002421  0  -0.014878  0.041535  0  4.004353  0
C  C314  1  0.16879119  0.65056231  0.44978042  1  -0.00242  0  -0.014879  0.04153  0  4.004346  0
C  C315  1  0.33120879  0.15056259  0.05022062  1  -0.002418  0  -0.014856  0.041542  0  4.004383  0
C  C316  1  0.81746540  0.34618340  0.48333473  1  -0.04077  0  -0.083235  -0.106096  0  3.974815  0
C  C317  1  0.68253415  0.84618311  0.01666510  1  -0.040768  0  -0.083186  -0.10603  0  3.974772  0
C  C318  1  0.18253391  0.65381716  0.51666491  1  -0.040792  0  -0.083216  -0.106092  0  3.97483  0
C  C319  1  0.31746580  0.15381689  0.98333515  1  -0.040785  0  -0.083217  -0.106106  0  3.974774  0
C  C320  1  0.88347788  0.32719477  0.45960703  1  -0.012327  0  -0.094169  -0.174023  0  3.995843  0
C  C321  1  0.61652296  0.82719503  0.04039357  1  -0.012288  0  -0.094202  -0.174055  0  3.99586  0
C  C322  1  0.11652336  0.67280469  0.54039354  1  -0.012343  0  -0.094206  -0.174063  0  3.995893  0
C  C323  1  0.38347700  0.17280498  0.95960622  1  -0.012346  0  -0.094198  -0.174015  0  3.99584  0
C  C324  1  0.96602243  0.31132133  0.50232197  1  0.311228  0  0.096075  0.184385  0  4.041331  0
C  C325  1  0.53397814  0.81132159  0.99767764  1  0.311175  0  0.096053  0.184317  0  4.041411  0
C  C326  1  0.03397752  0.68867867  0.49767828  1  0.311245  0  0.09606  0.184313  0  4.041411  0
C  C327  1  0.46602246  0.18867841  0.00232231  1  0.31124  0  0.096059  0.184303  0  4.04143  0
C  C328  1  0.97941533  0.31117124  0.56901604  1  0.021486  0  -0.094503  -0.174449  0  4.001762  0
C  C329  1  0.52058524  0.81117150  0.93098449  1  0.021481  0  -0.094505  -0.174449  0  4.001842  0
C  C330  1  0.02058463  0.68882877  0.43098421  1  0.021491  0  -0.094485  -0.1744  0  4.001785  0
C  C331  1  0.47941536  0.18882851  0.06901592  1  0.021482  0  -0.0945  -0.174426  0  4.001821  0
C  C332  1  0.91307845  0.32981019  0.59234047  1  -0.145977  0  -0.084414  -0.10496  0  3.988952  0
C  C333  1  0.58692212  0.82980990  0.90766006  1  -0.145952  0  -0.084422  -0.104967  0  3.988967  0
C  C334  1  0.08692215  0.67018981  0.40765994  1  -0.145982  0  -0.084403  -0.104937  0  3.989006  0
C  C335  1  0.41307784  0.17018955  0.09234019  1  -0.145954  0  -0.084422  -0.104958  0  3.988945  0
N  N336  1  0.45568787  0.82952015  0.41892747  1  -1.220531  0  -0.252791  -0.155715  0  3.673223  0
N  N337  1  0.04431406  0.32951988  0.08107268  1  -1.220564  0  -0.252811  -0.155755  0  3.673303  0
N  N338  1  0.54431273  0.17047985  0.58107294  1  -1.220552  0  -0.252794  -0.155765  0  3.673218  0
N  N339  1  0.95568654  0.67047958  0.91892727  1  -1.220549  0  -0.252779  -0.155777  0  3.673191  0
N  N340  1  0.85174454  0.90156887  0.25435938  1  -1.247844  0  -0.325897  -0.217086  0  3.518787  0
N  N341  1  0.64825630  0.40156805  0.24564076  1  -1.247866  0  -0.32589  -0.217066  0  3.518854  0
N  N342  1  0.14825541  0.09843168  0.74564087  1  -1.247856  0  -0.325918  -0.217136  0  3.518803  0
N  N343  1  0.35174430  0.59843195  0.75435919  1  -1.247841  0  -0.325902  -0.217109  0  3.518786  0
N  N344  1  0.03605033  0.29809080  0.47968299  1  -1.218755  0  -0.253845  -0.15782  0  3.68693  0
N  N345  1  0.46394902  0.79809217  0.02031699  1  -1.218751  0  -0.253883  -0.157876  0  3.686888  0
N  N346  1  0.96394963  0.70190811  0.52031681  1  -1.218542  0  -0.253832  -0.157807  0  3.686884  0
N  N347  1  0.53605029  0.20190729  0.97968310  1  -1.218539  0  -0.25388  -0.157851  0  3.686895  0
N  N348  1  0.63167825  0.42196089  0.62263057  1  -1.254996  0  -0.327749  -0.220191  0  3.534095  0
N  N349  1  0.86832104  0.92196116  0.87736919  1  -1.254992  0  -0.327714  -0.220164  0  3.534084  0
N  N350  1  0.36832171  0.57803912  0.37737014  1  -1.255053  0  -0.327715  -0.220128  0  3.534125  0
N  N351  1  0.13167763  0.07803940  0.12262983  1  -1.25503  0  -0.327741  -0.220206  0  3.534134  0
O  O352  1  0.50969434  0.54983135  0.59944728  1  -1.180527  0  -0.318215  -0.563746  0  2.368117  0
O  O353  1  0.99030428  0.04983109  0.90055278  1  -1.180567  0  -0.318148  -0.563661  0  2.368159  0
O  O354  1  0.49030561  0.45016920  0.40055252  1  -1.180515  0  -0.318212  -0.563767  0  2.368067  0
O  O355  1  0.00969439  0.95017001  0.09944716  1  -1.180591  0  -0.31816  -0.563672  0  2.368061  0
O  O356  1  0.46479549  0.62991877  0.66148165  1  -1.165392  0  -0.323583  -0.548666  0  2.32656  0
O  O357  1  0.03520486  0.12991794  0.83851902  1  -1.165349  0  -0.323577  -0.548677  0  2.326596  0
O  O358  1  0.53520446  0.37008124  0.33851768  1  -1.165481  0  -0.323593  -0.548731  0  2.326556  0
O  O359  1  0.96479445  0.87008261  0.16148062  1  -1.165353  0  -0.323585  -0.54869  0  2.326569  0
O  O360  1  0.05449590  0.91757754  0.29199672  1  -1.164943  0  -0.328613  -0.557402  0  2.263213  0
O  O361  1  0.44550410  0.41757728  0.20800341  1  -1.164948  0  -0.3286  -0.557323  0  2.263163  0
O  O362  1  0.94550405  0.08242301  0.70800353  1  -1.164945  0  -0.328632  -0.557409  0  2.263307  0
O  O363  1  0.55449650  0.58242272  0.79199654  1  -1.16495  0  -0.328573  -0.557287  0  2.263261  0
O  O364  1  0.12070416  0.97718416  0.23026669  1  -1.184962  0  -0.323408  -0.570612  0  2.384762  0
O  O365  1  0.37929520  0.47718445  0.26973283  1  -1.18497  0  -0.323411  -0.570603  0  2.384801  0
O  O366  1  0.87929515  0.02281585  0.76973340  1  -1.18496  0  -0.323415  -0.570632  0  2.384786  0
O  O367  1  0.62070475  0.52281556  0.73026742  1  -1.184971  0  -0.3234  -0.570576  0  2.384818  0
O  O368  1  0.34718732  0.50788613  0.63536053  1  -1.189776  0  -0.319423  -0.573025  0  2.342969  0
O  O369  1  0.15281238  0.00788642  0.86463906  1  -1.189765  0  -0.319503  -0.573137  0  2.342812  0
O  O370  1  0.65281263  0.49211387  0.36463926  1  -1.189747  0  -0.319448  -0.573064  0  2.342851  0
O  O371  1  0.84718757  0.99211414  0.13536164  1  -1.189785  0  -0.319487  -0.573106  0  2.342901  0
O  O372  1  0.42189896  0.41404808  0.61052418  1  -1.168212  0  -0.310861  -0.533576  0  2.338412  0
O  O373  1  0.07810077  0.91404724  0.88947452  1  -1.168197  0  -0.31082  -0.533557  0  2.338434  0
O  O374  1  0.57810164  0.58595247  0.38947577  1  -1.168213  0  -0.310849  -0.533549  0  2.338442  0
O  O375  1  0.92189854  0.08595221  0.11052512  1  -1.168222  0  -0.310859  -0.533557  0  2.338482  0
O  O376  1  0.95163607  0.05178840  0.25977180  1  -1.177479  0  -0.324829  -0.568042  0  2.342191  0
O  O377  1  0.54836347  0.55178921  0.24022802  1  -1.177468  0  -0.324817  -0.567998  0  2.342311  0
O  O378  1  0.04836389  0.94821161  0.74022799  1  -1.177491  0  -0.324798  -0.568001  0  2.342249  0
O  O379  1  0.45163584  0.44821135  0.75977207  1  -1.177489  0  -0.324833  -0.568096  0  2.342266  0
O  O380  1  0.05057892  0.11854851  0.23137607  1  -1.163071  0  -0.320782  -0.550132  0  2.294831  0
O  O381  1  0.44942106  0.61854824  0.26862451  1  -1.16306  0  -0.320799  -0.550126  0  2.294784  0
O  O382  1  0.94942103  0.88145149  0.76862418  1  -1.163063  0  -0.320762  -0.55009  0  2.294792  0
O  O383  1  0.55057825  0.38145232  0.73137604  1  -1.163054  0  -0.320765  -0.550135  0  2.294821  0
