# generated using pymatgen
data_CdH22C26N2O7
_symmetry_space_group_name_H-M   'P 1'
_cell_length_a   6.76361653
_cell_length_b   11.85250199
_cell_length_c   15.88300000
_cell_angle_alpha   111.56424456
_cell_angle_beta   90.00000000
_cell_angle_gamma   90.00000000
_symmetry_Int_Tables_number   1
_chemical_formula_structural   CdH22C26N2O7
_chemical_formula_sum   'Cd2 H44 C52 N4 O14'
_cell_volume   1184.15162652
_cell_formula_units_Z   2
loop_
 _symmetry_equiv_pos_site_id
 _symmetry_equiv_pos_as_xyz
  1  'x, y, z'
loop_
 _atom_site_type_symbol
 _atom_site_label
 _atom_site_symmetry_multiplicity
 _atom_site_fract_x
 _atom_site_fract_y
 _atom_site_fract_z
 _atom_site_occupancy
 _atom_site_hle17_bader_spin_density
 _atom_site_hle17_ddec_charge
 _atom_site_hle17_ddec_spin_density
 _atom_site_hle17_ddec_sum_bond_order
 _atom_site_hle17_magmom
 _atom_site_hse06_10hf_bader_spin_density
 _atom_site_hse06_10hf_ddec_charge
 _atom_site_hse06_10hf_ddec_spin_density
 _atom_site_hse06_10hf_ddec_sum_bond_order
 _atom_site_hse06_10hf_magmom
 _atom_site_hse06_bader_spin_density
 _atom_site_hse06_ddec_charge
 _atom_site_hse06_ddec_spin_density
 _atom_site_hse06_ddec_sum_bond_order
 _atom_site_hse06_magmom
 _atom_site_pbe_bader_charge
 _atom_site_pbe_bader_spin_density
 _atom_site_pbe_cm5_charge
 _atom_site_pbe_ddec_charge
 _atom_site_pbe_ddec_spin_density
 _atom_site_pbe_ddec_sum_bond_order
 _atom_site_pbe_magmom
Cd  Cd0  1  0.64101801  0.24999958  0.74999987  1  0  1.127514  0  1.604019  0  0  0.933962  0  2.031425  0  0  0.993402  0  1.980621  0  1.274558  0  0.770872  0.89186  0  2.066068  0
Cd  Cd1  1  0.35898250  0.74999966  0.25000049  1  0  1.12752  0  1.604008  0  0  0.933972  0  2.031418  0  0  0.993414  0  1.980611  0  1.274554  0  0.77087  0.891872  0  2.06606  0
H  H2  1  0.69131802  0.31827019  0.96700916  1  0  0.083093  0  0.951062  0  0  0.087789  0  1.023151  0  0  0.090616  0  1.020125  0  0.135028  0  0.115129  0.085727  0  1.025363  0
H  H3  1  0.69131802  0.18172897  0.53298995  1  0  0.083045  0  0.951061  0  0  0.087743  0  1.023157  0  0  0.09057  0  1.020129  0  0.135036  0  0.115104  0.08568  0  1.025369  0
H  H4  1  0.30868101  0.68172995  0.03299145  1  0  0.083082  0  0.95106  0  0  0.087784  0  1.023139  0  0  0.090611  0  1.020112  0  0.135034  0  0.11513  0.085722  0  1.025351  0
H  H5  1  0.30868249  0.81827027  0.46700978  1  0  0.083082  0  0.951063  0  0  0.087783  0  1.023146  0  0  0.09061  0  1.02012  0  0.135027  0  0.115127  0.085721  0  1.025358  0
H  H6  1  0.75811217  0.50158859  0.10819114  1  0  0.116856  0  0.941649  0  0  0.124987  0  1.002155  0  0  0.128515  0  1.000873  0  0.11319  0  0.109655  0.122448  0  1.003261  0
H  H7  1  0.75811365  0.99840982  0.39180833  1  0  0.116875  0  0.941647  0  0  0.125003  0  1.002155  0  0  0.12853  0  1.000874  0  0.113175  0  0.109673  0.122464  0  1.00326  0
H  H8  1  0.24188243  0.49841247  0.89180972  1  0  0.116854  0  0.94166  0  0  0.124992  0  1.002155  0  0  0.128518  0  1.000875  0  0.113228  0  0.109662  0.122442  0  1.003275  0
H  H9  1  0.24188834  0.00158942  0.60819140  1  0  0.116839  0  0.941689  0  0  0.124971  0  1.002195  0  0  0.128498  0  1.000913  0  0.113171  0  0.109648  0.122431  0  1.003301  0
H  H10  1  0.82241948  0.70039837  0.09292380  1  0  0.110372  0  0.946724  0  0  0.120773  0  1.007388  0  0  0.123532  0  1.005407  0  0.126554  0  0.111969  0.118716  0  1.008889  0
H  H11  1  0.82241948  0.79960004  0.40707630  1  0  0.110348  0  0.946757  0  0  0.120763  0  1.007413  0  0  0.123522  0  1.005433  0  0.126514  0  0.111977  0.118706  0  1.008915  0
H  H12  1  0.17758103  0.29960178  0.90707681  1  0  0.110292  0  0.946766  0  0  0.120695  0  1.007441  0  0  0.123454  0  1.005459  0  0.126399  0  0.111935  0.118637  0  1.008944  0
H  H13  1  0.17758103  0.20039920  0.59292343  1  0  0.110318  0  0.946748  0  0  0.120722  0  1.007429  0  0  0.123481  0  1.005447  0  0.126556  0  0.111963  0.118666  0  1.008929  0
H  H14  1  0.72958897  0.52184732  0.80489224  1  0  0.0848  0  0.957393  0  0  0.093778  0  1.021561  0  0  0.095767  0  1.020321  0  0.128719  0  0.11525  0.09226  0  1.022556  0
H  H15  1  0.72958897  0.97815199  0.69510748  1  0  0.084808  0  0.957387  0  0  0.093789  0  1.021553  0  0  0.095777  0  1.020314  0  0.128721  0  0.115255  0.092271  0  1.022549  0
H  H16  1  0.27041155  0.47815192  0.19510812  1  0  0.084865  0  0.957465  0  0  0.093848  0  1.021616  0  0  0.095837  0  1.020375  0  0.128706  0  0.11528  0.092332  0  1.022612  0
H  H17  1  0.27041155  0.02184725  0.30489225  1  0  0.084808  0  0.95738  0  0  0.093788  0  1.021548  0  0  0.095777  0  1.020309  0  0.128719  0  0.115255  0.09227  0  1.022543  0
H  H18  1  0.77576692  0.73296512  0.86342126  1  0  0.058327  0  0.929339  0  0  0.072543  0  0.99269  0  0  0.072884  0  0.991662  0  0.064898  0  0.104821  0.072246  0  0.993479  0
H  H19  1  0.77576692  0.76703511  0.63657934  1  0  0.058377  0  0.929394  0  0  0.072553  0  0.992718  0  0  0.072893  0  0.991688  0  0.064884  0  0.104824  0.072255  0  0.993507  0
H  H20  1  0.22423359  0.26703412  0.13657910  1  0  0.058355  0  0.929362  0  0  0.072552  0  0.992693  0  0  0.072893  0  0.991665  0  0.064885  0  0.104822  0.072255  0  0.993482  0
H  H21  1  0.22423359  0.23296504  0.36342127  1  0  0.058372  0  0.929381  0  0  0.072552  0  0.99271  0  0  0.072893  0  0.991683  0  0.06489  0  0.10483  0.072255  0  0.993499  0
H  H22  1  0.77347525  0.82191541  0.98264784  1  0  0.066782  0  0.934897  0  0  0.079981  0  1.000129  0  0  0.079119  0  1.001805  0  0.087831  0  0.104932  0.080507  0  0.999104  0
H  H23  1  0.77347525  0.67808391  0.51735250  1  0  0.066799  0  0.934909  0  0  0.079962  0  1.000116  0  0  0.079099  0  1.001789  0  0.087863  0  0.104928  0.080488  0  0.999091  0
H  H24  1  0.22652526  0.17808383  0.01735251  1  0  0.066822  0  0.934971  0  0  0.08  0  1.000178  0  0  0.079139  0  1.001852  0  0.087856  0  0.104951  0.080526  0  0.999153  0
H  H25  1  0.22652674  0.32191715  0.48264835  1  0  0.066786  0  0.934875  0  0  0.079954  0  1.000089  0  0  0.079092  0  1.001763  0  0.087851  0  0.104925  0.080481  0  0.999064  0
H  H26  1  0.04059367  0.04768891  0.81339156  1  0  0.098713  0  0.950523  0  0  0.111179  0  1.009306  0  0  0.114294  0  1.006472  0  0.083683  0  0.105218  0.108816  0  1.011548  0
H  H27  1  0.04059515  0.45231117  0.68660843  1  0  0.098755  0  0.9505  0  0  0.111222  0  1.009278  0  0  0.114335  0  1.006447  0  0.083684  0  0.105239  0.108859  0  1.011519  0
H  H28  1  0.95940537  0.95231033  0.18660754  1  0  0.098762  0  0.95049  0  0  0.11123  0  1.009264  0  0  0.114344  0  1.006432  0  0.083688  0  0.105237  0.108868  0  1.011505  0
H  H29  1  0.95940537  0.54768898  0.31339092  1  0  0.098727  0  0.950519  0  0  0.111192  0  1.009301  0  0  0.114308  0  1.006467  0  0.083669  0  0.105233  0.10883  0  1.011542  0
H  H30  1  0.86340052  0.90452254  0.86290491  1  0  0.099059  0  0.997356  0  0  0.108215  0  1.064156  0  0  0.111601  0  1.062118  0  0.093897  0  0.098438  0.105717  0  1.065888  0
H  H31  1  0.86340199  0.59547678  0.63709481  1  0  0.099018  0  0.997372  0  0  0.108176  0  1.064176  0  0  0.111562  0  1.062138  0  0.09391  0  0.09843  0.105678  0  1.065908  0
H  H32  1  0.13659852  0.09547580  0.13709394  1  0  0.099024  0  0.997355  0  0  0.108183  0  1.064158  0  0  0.111569  0  1.06212  0  0.093906  0  0.098429  0.105683  0  1.065891  0
H  H33  1  0.13660148  0.40452246  0.36290429  1  0  0.099022  0  0.997386  0  0  0.10818  0  1.064188  0  0  0.111566  0  1.062151  0  0.093882  0  0.09843  0.105682  0  1.065918  0
H  H34  1  0.41434490  0.78763314  0.94165153  1  0  0.106515  0  0.954417  0  0  0.11715  0  1.016645  0  0  0.120422  0  1.015531  0  0.065879  0  0.103286  0.114829  0  1.017603  0
H  H35  1  0.41434490  0.71236618  0.55834756  1  0  0.106505  0  0.954432  0  0  0.117134  0  1.01667  0  0  0.120405  0  1.015556  0  0.065887  0  0.103284  0.114814  0  1.017628  0
H  H36  1  0.58565561  0.21236611  0.05834757  1  0  0.106519  0  0.954431  0  0  0.117148  0  1.016667  0  0  0.120419  0  1.015553  0  0.065891  0  0.103286  0.114828  0  1.017625  0
H  H37  1  0.58565709  0.28763306  0.44165154  1  0  0.106522  0  0.954419  0  0  0.117158  0  1.016646  0  0  0.120429  0  1.015532  0  0.065872  0  0.103288  0.114837  0  1.017602  0
H  H38  1  0.59245819  0.94107554  0.89567558  1  0  0.085093  0  0.989302  0  0  0.094066  0  1.057031  0  0  0.097021  0  1.054596  0  0.052678  0  0.096689  0.091846  0  1.058953  0
H  H39  1  0.59245819  0.55892378  0.60432414  1  0  0.085089  0  0.989304  0  0  0.094059  0  1.057038  0  0  0.097015  0  1.054603  0  0.052678  0  0.096688  0.09184  0  1.05896  0
H  H40  1  0.40754085  0.05892370  0.10432352  1  0  0.085086  0  0.989301  0  0  0.094055  0  1.057039  0  0  0.097011  0  1.054604  0  0.052675  0  0.096687  0.091836  0  1.058961  0
H  H41  1  0.40754232  0.44107546  0.39567559  1  0  0.08511  0  0.989284  0  0  0.094077  0  1.057028  0  0  0.097033  0  1.054593  0  0.05269  0  0.096695  0.091857  0  1.058951  0
H  H42  1  0.10451213  0.18873076  0.75520062  1  0  0.425182  0  0.873524  0  0  0.396239  0  0.935159  0  0  0.407461  0  0.918511  0  0.630879  0  0.287539  0.388235  0  0.947021  0
H  H43  1  0.10451213  0.31126841  0.74479912  1  0  0.42516  0  0.873556  0  0  0.396255  0  0.935141  0  0  0.407461  0  0.918506  0  0.630885  0  0.287549  0.38825  0  0.947005  0
H  H44  1  0.89548838  0.81126848  0.24479911  1  0  0.425162  0  0.873554  0  0  0.396257  0  0.93514  0  0  0.407462  0  0.918505  0  0.630886  0  0.28755  0.388251  0  0.947004  0
H  H45  1  0.89548838  0.68873084  0.25520061  1  0  0.425189  0  0.873514  0  0  0.396247  0  0.935148  0  0  0.407468  0  0.918501  0  0.630881  0  0.287543  0.388243  0  0.94701  0
C  C46  1  0.71449645  0.40793627  0.96447274  1  0  0.125427  0  3.702195  0  0  0.089831  0  3.960899  0  0  0.097208  0  3.979919  0  0.480515  0  0.050065  0.085044  0  3.948094  0
C  C47  1  0.71449793  0.09206290  0.53552700  1  0  0.125531  0  3.702113  0  0  0.089933  0  3.960814  0  0  0.09731  0  3.979836  0  0.480536  0  0.050125  0.085146  0  3.948009  0
C  C48  1  0.28549963  0.59206388  0.03552787  1  0  0.125493  0  3.70216  0  0  0.089891  0  3.960869  0  0  0.09727  0  3.979889  0  0.479948  0  0.050079  0.085106  0  3.94806  0
C  C49  1  0.28550258  0.90793634  0.46447273  1  0  0.125487  0  3.702105  0  0  0.089887  0  3.960818  0  0  0.097265  0  3.979837  0  0.479935  0  0.050093  0.0851  0  3.948012  0
C  C50  1  0.75416162  0.50927078  0.04196600  1  0  -0.101603  0  3.71253  0  0  -0.11672  0  3.97204  0  0  -0.123716  0  3.994136  0  -0.038344  0  -0.079069  -0.112293  0  3.957461  0
C  C51  1  0.75416310  0.99072854  0.45803309  1  0  -0.101662  0  3.712485  0  0  -0.116766  0  3.971993  0  0  -0.12376  0  3.994089  0  -0.038375  0  -0.079088  -0.112339  0  3.957416  0
C  C52  1  0.24583594  0.49072937  0.95803272  1  0  -0.10166  0  3.712484  0  0  -0.116773  0  3.971993  0  0  -0.123768  0  3.994087  0  -0.03782  0  -0.079095  -0.112338  0  3.957419  0
C  C53  1  0.24583889  0.00927161  0.54196815  1  0  -0.101627  0  3.71253  0  0  -0.11674  0  3.972052  0  0  -0.123734  0  3.994147  0  -0.037763  0  -0.079072  -0.112314  0  3.957475  0
C  C54  1  0.78864761  0.62038493  0.03326353  1  0  -0.034121  0  3.653277  0  0  -0.0607  0  3.900267  0  0  -0.05807  0  3.919173  0  -0.059807  0  -0.059474  -0.062115  0  3.887583  0
C  C55  1  0.78864761  0.87961439  0.46673682  1  0  -0.034098  0  3.653197  0  0  -0.06069  0  3.900233  0  0  -0.058059  0  3.919139  0  -0.059755  0  -0.059486  -0.062104  0  3.887548  0
C  C56  1  0.21134995  0.37961613  0.96673733  1  0  -0.033989  0  3.653203  0  0  -0.060582  0  3.900182  0  0  -0.05795  0  3.919089  0  -0.059615  0  -0.05943  -0.061996  0  3.887494  0
C  C57  1  0.21135290  0.12038485  0.53326291  1  0  -0.034042  0  3.653208  0  0  -0.060643  0  3.900217  0  0  -0.058013  0  3.919123  0  -0.059765  0  -0.059462  -0.062058  0  3.887533  0
C  C58  1  0.78284154  0.62679976  0.94704147  1  0  0.00397  0  3.765835  0  0  0.027404  0  4.008864  0  0  0.021386  0  4.033686  0  0.026148  0  -0.011236  0.031066  0  3.992296  0
C  C59  1  0.78284006  0.87319956  0.55295825  1  0  0.004108  0  3.765718  0  0  0.027433  0  4.008808  0  0  0.021409  0  4.033635  0  0.026127  0  -0.011248  0.031095  0  3.992238  0
C  C60  1  0.21715749  0.37320039  0.05295914  1  0  0.004018  0  3.765809  0  0  0.027449  0  4.008788  0  0  0.021426  0  4.033612  0  0.026146  0  -0.011231  0.03111  0  3.992219  0
C  C61  1  0.21715897  0.12680059  0.44704110  1  0  0.004015  0  3.765846  0  0  0.027425  0  4.008828  0  0  0.021404  0  4.033651  0  0.026127  0  -0.01126  0.031087  0  3.99226  0
C  C62  1  0.73793953  0.52150803  0.87352675  1  0  0.076548  0  3.694988  0  0  0.039538  0  3.937942  0  0  0.045525  0  3.958188  0  0.452013  0  0.04674  0.035773  0  3.924164  0
C  C63  1  0.73793953  0.97849129  0.62647297  1  0  0.076513  0  3.694965  0  0  0.03951  0  3.937958  0  0  0.045498  0  3.958205  0  0.452011  0  0.046748  0.035745  0  3.924181  0
C  C64  1  0.26205950  0.47849121  0.12647361  1  0  0.076471  0  3.695076  0  0  0.039435  0  3.938057  0  0  0.045421  0  3.958305  0  0.452011  0  0.046725  0.035668  0  3.924282  0
C  C65  1  0.26205950  0.02150886  0.37352701  1  0  0.076537  0  3.694986  0  0  0.039516  0  3.937954  0  0  0.045502  0  3.958202  0  0.452005  0  0.046743  0.035751  0  3.924176  0
C  C66  1  0.83334263  0.73961128  0.92996995  1  0  0.056011  0  3.650951  0  0  -0.011236  0  3.91505  0  0  -0.001932  0  3.920442  0  0.398844  0  -0.058264  -0.017486  0  3.911317  0
C  C67  1  0.83334115  0.76038894  0.57003065  1  0  0.055795  0  3.651143  0  0  -0.011242  0  3.914994  0  0  -0.001918  0  3.920372  0  0.398811  0  -0.058262  -0.01749  0  3.91126  0
C  C68  1  0.16665788  0.26038796  0.07003041  1  0  0.055873  0  3.651164  0  0  -0.011274  0  3.915109  0  0  -0.001956  0  3.920493  0  0.398815  0  -0.058279  -0.017522  0  3.911375  0
C  C69  1  0.16665788  0.23961121  0.42996933  1  0  0.055863  0  3.651104  0  0  -0.011206  0  3.914974  0  0  -0.001894  0  3.92036  0  0.398814  0  -0.058253  -0.017456  0  3.911242  0
C  C70  1  0.12519190  0.99055708  0.84051707  1  0  -0.031311  0  3.745221  0  0  -0.056321  0  3.993639  0  0  -0.051474  0  4.010656  0  -0.030147  0  -0.083185  -0.059198  0  3.981983  0
C  C71  1  0.12519190  0.50944224  0.65948265  1  0  -0.031358  0  3.745209  0  0  -0.056374  0  3.993624  0  0  -0.051528  0  4.010645  0  -0.030155  0  -0.083204  -0.059251  0  3.981968  0
C  C72  1  0.87480713  0.00944126  0.15948178  1  0  -0.031464  0  3.74536  0  0  -0.056477  0  3.993774  0  0  -0.051631  0  4.010797  0  -0.030143  0  -0.083253  -0.059354  0  3.982118  0
C  C73  1  0.87481009  0.49055791  0.34051733  1  0  -0.031295  0  3.745228  0  0  -0.056304  0  3.993642  0  0  -0.051454  0  4.010654  0  -0.030114  0  -0.083202  -0.059181  0  3.981986  0
C  C74  1  0.02355840  0.90845798  0.86860749  1  0  -0.212482  0  3.767877  0  0  -0.232685  0  4.022152  0  0  -0.240967  0  4.042883  0  -0.069417  0  -0.11328  -0.227204  0  4.008155  0
C  C75  1  0.02355988  0.59154315  0.63139335  1  0  -0.212461  0  3.767864  0  0  -0.232677  0  4.022141  0  0  -0.240959  0  4.04287  0  -0.069523  0  -0.113304  -0.227192  0  4.008146  0
C  C76  1  0.97644063  0.09154217  0.13139249  1  0  -0.212423  0  3.767839  0  0  -0.232636  0  4.022113  0  0  -0.240919  0  4.042842  0  -0.069415  0  -0.113292  -0.227152  0  4.008113  0
C  C77  1  0.97644211  0.40845609  0.36860574  1  0  -0.212487  0  3.767834  0  0  -0.232687  0  4.022116  0  0  -0.24097  0  4.042847  0  -0.06951  0  -0.113305  -0.227204  0  4.008117  0
C  C78  1  0.12922081  0.83349131  0.90338123  1  0  0.290522  0  3.809278  0  0  0.281747  0  4.063525  0  0  0.29535  0  4.078927  0  0.485035  0  0.088987  0.272583  0  4.052836  0
C  C79  1  0.12922081  0.66650982  0.59661962  1  0  0.290593  0  3.80924  0  0  0.281838  0  4.063467  0  0  0.295453  0  4.078868  0  0.485027  0  0.08902  0.272666  0  4.052792  0
C  C80  1  0.87077970  0.16650884  0.09661875  1  0  0.290603  0  3.809257  0  0  0.28184  0  4.063486  0  0  0.295453  0  4.078888  0  0.485025  0  0.089033  0.272677  0  4.052797  0
C  C81  1  0.87077970  0.33349124  0.40338187  1  0  0.290591  0  3.809259  0  0  0.281809  0  4.063536  0  0  0.295417  0  4.078939  0  0.485038  0  0.089018  0.272646  0  4.05285  0
C  C82  1  0.33544332  0.84454013  0.91242814  1  0  -0.182801  0  3.749637  0  0  -0.20231  0  4.0014  0  0  -0.209358  0  4.020707  0  -0.0418  0  -0.104199  -0.197722  0  3.988379  0
C  C83  1  0.33544332  0.65546009  0.58757182  1  0  -0.182786  0  3.749688  0  0  -0.202299  0  4.001443  0  0  -0.209345  0  4.020746  0  -0.041847  0  -0.104179  -0.197709  0  3.988426  0
C  C84  1  0.66455719  0.15546002  0.08757183  1  0  -0.182841  0  3.749734  0  0  -0.202353  0  4.00149  0  0  -0.209399  0  4.020793  0  -0.041853  0  -0.104201  -0.197767  0  3.988471  0
C  C85  1  0.66455719  0.34454096  0.41242903  1  0  -0.182806  0  3.749731  0  0  -0.202307  0  4.001483  0  0  -0.209355  0  4.020789  0  -0.041796  0  -0.104182  -0.197719  0  3.988462  0
C  C86  1  0.43362305  0.92876752  0.88623482  1  0  -0.057404  0  3.791987  0  0  -0.081186  0  4.040472  0  0  -0.07845  0  4.060842  0  -0.005026  0  -0.089808  -0.082624  0  4.026592  0
C  C87  1  0.43362305  0.57123270  0.61376515  1  0  -0.057385  0  3.792019  0  0  -0.081167  0  4.040489  0  0  -0.078432  0  4.060858  0  -0.00504  0  -0.089811  -0.082605  0  4.026608  0
C  C88  1  0.56637747  0.07123263  0.11376453  1  0  -0.057374  0  3.792034  0  0  -0.081149  0  4.040502  0  0  -0.078413  0  4.060873  0  -0.005046  0  -0.089805  -0.082587  0  4.026622  0
C  C89  1  0.56637895  0.42876745  0.38623483  1  0  -0.057387  0  3.79208  0  0  -0.081166  0  4.040546  0  0  -0.07843  0  4.060917  0  -0.005011  0  -0.089817  -0.082604  0  4.026666  0
C  C90  1  0.33117785  0.00190331  0.84849471  1  0  -0.105435  0  3.808929  0  0  -0.084797  0  4.047763  0  0  -0.095323  0  4.070992  0  -0.040787  0  -0.039182  -0.078113  0  4.032133  0
C  C91  1  0.33117785  0.49809676  0.65150528  1  0  -0.105485  0  3.808981  0  0  -0.084829  0  4.047793  0  0  -0.095355  0  4.071021  0  -0.040787  0  -0.03919  -0.078145  0  4.032163  0
C  C92  1  0.66882118  0.99809593  0.15150439  1  0  -0.10543  0  3.809066  0  0  -0.084788  0  4.047883  0  0  -0.095317  0  4.071117  0  -0.040788  0  -0.039169  -0.078104  0  4.032253  0
C  C93  1  0.66882414  0.50190429  0.34849494  1  0  -0.105549  0  3.809061  0  0  -0.084911  0  4.047889  0  0  -0.095438  0  4.071119  0  -0.040825  0  -0.039195  -0.078226  0  4.032258  0
C  C94  1  0.44024229  0.08785802  0.81652506  1  0  0.619167  0  3.965973  0  0  0.570094  0  4.260091  0  0  0.604467  0  4.254101  0  1.534149  0  0.185019  0.546857  0  4.263239  0
C  C95  1  0.44024229  0.41214296  0.68347581  1  0  0.619173  0  3.965913  0  0  0.570101  0  4.260023  0  0  0.604473  0  4.254034  0  1.534153  0  0.185032  0.546863  0  4.263172  0
C  C96  1  0.55975675  0.91214213  0.18347492  1  0  0.61924  0  3.965815  0  0  0.570173  0  4.259923  0  0  0.604547  0  4.253932  0  1.534157  0  0.185053  0.546936  0  4.26307  0
C  C97  1  0.55975971  0.58785809  0.31652442  1  0  0.619222  0  3.965982  0  0  0.570162  0  4.260079  0  0  0.604535  0  4.254088  0  1.534161  0  0.185031  0.546924  0  4.263227  0
N  N98  1  0.70410556  0.41449806  0.88185140  1  0  -0.326552  0  3.301488  0  0  -0.241212  0  3.559238  0  0  -0.263266  0  3.581586  0  -1.226017  0  -0.329056  -0.226261  0  3.54382  0
N  N99  1  0.70410704  0.08550111  0.61814771  1  0  -0.32659  0  3.301491  0  0  -0.241244  0  3.559233  0  0  -0.263299  0  3.581584  0  -1.226001  0  -0.329088  -0.226292  0  3.543813  0
N  N100  1  0.29589200  0.58550209  0.11814921  1  0  -0.326598  0  3.301546  0  0  -0.241257  0  3.559293  0  0  -0.263311  0  3.581643  0  -1.226023  0  -0.329086  -0.226305  0  3.543875  0
N  N101  1  0.29589347  0.91449814  0.38185139  1  0  -0.3266  0  3.301471  0  0  -0.241258  0  3.55923  0  0  -0.263312  0  3.581579  0  -1.226002  0  -0.329079  -0.226306  0  3.543811  0
O  O102  1  0.04615430  0.74756926  0.93038407  1  0  -0.280543  0  2.307354  0  0  -0.207427  0  2.537282  0  0  -0.226183  0  2.539845  0  -1.086384  0  -0.172226  -0.194022  0  2.534823  0
O  O103  1  0.04615430  0.75243096  0.56961653  1  0  -0.280514  0  2.307366  0  0  -0.207448  0  2.537223  0  0  -0.22623  0  2.539795  0  -1.086374  0  -0.172233  -0.194044  0  2.534772  0
O  O104  1  0.95384621  0.25243089  0.06961654  1  0  -0.280538  0  2.307363  0  0  -0.207449  0  2.537252  0  0  -0.226228  0  2.539824  0  -1.086382  0  -0.172233  -0.194048  0  2.534796  0
O  O105  1  0.95384621  0.24757010  0.43038433  1  0  -0.280497  0  2.307419  0  0  -0.207449  0  2.537327  0  0  -0.226213  0  2.539892  0  -1.086386  0  -0.172232  -0.194046  0  2.534873  0
O  O106  1  0.62277629  0.10996563  0.83632219  1  0  -0.640183  0  1.897281  0  0  -0.581071  0  2.126586  0  0  -0.60781  0  2.116874  0  -1.174072  0  -0.33798  -0.562257  0  2.132392  0
O  O107  1  0.62277777  0.39003444  0.66367780  1  0  -0.64018  0  1.897188  0  0  -0.581071  0  2.126494  0  0  -0.607811  0  2.116786  0  -1.17408  0  -0.337997  -0.562256  0  2.132301  0
O  O108  1  0.37722127  0.89003452  0.16367779  1  0  -0.640204  0  1.897163  0  0  -0.581098  0  2.126473  0  0  -0.607836  0  2.116757  0  -1.174099  0  -0.338  -0.562284  0  2.132279  0
O  O109  1  0.37722275  0.60996571  0.33632281  1  0  -0.64019  0  1.89721  0  0  -0.581094  0  2.126526  0  0  -0.607837  0  2.11682  0  -1.174068  0  -0.337982  -0.56228  0  2.132333  0
O  O110  1  0.34693126  0.13600144  0.76792770  1  0  -0.670885  0  2.031385  0  0  -0.604689  0  2.271429  0  0  -0.633299  0  2.261167  0  -1.193075  0  -0.329308  -0.584571  0  2.27771  0
O  O111  1  0.34693126  0.36399864  0.73207229  1  0  -0.670871  0  2.031391  0  0  -0.604698  0  2.271446  0  0  -0.633302  0  2.261172  0  -1.193075  0  -0.32931  -0.584581  0  2.277732  0
O  O112  1  0.65306925  0.86399871  0.23207228  1  0  -0.67088  0  2.031348  0  0  -0.6047  0  2.271399  0  0  -0.633307  0  2.261125  0  -1.193057  0  -0.329297  -0.584583  0  2.277685  0
O  O113  1  0.65306925  0.63600151  0.26792769  1  0  -0.670887  0  2.031432  0  0  -0.604699  0  2.271479  0  0  -0.633308  0  2.261215  0  -1.193098  0  -0.329308  -0.584587  0  2.277776  0
O  O114  1  0.01080043  0.24999958  0.74999987  1  0  -0.85374  0  1.818849  0  0  -0.803901  0  2.004886  0  0  -0.824048  0  1.97086  0  -1.264516  0  -0.605823  -0.789484  0  2.028796  0
O  O115  1  0.98920008  0.74999966  0.24999986  1  0  -0.853752  0  1.81884  0  0  -0.803914  0  2.004878  0  0  -0.82406  0  1.970853  0  -1.26452  0  -0.605829  -0.789498  0  2.02879  0
