# generated using pymatgen
data_UH22C14(N2O5)2
_symmetry_space_group_name_H-M   'P 1'
_cell_length_a   5.65666407
_cell_length_b   7.91987838
_cell_length_c   11.13528220
_cell_angle_alpha   73.81573833
_cell_angle_beta   85.63412375
_cell_angle_gamma   76.02837484
_symmetry_Int_Tables_number   1
_chemical_formula_structural   UH22C14(N2O5)2
_chemical_formula_sum   'U1 H22 C14 N4 O10'
_cell_volume   464.89731670
_cell_formula_units_Z   1
loop_
 _symmetry_equiv_pos_site_id
 _symmetry_equiv_pos_as_xyz
  1  'x, y, z'
loop_
 _atom_site_type_symbol
 _atom_site_label
 _atom_site_symmetry_multiplicity
 _atom_site_fract_x
 _atom_site_fract_y
 _atom_site_fract_z
 _atom_site_occupancy
 _atom_site_hle17_bader_spin_density
 _atom_site_hle17_ddec_charge
 _atom_site_hle17_ddec_spin_density
 _atom_site_hle17_ddec_sum_bond_order
 _atom_site_hle17_magmom
 _atom_site_hse06_10hf_bader_spin_density
 _atom_site_hse06_10hf_ddec_charge
 _atom_site_hse06_10hf_ddec_spin_density
 _atom_site_hse06_10hf_ddec_sum_bond_order
 _atom_site_hse06_10hf_magmom
 _atom_site_hse06_bader_spin_density
 _atom_site_hse06_ddec_charge
 _atom_site_hse06_ddec_spin_density
 _atom_site_hse06_ddec_sum_bond_order
 _atom_site_hse06_magmom
 _atom_site_pbe_bader_spin_density
 _atom_site_pbe_cm5_charge
 _atom_site_pbe_ddec_charge
 _atom_site_pbe_ddec_spin_density
 _atom_site_pbe_ddec_sum_bond_order
 _atom_site_pbe_magmom
U  U0  1  0.99999484  0.00000084  0.99999632  1  0  2.36516  0  4.160241  0  0  2.419614  0  4.822125  0  0  2.536743  0  4.781275  0  0  2.160948  2.338385  0  4.849724  0
H  H1  1  0.81300830  0.54094518  0.63919577  1  0  0.073535  0  0.918017  0  0  0.087961  0  0.979207  0  0  0.088026  0  0.979692  0  0  0.107389  0.087801  0  0.978975  0
H  H2  1  0.18699820  0.45904463  0.36081432  1  0  0.073476  0  0.918011  0  0  0.087909  0  0.979209  0  0  0.087975  0  0.979693  0  0  0.107356  0.087751  0  0.978979  0
H  H3  1  0.57132057  0.73630894  0.60362281  1  0  0.066149  0  0.944335  0  0  0.081949  0  1.008697  0  0  0.082065  0  1.009022  0  0  0.105336  0.081744  0  1.008589  0
H  H4  1  0.42868171  0.26367583  0.39638125  1  0  0.066116  0  0.944298  0  0  0.081907  0  1.008667  0  0  0.082027  0  1.008992  0  0  0.105313  0.081701  0  1.008564  0
H  H5  1  0.37190033  0.63378354  0.79483239  1  0  0.08264  0  0.959881  0  0  0.096856  0  1.024261  0  0  0.098665  0  1.023831  0  0  0.094613  0.095472  0  1.024688  0
H  H6  1  0.62811078  0.36624087  0.20517920  1  0  0.082688  0  0.959669  0  0  0.096899  0  1.024097  0  0  0.098714  0  1.023666  0  0  0.094664  0.095516  0  1.024526  0
H  H7  1  0.58531547  0.42504051  0.81677208  1  0  0.092432  0  0.965804  0  0  0.105263  0  1.031083  0  0  0.106416  0  1.030662  0  0  0.097807  0.104401  0  1.031584  0
H  H8  1  0.41465701  0.57496861  0.18323442  1  0  0.092422  0  0.965599  0  0  0.105247  0  1.030927  0  0  0.106403  0  1.030509  0  0  0.09786  0.104418  0  1.031399  0
H  H9  1  0.55754977  0.69121319  0.95833906  1  0  0.127217  0  0.939296  0  0  0.141266  0  0.99917  0  0  0.143158  0  0.998554  0  0  0.117117  0.140038  0  0.999634  0
H  H10  1  0.44249851  0.30875019  0.04168273  1  0  0.127255  0  0.939377  0  0  0.141386  0  0.999257  0  0  0.143289  0  0.998643  0  0  0.117221  0.140156  0  0.999705  0
H  H11  1  0.78911908  0.49337053  0.97081944  1  0  0.125627  0  0.938655  0  0  0.139817  0  0.997893  0  0  0.142406  0  0.997207  0  0  0.113482  0.137934  0  0.99851  0
H  H12  1  0.21095422  0.50661130  0.02916712  1  0  0.125592  0  0.938223  0  0  0.139898  0  0.997482  0  0  0.142492  0  0.996791  0  0  0.113368  0.138013  0  0.998102  0
H  H13  1  0.12849256  0.88502904  0.67276960  1  0  0.063537  0  0.937505  0  0  0.076786  0  0.998221  0  0  0.077922  0  0.997256  0  0  0.117308  0.075865  0  0.999022  0
H  H14  1  0.87148979  0.11498601  0.32721913  1  0  0.063439  0  0.937416  0  0  0.076687  0  0.998176  0  0  0.077818  0  0.997219  0  0  0.117274  0.075782  0  0.998949  0
H  H15  1  0.74029422  0.10897643  0.66629614  1  0  0.089716  0  0.936439  0  0  0.102136  0  1.002208  0  0  0.103102  0  1.002187  0  0  0.099817  0.10142  0  1.002312  0
H  H16  1  0.25968503  0.89102512  0.33369702  1  0  0.089675  0  0.936447  0  0  0.10213  0  1.002131  0  0  0.103098  0  1.002105  0  0  0.099797  0.101416  0  1.002245  0
H  H17  1  0.63903024  0.04996412  0.54102021  1  0  0.061434  0  0.953415  0  0  0.076557  0  1.024228  0  0  0.077809  0  1.023297  0  0  0.086901  0.075553  0  1.025075  0
H  H18  1  0.36094207  0.95003740  0.45897601  1  0  0.061475  0  0.953524  0  0  0.076533  0  1.024369  0  0  0.077782  0  1.023438  0  0  0.086936  0.075532  0  1.025205  0
H  H19  1  0.80045884  0.32888918  0.46084191  1  0  0.086417  0  0.931308  0  0  0.104575  0  0.989364  0  0  0.105476  0  0.989538  0  0  0.097047  0.103827  0  0.98936  0
H  H20  1  0.19953003  0.67111731  0.53915795  1  0  0.086462  0  0.931242  0  0  0.104621  0  0.989281  0  0  0.105522  0  0.989452  0  0  0.097049  0.103874  0  0.989273  0
H  H21  1  0.07951892  0.21488823  0.53806261  1  0  0.073994  0  0.959037  0  0  0.086512  0  1.031589  0  0  0.087648  0  1.031413  0  0  0.091284  0.085566  0  1.031864  0
H  H22  1  0.92046262  0.78510635  0.46193711  1  0  0.07391  0  0.959144  0  0  0.086393  0  1.031737  0  0  0.087531  0  1.031561  0  0  0.091228  0.08545  0  1.032013  0
C  C23  1  0.85765554  0.72673420  0.83582169  1  0  0.583031  0  3.706434  0  0  0.541502  0  4.002002  0  0  0.575011  0  3.997866  0  0  0.271164  0.518628  0  4.004154  0
C  C24  1  0.14235895  0.27326934  0.16417649  1  0  0.583174  0  3.706292  0  0  0.541764  0  4.001965  0  0  0.575274  0  3.997838  0  0  0.271244  0.518888  0  4.004126  0
C  C25  1  0.69726908  0.64704910  0.67745843  1  0  0.023024  0  3.577834  0  0  -0.037385  0  3.841912  0  0  -0.032469  0  3.853629  0  0  -0.050031  -0.040533  0  3.83381  0
C  C26  1  0.30273230  0.35294506  0.32254484  1  0  0.02298  0  3.577678  0  0  -0.037314  0  3.84172  0  0  -0.032396  0  3.85344  0  0  -0.04999  -0.040461  0  3.833621  0
C  C27  1  0.56661602  0.57021828  0.79993793  1  0  -0.122353  0  3.622414  0  0  -0.164746  0  3.882638  0  0  -0.165617  0  3.894427  0  0  -0.161085  -0.163979  0  3.874433  0
C  C28  1  0.43338447  0.42978636  0.20007065  1  0  -0.122318  0  3.621875  0  0  -0.164705  0  3.882431  0  0  -0.165585  0  3.894248  0  0  -0.161137  -0.163954  0  3.874226  0
C  C29  1  0.68665829  0.61355349  0.90367920  1  0  -0.253008  0  3.633591  0  0  -0.290892  0  3.877161  0  0  -0.2966  0  3.885096  0  0  -0.148484  -0.286855  0  3.871486  0
C  C30  1  0.31337857  0.38642927  0.09632974  1  0  -0.252951  0  3.633206  0  0  -0.291203  0  3.87727  0  0  -0.296936  0  3.885254  0  0  -0.148484  -0.287174  0  3.871628  0
C  C31  1  0.97568213  0.87362478  0.62246422  1  0  0.128975  0  3.599332  0  0  0.108657  0  3.841986  0  0  0.113062  0  3.857232  0  0  0.014583  0.105744  0  3.831544  0
C  C32  1  0.02430134  0.12638072  0.37752890  1  0  0.129174  0  3.598981  0  0  0.108806  0  3.84173  0  0  0.113212  0  3.856962  0  0  0.014609  0.105896  0  3.831301  0
C  C33  1  0.80279103  0.06128926  0.58315874  1  0  -0.148897  0  3.65458  0  0  -0.195192  0  3.919546  0  0  -0.196511  0  3.9327  0  0  -0.160706  -0.194087  0  3.910237  0
C  C34  1  0.19718366  0.93871627  0.41683662  1  0  -0.149072  0  3.654917  0  0  -0.195247  0  3.919745  0  0  -0.196556  0  3.932887  0  0  -0.160728  -0.19415  0  3.910461  0
C  C35  1  0.92754631  0.19618181  0.49077097  1  0  -0.16035  0  3.666123  0  0  -0.20566  0  3.926541  0  0  -0.207546  0  3.940458  0  0  -0.165151  -0.204136  0  3.916838  0
C  C36  1  0.07242860  0.80382248  0.50922192  1  0  -0.160237  0  3.666372  0  0  -0.205536  0  3.926688  0  0  -0.207426  0  3.940608  0  0  -0.165091  -0.204014  0  3.916989  0
N  N37  1  0.21936571  0.22784748  0.77740460  1  0  0.688642  0  4.138739  0  0  0.739425  0  4.418598  0  0  0.771406  0  4.421553  0  0  0.099012  0.717583  0  4.416097  0
N  N38  1  0.78063728  0.77215339  0.22259736  1  0  0.688889  0  4.139074  0  0  0.739624  0  4.41887  0  0  0.771607  0  4.421818  0  0  0.098936  0.717782  0  4.416382  0
N  N39  1  0.85208342  0.74927529  0.71292012  1  0  -0.202133  0  3.354915  0  0  -0.124525  0  3.590659  0  0  -0.145667  0  3.611056  0  0  -0.253024  -0.110329  0  3.576542  0
N  N40  1  0.14790950  0.25072865  0.28707550  1  0  -0.202042  0  3.354809  0  0  -0.124546  0  3.590671  0  0  -0.145685  0  3.611065  0  0  -0.253055  -0.110349  0  3.576561  0
O  O41  1  0.70595522  0.11743892  0.93053272  1  0  -0.696991  0  1.603293  0  0  -0.707735  0  1.905416  0  0  -0.72713  0  1.891737  0  0  -0.755196  -0.696786  0  1.915486  0
O  O42  1  0.29403090  0.88257376  0.06944726  1  0  -0.696905  0  1.603407  0  0  -0.707607  0  1.905505  0  0  -0.726994  0  1.891822  0  0  -0.755181  -0.696667  0  1.915588  0
O  O43  1  0.22752601  0.05946246  0.79169063  1  0  -0.485702  0  1.805223  0  0  -0.500025  0  2.041697  0  0  -0.523775  0  2.038365  0  0  -0.205889  -0.483056  0  2.043298  0
O  O44  1  0.77242738  0.94054111  0.20829451  1  0  -0.485941  0  1.805463  0  0  -0.500109  0  2.041733  0  0  -0.523858  0  2.038401  0  0  -0.205889  -0.483137  0  2.043339  0
O  O45  1  0.12448786  0.28904786  0.86962914  1  0  -0.477848  0  1.824383  0  0  -0.48697  0  2.06288  0  0  -0.512478  0  2.062392  0  0  -0.192691  -0.468825  0  2.062521  0
O  O46  1  0.87552015  0.71094429  0.13038854  1  0  -0.477926  0  1.824686  0  0  -0.487067  0  2.063196  0  0  -0.512574  0  2.062705  0  0  -0.192568  -0.468917  0  2.062842  0
O  O47  1  0.29377956  0.32292184  0.68161346  1  0  -0.370666  0  1.745029  0  0  -0.367324  0  1.933535  0  0  -0.378787  0  1.927078  0  0  -0.129636  -0.35898  0  1.937772  0
O  O48  1  0.70626212  0.67708213  0.31839762  1  0  -0.370742  0  1.744964  0  0  -0.36744  0  1.93351  0  0  -0.378908  0  1.927051  0  0  -0.129684  -0.359089  0  1.937754  0
O  O49  1  0.99491520  0.79305769  0.88602014  1  0  -0.631041  0  2.134701  0  0  -0.618699  0  2.426033  0  0  -0.654055  0  2.421387  0  0  -0.371467  -0.593306  0  2.427979  0
O  O50  1  0.00509939  0.20695021  0.11396914  1  0  -0.631136  0  2.13446  0  0  -0.618754  0  2.42565  0  0  -0.654109  0  2.421004  0  0  -0.371498  -0.593356  0  2.4276  0
