# generated using pymatgen
data_AgH3(C2O)2
_symmetry_space_group_name_H-M   'P 1'
_cell_length_a   4.69634530
_cell_length_b   11.82553019
_cell_length_c   13.66933414
_cell_angle_alpha   66.22937935
_cell_angle_beta   87.76387277
_cell_angle_gamma   82.04236306
_symmetry_Int_Tables_number   1
_chemical_formula_structural   AgH3(C2O)2
_chemical_formula_sum   'Ag6 H18 C24 O12'
_cell_volume   687.94133619
_cell_formula_units_Z   6
loop_
 _symmetry_equiv_pos_site_id
 _symmetry_equiv_pos_as_xyz
  1  'x, y, z'
loop_
 _atom_site_type_symbol
 _atom_site_label
 _atom_site_symmetry_multiplicity
 _atom_site_fract_x
 _atom_site_fract_y
 _atom_site_fract_z
 _atom_site_occupancy
 _atom_site_pbe_bader_charge
 _atom_site_pbe_bader_spin_density
 _atom_site_pbe_cm5_charge
 _atom_site_pbe_ddec_charge
 _atom_site_pbe_ddec_spin_density
 _atom_site_pbe_ddec_sum_bond_order
 _atom_site_pbe_magmom
Ag  Ag0  1  0.72273841  0.95228272  0.93872405  1  0.594646  0  0.386027  0.398674  0  2.0084  0
Ag  Ag1  1  0.32220905  0.12874181  0.79596625  1  0.629541  0  0.419714  0.477552  0  1.959134  0
Ag  Ag2  1  0.61492005  0.42564727  0.64779872  1  0.663645  0  0.4832  0.564423  0  1.780509  0
Ag  Ag3  1  0.27728381  0.04771607  0.06127024  1  0.594146  0  0.386068  0.398707  0  2.008389  0
Ag  Ag4  1  0.67778425  0.87125955  0.20403768  1  0.629544  0  0.419725  0.477576  0  1.959222  0
Ag  Ag5  1  0.38507969  0.57434762  0.35220440  1  0.663593  0  0.48322  0.56446  0  1.780445  0
H  H6  1  0.42089486  0.51945521  0.91827527  1  0.051092  0  0.099269  0.108591  0  1.016074  0
H  H7  1  0.54366452  0.81176922  0.61204854  1  0.071858  0  0.104038  0.114316  0  0.978752  0
H  H8  1  0.10035157  0.46132138  0.71565884  1  0.084545  0  0.09023  0.092537  0  1.084837  0
H  H9  1  0.09113612  0.32417488  0.91296166  1  0.078577  0  0.104932  0.146102  0  0.991961  0
H  H10  1  0.77801126  0.33719112  0.98632999  1  0.062128  0  0.109096  0.137952  0  0.998449  0
H  H11  1  0.08547105  0.81508108  0.71643987  1  0.082433  0  0.102484  0.129723  0  0.984403  0
H  H12  1  0.07718515  0.71138853  0.85067465  1  0.051234  0  0.105456  0.133726  0  0.988394  0
H  H13  1  0.00296389  0.78770547  0.51895720  1  0.067161  0  0.107625  0.13743  0  0.955192  0
H  H14  1  0.21034792  0.64083762  0.55521171  1  0.098623  0  0.097828  0.118368  0  1.04934  0
H  H15  1  0.57911403  0.48055087  0.08172546  1  0.051229  0  0.099277  0.108599  0  1.016053  0
H  H16  1  0.45633779  0.18823132  0.38794973  1  0.07188  0  0.104044  0.11432  0  0.978737  0
H  H17  1  0.89964824  0.53868005  0.28434134  1  0.084546  0  0.090238  0.092552  0  1.084837  0
H  H18  1  0.90886973  0.67582747  0.08703962  1  0.078594  0  0.104938  0.146096  0  0.991903  0
H  H19  1  0.22200123  0.66281030  0.01367301  1  0.062157  0  0.109092  0.137958  0  0.998514  0
H  H20  1  0.91451549  0.18491574  0.28355760  1  0.082483  0  0.102496  0.129717  0  0.984516  0
H  H21  1  0.92282558  0.28861198  0.14932648  1  0.051106  0  0.105476  0.133755  0  0.988339  0
H  H22  1  0.99704521  0.21228769  0.48103911  1  0.067067  0  0.107631  0.137359  0  0.955194  0
H  H23  1  0.78964259  0.35915362  0.44478614  1  0.09868  0  0.097827  0.118385  0  1.049283  0
C  C24  1  0.76264889  0.47461798  0.82492351  1  -0.026653  0  -0.017667  0.157795  0  3.987453  0
C  C25  1  0.53701618  0.55361449  0.84343459  1  -0.029249  0  -0.097841  -0.210748  0  3.925447  0
C  C26  1  0.45720259  0.67525415  0.76770313  1  -0.048828  0  -0.005701  0.168102  0  3.98446  0
C  C27  1  0.60435445  0.71672389  0.67120467  1  -0.019777  0  -0.092285  -0.20361  0  3.916637  0
C  C28  1  0.82975933  0.64047975  0.64894049  1  -0.012593  0  -0.014476  0.156196  0  3.996617  0
C  C29  1  0.90647550  0.51815313  0.72648916  1  -0.134225  0  -0.131264  -0.251721  0  4.019978  0
C  C30  1  0.85557226  0.34539172  0.90712838  1  -0.003504  0  -0.162102  -0.34972  0  3.891735  0
C  C31  1  0.73885735  0.24067877  0.88977663  1  1.55114  0  0.210453  0.633102  0  4.099549  0
C  C32  1  0.22172450  0.76266032  0.78801077  1  -0.021446  0  -0.159022  -0.345679  0  3.915041  0
C  C33  1  0.33298049  0.85787429  0.82169578  1  1.564128  0  0.205699  0.624533  0  4.13159  0
C  C34  1  0.98730876  0.68783176  0.54559171  1  -0.062005  0  -0.164165  -0.35174  0  3.917938  0
C  C35  1  0.85613056  0.67238757  0.45121334  1  1.57236  0  0.203838  0.637704  0  4.138454  0
C  C36  1  0.23735974  0.52538254  0.17507690  1  -0.026641  0  -0.017675  0.15778  0  3.987479  0
C  C37  1  0.46299631  0.44638692  0.15656841  1  -0.029271  0  -0.097887  -0.21081  0  3.925511  0
C  C38  1  0.54280727  0.32474917  0.23229633  1  -0.048887  0  -0.005704  0.168152  0  3.984471  0
C  C39  1  0.39565210  0.28327665  0.32879429  1  -0.019781  0  -0.092272  -0.203606  0  3.916524  0
C  C40  1  0.17024266  0.35952171  0.35105820  1  -0.012582  0  -0.014435  0.156233  0  3.996544  0
C  C41  1  0.09352702  0.48184643  0.27351236  1  -0.134224  0  -0.131295  -0.251794  0  4.020075  0
C  C42  1  0.14443572  0.65461064  0.09287289  1  -0.00344  0  -0.162132  -0.349718  0  3.891789  0
C  C43  1  0.26114873  0.75932262  0.11022717  1  1.550926  0  0.210463  0.633104  0  4.099473  0
C  C44  1  0.77827293  0.23734207  0.21198766  1  -0.02129  0  -0.159053  -0.345755  0  3.915153  0
C  C45  1  0.66700240  0.14213367  0.17830015  1  1.564014  0  0.205742  0.624688  0  4.131628  0
C  C46  1  0.01268900  0.31216320  0.45440702  1  -0.0622  0  -0.164176  -0.3516  0  3.917631  0
C  C47  1  0.14385247  0.32760637  0.54878952  1  1.571538  0  0.203829  0.637734  0  4.138274  0
O  O48  1  0.86792351  0.13045391  0.93875844  1  -1.139165  0  -0.324651  -0.528786  0  2.550439  0
O  O49  1  0.51616630  0.26836975  0.82989791  1  -1.133672  0  -0.320432  -0.52699  0  2.48832  0
O  O50  1  0.55016990  0.82073110  0.88469424  1  -1.135093  0  -0.325345  -0.507008  0  2.308328  0
O  O51  1  0.19020205  0.96670123  0.78350636  1  -1.124689  0  -0.334388  -0.524707  0  2.370278  0
O  O52  1  0.96229742  0.72679409  0.35991207  1  -1.179827  0  -0.349082  -0.579249  0  2.345394  0
O  O53  1  0.65392893  0.60512524  0.47026923  1  -1.152178  0  -0.331503  -0.55688  0  2.448847  0
O  O54  1  0.13208640  0.86954943  0.06123955  1  -1.139157  0  -0.324651  -0.528793  0  2.550479  0
O  O55  1  0.48383685  0.73162688  0.17011265  1  -1.133552  0  -0.320399  -0.527003  0  2.488207  0
O  O56  1  0.44983365  0.17927983  0.11529246  1  -1.135299  0  -0.325389  -0.507099  0  2.308519  0
O  O57  1  0.80976275  0.03330291  0.21649469  1  -1.12451  0  -0.334393  -0.524786  0  2.370261  0
O  O58  1  0.03767721  0.27319989  0.64008720  1  -1.178641  0  -0.34907  -0.57927  0  2.345387  0
O  O59  1  0.34606136  0.39486590  0.52973524  1  -1.152239  0  -0.331504  -0.55693  0  2.448638  0
