# generated using pymatgen
data_V2CoH4C4(NO3)2
_symmetry_space_group_name_H-M   'P 1'
_cell_length_a   7.31345721
_cell_length_b   10.16769100
_cell_length_c   11.23980444
_cell_angle_alpha   90.00020100
_cell_angle_beta   89.99913705
_cell_angle_gamma   89.98813657
_symmetry_Int_Tables_number   1
_chemical_formula_structural   V2CoH4C4(NO3)2
_chemical_formula_sum   'V8 Co4 H16 C16 N8 O24'
_cell_volume   835.80277645
_cell_formula_units_Z   4
loop_
 _symmetry_equiv_pos_site_id
 _symmetry_equiv_pos_as_xyz
  1  'x, y, z'
loop_
 _atom_site_type_symbol
 _atom_site_label
 _atom_site_symmetry_multiplicity
 _atom_site_fract_x
 _atom_site_fract_y
 _atom_site_fract_z
 _atom_site_occupancy
 _atom_site_pbe_cm5_charge
 _atom_site_pbe_ddec_charge
 _atom_site_pbe_ddec_spin_density
 _atom_site_pbe_ddec_sum_bond_order
 _atom_site_pbe_magmom
V  V0  1  0.09200056  0.76602112  0.14857376  1  1.443663  1.946413  -0.095722  3.430799  -0.156
V  V1  1  0.09195932  0.73402936  0.85128616  1  1.443703  1.947046  -0.095003  3.430429  -0.155
V  V2  1  0.40801701  0.73397645  0.64857801  1  1.443679  1.946356  -0.0957  3.431238  -0.156
V  V3  1  0.40804750  0.76597273  0.35128547  1  1.443677  1.946972  -0.094998  3.430537  -0.155
V  V4  1  0.90809765  0.23397974  0.85133777  1  1.4435  1.946274  -0.095574  3.431079  -0.156
V  V5  1  0.90796659  0.26600985  0.14866184  1  1.443615  1.946009  -0.094867  3.431679  -0.155
V  V6  1  0.59188977  0.26602244  0.35134063  1  1.443438  1.946265  -0.095585  3.431139  -0.156
V  V7  1  0.59202884  0.23398682  0.64866075  1  1.443582  1.945977  -0.094894  3.431801  -0.155
Co  Co8  1  0.24994445  0.05681230  0.25002303  1  0.68396  0.9976  -0.873602  2.941364  -0.736
Co  Co9  1  0.25005274  0.44318220  0.75002195  1  0.683857  0.997602  -0.874471  2.940961  -0.737
Co  Co10  1  0.74996914  0.94324953  0.75001127  1  0.682585  0.997266  -0.879938  2.938794  -0.741
Co  Co11  1  0.75003318  0.55675669  0.25001058  1  0.682589  0.997357  -0.880774  2.938558  -0.742
H  H12  1  0.86888418  0.95995072  0.30574020  1  0.134288  0.125169  0.000484  1.011985  0.0
H  H13  1  0.86908758  0.54036925  0.69428432  1  0.134231  0.125359  0.000479  1.011378  0.0
H  H14  1  0.63110188  0.54006577  0.80574267  1  0.134335  0.125293  0.000481  1.011842  0.0
H  H15  1  0.63091458  0.95964835  0.19428630  1  0.134249  0.125336  0.000482  1.011533  0.0
H  H16  1  0.13127132  0.04051435  0.69411617  1  0.13419  0.125413  0.000481  1.011427  0.0
H  H17  1  0.13126093  0.45933754  0.30591813  1  0.134289  0.125571  0.000476  1.011324  0.0
H  H18  1  0.36873667  0.45945709  0.19411904  1  0.134264  0.125478  0.000479  1.011413  0.0
H  H19  1  0.36873915  0.04065543  0.80591972  1  0.134274  0.125482  0.000478  1.011398  0.0
H  H20  1  0.29848071  0.10350434  0.50903911  1  0.130776  0.099963  0.00036  1.039365  0.0
H  H21  1  0.29847887  0.39635149  0.49098986  1  0.130627  0.10002  0.000353  1.039439  0.0
H  H22  1  0.20154269  0.39645190  0.00904197  1  0.130735  0.099918  0.000357  1.039356  0.0
H  H23  1  0.20150854  0.10363505  0.99099055  1  0.130609  0.100002  0.000357  1.039512  0.0
H  H24  1  0.70166661  0.89687025  0.49079946  1  0.130754  0.099892  0.000359  1.03993  0.0
H  H25  1  0.70187370  0.60348709  0.50923751  1  0.130392  0.099505  0.000353  1.039942  0.0
H  H26  1  0.79830404  0.60316243  0.99080194  1  0.13083  0.100052  0.000355  1.039875  0.0
H  H27  1  0.79814386  0.89654087  0.00923948  1  0.130453  0.099504  0.000356  1.040033  0.0
C  C28  1  0.16476934  0.05752141  0.50420895  1  0.06864  0.067235  0.00656  3.836103  0.003
C  C29  1  0.16480778  0.44243080  0.49582802  1  0.068828  0.067535  0.006556  3.835983  0.004
C  C30  1  0.33524471  0.44245053  0.00421271  1  0.068663  0.067408  0.006553  3.836146  0.004
C  C31  1  0.33518351  0.05756364  0.99583049  1  0.068927  0.067612  0.006561  3.835915  0.003
C  C32  1  0.83537251  0.94286006  0.49567855  1  0.069367  0.068124  0.006597  3.837631  0.004
C  C33  1  0.83550926  0.55735565  0.50434329  1  0.06981  0.069108  0.006599  3.83758  0.004
C  C34  1  0.66460886  0.55715692  0.99568191  1  0.069352  0.068061  0.006591  3.837689  0.004
C  C35  1  0.66449759  0.94265752  0.00434260  1  0.069797  0.069142  0.006605  3.837605  0.004
C  C36  1  0.92768059  0.97909011  0.39244989  1  0.067387  0.056828  0.005849  3.842524  0.003
C  C37  1  0.92783206  0.52112265  0.60757463  1  0.067308  0.056141  0.005851  3.842946  0.003
C  C38  1  0.57231103  0.52091525  0.89245325  1  0.067335  0.056724  0.005843  3.842504  0.003
C  C39  1  0.57216865  0.97888935  0.10757660  1  0.0673  0.05613  0.005856  3.842984  0.003
C  C40  1  0.07242980  0.02132382  0.60743317  1  0.068155  0.057495  0.005876  3.841509  0.003
C  C41  1  0.07245491  0.47862741  0.39260025  1  0.068148  0.05769  0.005896  3.841368  0.003
C  C42  1  0.42757399  0.47866072  0.10743336  1  0.067987  0.05726  0.00587  3.842006  0.003
C  C43  1  0.42754525  0.02137213  0.89260183  1  0.068173  0.057804  0.005901  3.841204  0.003
N  N44  1  0.09400971  0.03663227  0.39505670  1  -0.29228  -0.142161  0.016244  3.51376  0.012
N  N45  1  0.09410077  0.46343599  0.60497672  1  -0.292334  -0.142599  0.016231  3.513911  0.012
N  N46  1  0.40599718  0.46335352  0.89506095  1  -0.292206  -0.142167  0.016203  3.513554  0.012
N  N47  1  0.40588947  0.03656131  0.10498047  1  -0.29242  -0.142613  0.016269  3.513971  0.012
N  N48  1  0.90614036  0.96368429  0.60483882  1  -0.292625  -0.143807  0.015983  3.513141  0.011
N  N49  1  0.90621353  0.53637898  0.39518570  1  -0.292626  -0.144369  0.015985  3.513739  0.011
N  N50  1  0.59384406  0.53632081  0.10483901  1  -0.292692  -0.144038  0.015942  3.513521  0.011
N  N51  1  0.59379848  0.96363132  0.89518372  1  -0.292645  -0.144353  0.016023  3.513724  0.011
O  O52  1  0.08580154  0.92806196  0.17904226  1  -0.598522  -0.864052  0.002743  2.029493  0.004
O  O53  1  0.08599038  0.57192656  0.82102852  1  -0.598545  -0.864452  0.002747  2.03015  0.004
O  O54  1  0.41420779  0.57193781  0.67904117  1  -0.598516  -0.863994  0.002728  2.029402  0.004
O  O55  1  0.41400417  0.92807727  0.32102427  1  -0.598573  -0.864476  0.00276  2.030312  0.004
O  O56  1  0.91419686  0.07192316  0.82103831  1  -0.598507  -0.864003  0.002689  2.029398  0.004
O  O57  1  0.91410236  0.42804971  0.17909297  1  -0.598492  -0.863619  0.002808  2.030733  0.004
O  O58  1  0.58579469  0.42807878  0.32104918  1  -0.598507  -0.864117  0.002667  2.029475  0.004
O  O59  1  0.58589303  0.07194522  0.67909189  1  -0.59847  -0.863642  0.002819  2.030866  0.004
O  O60  1  0.17617952  0.75016832  0.99990085  1  -0.705591  -0.981553  0.000742  1.896689  0.003
O  O61  1  0.32384640  0.74983395  0.49990461  1  -0.705621  -0.981648  0.000742  1.896904  0.003
O  O62  1  0.82394469  0.25009508  0.99998092  1  -0.705469  -0.981573  0.000774  1.897305  0.003
O  O63  1  0.67605226  0.24990136  0.49997845  1  -0.705467  -0.981576  0.000774  1.897312  0.003
O  O64  1  0.25006345  0.69319868  0.24993317  1  -0.684703  -0.944605  0.002863  1.942987  0.008
O  O65  1  0.24994260  0.80680557  0.74993031  1  -0.684688  -0.94465  0.002859  1.943147  0.008
O  O66  1  0.75011680  0.30679922  0.74993298  1  -0.684795  -0.944405  0.002682  1.943324  0.008
O  O67  1  0.74986984  0.19319823  0.24993139  1  -0.684773  -0.94444  0.00268  1.943387  0.008
O  O68  1  0.88556195  0.69913384  0.16942110  1  -0.601149  -0.825139  -2.6e-05  1.936429  0.001
O  O69  1  0.88539022  0.80081928  0.83037922  1  -0.600782  -0.825153  6.8e-05  1.937365  0.001
O  O70  1  0.61445641  0.80086193  0.66943247  1  -0.601137  -0.825045  -1.5e-05  1.936534  0.001
O  O71  1  0.61461932  0.69919052  0.33037052  1  -0.600719  -0.825012  6.7e-05  1.937395  0.001
O  O72  1  0.11460876  0.30076080  0.83042281  1  -0.600793  -0.825083  -7.1e-05  1.937932  0.001
O  O73  1  0.11444411  0.19912257  0.16961594  1  -0.600962  -0.825031  -1.9e-05  1.938685  0.001
O  O74  1  0.38537651  0.19924121  0.33042568  1  -0.6008  -0.825021  -6.5e-05  1.937745  0.001
O  O75  1  0.38554724  0.30086836  0.66961218  1  -0.60091  -0.824992  -2.4e-05  1.938714  0.001
