# generated using pymatgen
data_ZnH24C27(NO)4
_symmetry_space_group_name_H-M   'P 1'
_cell_length_a   10.75961859
_cell_length_b   11.17735666
_cell_length_c   11.56500000
_cell_angle_alpha   65.19718518
_cell_angle_beta   83.24471047
_cell_angle_gamma   67.51751117
_symmetry_Int_Tables_number   1
_chemical_formula_structural   ZnH24C27(NO)4
_chemical_formula_sum   'Zn2 H48 C54 N8 O8'
_cell_volume   1165.07979476
_cell_formula_units_Z   2
loop_
 _symmetry_equiv_pos_site_id
 _symmetry_equiv_pos_as_xyz
  1  'x, y, z'
loop_
 _atom_site_type_symbol
 _atom_site_label
 _atom_site_symmetry_multiplicity
 _atom_site_fract_x
 _atom_site_fract_y
 _atom_site_fract_z
 _atom_site_occupancy
 _atom_site_hle17_bader_spin_density
 _atom_site_hle17_ddec_charge
 _atom_site_hle17_ddec_spin_density
 _atom_site_hle17_ddec_sum_bond_order
 _atom_site_hle17_magmom
 _atom_site_hse06_10hf_bader_spin_density
 _atom_site_hse06_10hf_ddec_charge
 _atom_site_hse06_10hf_ddec_spin_density
 _atom_site_hse06_10hf_ddec_sum_bond_order
 _atom_site_hse06_10hf_magmom
 _atom_site_hse06_bader_spin_density
 _atom_site_hse06_ddec_charge
 _atom_site_hse06_ddec_spin_density
 _atom_site_hse06_ddec_sum_bond_order
 _atom_site_hse06_magmom
 _atom_site_pbe_bader_charge
 _atom_site_pbe_bader_spin_density
 _atom_site_pbe_cm5_charge
 _atom_site_pbe_ddec_charge
 _atom_site_pbe_ddec_spin_density
 _atom_site_pbe_ddec_sum_bond_order
 _atom_site_pbe_magmom
Zn  Zn0  1  0.19928376  0.81929991  0.16391196  1  0  1.04426  0  1.821501  0  0  0.856644  0  2.298234  0  0  0.902685  0  2.24252  0  1.258843  0  0.704022  0.824855  0  2.336365  0
Zn  Zn1  1  0.80071624  0.18069950  0.83608758  1  0  1.044209  0  1.82152  0  0  0.856602  0  2.298242  0  0  0.90264  0  2.24253  0  1.258907  0  0.704004  0.824811  0  2.336375  0
H  H2  1  0.19156316  0.51746658  0.30519315  1  0  0.153877  0  0.984655  0  0  0.171367  0  1.042882  0  0  0.174219  0  1.041846  0  0.134319  0  0.106023  0.169228  0  1.043851  0
H  H3  1  0.80843740  0.48253389  0.69480677  1  0  0.153866  0  0.984617  0  0  0.171348  0  1.042864  0  0  0.174199  0  1.041827  0  0.134329  0  0.106012  0.169209  0  1.043833  0
H  H4  1  0.29253091  0.34710604  0.30652114  1  0  0.130343  0  0.950156  0  0  0.151169  0  1.008317  0  0  0.153079  0  1.008541  0  0.067506  0  0.100788  0.149591  0  1.008601  0
H  H5  1  0.70746834  0.65289549  0.69347936  1  0  0.130332  0  0.950137  0  0  0.151168  0  1.00829  0  0  0.153068  0  1.008526  0  0.067493  0  0.10079  0.149589  0  1.008575  0
H  H6  1  0.19361718  0.48326359  0.16802355  1  0  0.139193  0  0.929584  0  0  0.160889  0  0.987496  0  0  0.163005  0  0.987123  0  0.078598  0  0.104872  0.159919  0  0.986737  0
H  H7  1  0.80638187  0.51673581  0.83197784  1  0  0.139191  0  0.929579  0  0  0.160888  0  0.987495  0  0  0.163005  0  0.987118  0  0.078749  0  0.104873  0.159918  0  0.986736  0
H  H8  1  0.46946881  0.86475929  0.08139134  1  0  0.112547  0  0.959562  0  0  0.122462  0  1.019642  0  0  0.125317  0  1.018492  0  0.112882  0  0.106764  0.120409  0  1.020428  0
H  H9  1  0.53053511  0.13523693  0.91861166  1  0  0.112592  0  0.959593  0  0  0.122531  0  1.019631  0  0  0.125377  0  1.018497  0  0.112813  0  0.106823  0.120508  0  1.020381  0
H  H10  1  0.70566529  0.81835913  0.01012748  1  0  0.103664  0  0.963352  0  0  0.109985  0  1.030079  0  0  0.113069  0  1.029039  0  0.108462  0  0.100025  0.107591  0  1.031198  0
H  H11  1  0.29433919  0.18163815  0.98987590  1  0  0.103677  0  0.963347  0  0  0.109999  0  1.030067  0  0  0.113085  0  1.029021  0  0.108469  0  0.100016  0.107606  0  1.031182  0
H  H12  1  0.84710562  0.58559680  0.00928423  1  0  0.079123  0  0.970147  0  0  0.091671  0  1.030057  0  0  0.094054  0  1.029061  0  0.037133  0  0.096411  0.090339  0  1.029798  0
H  H13  1  0.15289642  0.41439943  0.99071639  1  0  0.079147  0  0.970156  0  0  0.0917  0  1.030057  0  0  0.094082  0  1.029063  0  0.037158  0  0.096423  0.090368  0  1.029798  0
H  H14  1  0.76271297  0.38569047  0.08658251  1  0  0.122449  0  0.942314  0  0  0.134231  0  1.000103  0  0  0.137405  0  0.998562  0  0.10245  0  0.112323  0.131792  0  1.001532  0
H  H15  1  0.23728459  0.61430788  0.91341514  1  0  0.122467  0  0.942327  0  0  0.134188  0  1.000198  0  0  0.137362  0  0.998649  0  0.102435  0  0.112332  0.13175  0  1.001622  0
H  H16  1  0.61512153  0.25888231  0.13813759  1  0  0.096173  0  0.950669  0  0  0.109675  0  1.013511  0  0  0.110752  0  1.013818  0  0.136017  0  0.114938  0.108854  0  1.013265  0
H  H17  1  0.38487884  0.74111604  0.86186322  1  0  0.096177  0  0.95068  0  0  0.109677  0  1.013522  0  0  0.110754  0  1.013829  0  0.136016  0  0.114936  0.108856  0  1.013276  0
H  H18  1  0.45301725  0.25952293  0.18761900  1  0  0.077527  0  0.93562  0  0  0.09428  0  0.996203  0  0  0.094259  0  0.997497  0  0.057829  0  0.112687  0.094055  0  0.995614  0
H  H19  1  0.54698219  0.74047542  0.81238104  1  0  0.077532  0  0.935591  0  0  0.094289  0  0.996173  0  0  0.094268  0  0.997467  0  0.057857  0  0.112699  0.094064  0  0.995585  0
H  H20  1  0.52434350  0.22250610  0.40873817  1  0  0.065558  0  0.964115  0  0  0.081183  0  1.033486  0  0  0.081383  0  1.034424  0  0.038228  0  0.09057  0.080854  0  1.033045  0
H  H21  1  0.47565612  0.77749437  0.59126099  1  0  0.065554  0  0.964122  0  0  0.081163  0  1.033517  0  0  0.081365  0  1.034453  0  0.038233  0  0.090566  0.080853  0  1.033056  0
H  H22  1  0.60824103  0.07871842  0.36492204  1  0  0.085998  0  0.940787  0  0  0.104915  0  0.998082  0  0  0.105217  0  0.999614  0  0.068861  0  0.097641  0.104749  0  0.996884  0
H  H23  1  0.39175859  0.92128205  0.63507798  1  0  0.086003  0  0.940787  0  0  0.104919  0  0.998078  0  0  0.10522  0  0.999613  0  0.068867  0  0.097646  0.104752  0  0.996884  0
H  H24  1  0.74742825  0.41738296  0.46257069  1  0  0.150235  0  0.928164  0  0  0.170978  0  0.985592  0  0  0.173366  0  0.984567  0  0.123211  0  0.11042  0.16929  0  0.986328  0
H  H25  1  0.25257044  0.58261751  0.53742858  1  0  0.150245  0  0.92814  0  0  0.170984  0  0.98558  0  0  0.173371  0  0.984556  0  0.123294  0  0.110423  0.169294  0  0.986316  0
H  H26  1  0.59021721  0.40168891  0.45518205  1  0  0.121444  0  0.947125  0  0  0.142227  0  1.007785  0  0  0.144119  0  1.007243  0  0.050873  0  0.097828  0.140922  0  1.008126  0
H  H27  1  0.40978148  0.59831156  0.54481807  1  0  0.121449  0  0.947121  0  0  0.14223  0  1.007778  0  0  0.144122  0  1.007237  0  0.050774  0  0.097832  0.140925  0  1.008119  0
H  H28  1  0.64568117  0.39860038  0.59636788  1  0  0.127551  0  0.969661  0  0  0.146049  0  1.033674  0  0  0.147577  0  1.033627  0  0.085663  0  0.100784  0.144998  0  1.033649  0
H  H29  1  0.35431920  0.60139797  0.40363292  1  0  0.12756  0  0.969658  0  0  0.146064  0  1.033655  0  0  0.147589  0  1.033611  0  0.085861  0  0.10079  0.145013  0  1.03363  0
H  H30  1  0.92734208  0.85194696  0.89365168  1  0  0.131146  0  0.937742  0  0  0.141094  0  0.99372  0  0  0.144877  0  0.991136  0  0.143089  0  0.112636  0.138248  0  0.995812  0
H  H31  1  0.07265848  0.14805351  0.10634738  1  0  0.131136  0  0.937634  0  0  0.141076  0  0.993634  0  0  0.144854  0  0.991057  0  0.14309  0  0.112643  0.138231  0  0.995725  0
H  H32  1  0.01522257  0.63288364  0.85018057  1  0  0.073881  0  0.98297  0  0  0.086889  0  1.044532  0  0  0.089018  0  1.044065  0  0.040158  0  0.092759  0.085688  0  1.044149  0
H  H33  1  0.98477668  0.36711789  0.14981993  1  0  0.073866  0  0.983009  0  0  0.08687  0  1.044577  0  0  0.088998  0  1.044111  0  0.040125  0  0.092742  0.085669  0  1.044193  0
H  H34  1  0.99291330  0.64560582  0.63420297  1  0  0.098842  0  0.940139  0  0  0.113326  0  0.992437  0  0  0.115731  0  0.991897  0  0.068152  0  0.103634  0.111425  0  0.993127  0
H  H35  1  0.00708613  0.35439252  0.36579880  1  0  0.098846  0  0.94016  0  0  0.113339  0  0.992446  0  0  0.115743  0  0.991908  0  0.068156  0  0.103637  0.11145  0  0.993121  0
H  H36  1  0.88003655  0.87597009  0.45371746  1  0  0.111858  0  0.966381  0  0  0.119743  0  1.031507  0  0  0.122061  0  1.031436  0  0.097987  0  0.104894  0.118018  0  1.031705  0
H  H37  1  0.11996381  0.12402826  0.54628421  1  0  0.111827  0  0.966381  0  0  0.119713  0  1.031518  0  0  0.12203  0  1.031447  0  0.09798  0  0.104889  0.117987  0  1.031717  0
H  H38  1  0.73023978  0.30167317  0.32037371  1  0  0.068069  0  0.956628  0  0  0.084171  0  1.021197  0  0  0.084026  0  1.022813  0  0.073037  0  0.108845  0.084292  0  1.019966  0
H  H39  1  0.26975984  0.69832730  0.67962718  1  0  0.068079  0  0.956682  0  0  0.084187  0  1.021228  0  0  0.08404  0  1.022842  0  0.073031  0  0.108856  0.084308  0  1.019996  0
H  H40  1  0.81105385  0.13402570  0.31526297  1  0  0.097913  0  0.926677  0  0  0.110158  0  0.991562  0  0  0.111767  0  0.990775  0  0.119762  0  0.115392  0.108766  0  0.992494  0
H  H41  1  0.18894484  0.86597477  0.68473715  1  0  0.097899  0  0.926622  0  0  0.110141  0  0.991508  0  0  0.111747  0  0.99072  0  0.119754  0  0.115383  0.108749  0  0.992441  0
H  H42  1  0.46800184  0.95593580  0.84535264  1  0  0.084632  0  0.977838  0  0  0.097198  0  1.039176  0  0  0.09989  0  1.038836  0  0.067299  0  0.098132  0.095138  0  1.0396  0
H  H43  1  0.53199554  0.04406573  0.15464633  1  0  0.084627  0  0.977846  0  0  0.097201  0  1.03918  0  0  0.099891  0  1.038841  0  0.067282  0  0.098132  0.095138  0  1.039607  0
H  H44  1  0.55203607  0.12014214  0.66755804  1  0  0.083233  0  0.981669  0  0  0.092437  0  1.044729  0  0  0.095095  0  1.043846  0  0.077395  0  0.095311  0.090317  0  1.045756  0
H  H45  1  0.44796430  0.87985621  0.33244103  1  0  0.083243  0  0.981661  0  0  0.092444  0  1.04473  0  0  0.095102  0  1.043847  0  0.077404  0  0.095313  0.090323  0  1.045757  0
H  H46  1  0.38908989  0.35147687  0.51645339  1  0  0.073108  0  0.979225  0  0  0.087198  0  1.039811  0  0  0.089299  0  1.039561  0  0.023734  0  0.091817  0.085636  0  1.040194  0
H  H47  1  0.61091198  0.64852254  0.48354595  1  0  0.073045  0  0.979298  0  0  0.087179  0  1.039829  0  0  0.089273  0  1.039598  0  0.023755  0  0.091811  0.085617  0  1.040213  0
H  H48  1  0.14207240  0.41043375  0.54339463  1  0  0.110166  0  0.962599  0  0  0.116228  0  1.030732  0  0  0.120281  0  1.02729  0  0.128055  0  0.104645  0.113171  0  1.033507  0
H  H49  1  0.85792891  0.58956990  0.45660219  1  0  0.110183  0  0.962609  0  0  0.116247  0  1.03073  0  0  0.120301  0  1.027279  0  0.128081  0  0.104642  0.113186  0  1.033516  0
C  C50  1  0.36767306  0.51342243  0.20035961  1  0  0.414651  0  3.678275  0  0  0.384255  0  3.957614  0  0  0.404145  0  3.968291  0  0.980434  0  0.235173  0.371217  0  3.949924  0
C  C51  1  0.63232694  0.48657698  0.79964080  1  0  0.41471  0  3.678246  0  0  0.384313  0  3.95759  0  0  0.404204  0  3.968266  0  0.980505  0  0.23521  0.371276  0  3.949899  0
C  C52  1  0.25613101  0.46160142  0.24849054  1  0  -0.419011  0  3.703097  0  0  -0.499536  0  3.940732  0  0  -0.505052  0  3.945903  0  -0.081538  0  -0.23785  -0.495638  0  3.937045  0
C  C53  1  0.74386862  0.53839905  0.75151035  1  0  -0.419025  0  3.703036  0  0  -0.499559  0  3.940697  0  0  -0.505066  0  3.945874  0  -0.081681  0  -0.23786  -0.495661  0  3.93701  0
C  C54  1  0.48544720  0.65102773  0.12537451  1  0  0.147341  0  3.839115  0  0  0.141806  0  4.088712  0  0  0.145324  0  4.112173  0  0.338165  0  0.082153  0.139454  0  4.073044  0
C  C55  1  0.51455373  0.34897168  0.87462667  1  0  0.147387  0  3.839121  0  0  0.141834  0  4.088738  0  0  0.145353  0  4.112197  0  0.337719  0  0.082144  0.139481  0  4.073075  0
C  C56  1  0.53350209  0.76158501  0.08297948  1  0  -0.14054  0  3.74878  0  0  -0.158508  0  3.999967  0  0  -0.161634  0  4.021497  0  -0.060405  0  -0.092629  -0.156395  0  3.985395  0
C  C57  1  0.46650052  0.23841227  0.91702323  1  0  -0.140649  0  3.748841  0  0  -0.158632  0  4.000056  0  0  -0.161754  0  4.021581  0  -0.060403  0  -0.092685  -0.156544  0  3.985469  0
C  C58  1  0.66468673  0.73472578  0.04240155  1  0  -0.076656  0  3.764838  0  0  -0.093795  0  4.021692  0  0  -0.096717  0  4.045045  0  0.003398  0  -0.097384  -0.092138  0  4.006305  0
C  C59  1  0.33531775  0.26527151  0.95760009  1  0  -0.076674  0  3.764861  0  0  -0.093805  0  4.021712  0  0  -0.096726  0  4.045058  0  0.003382  0  -0.097395  -0.092151  0  4.006333  0
C  C60  1  0.74564603  0.60105751  0.04329534  1  0  -0.07584  0  3.795126  0  0  -0.091825  0  4.052097  0  0  -0.093933  0  4.074995  0  -0.057555  0  -0.098816  -0.090202  0  4.03616  0
C  C61  1  0.25435639  0.39893765  0.95670652  1  0  -0.075931  0  3.795127  0  0  -0.091921  0  4.052093  0  0  -0.094029  0  4.074988  0  -0.057556  0  -0.098857  -0.090298  0  4.036157  0
C  C62  1  0.69984862  0.48912884  0.08590940  1  0  -0.162278  0  3.763443  0  0  -0.184113  0  4.022798  0  0  -0.186624  0  4.041871  0  -0.058345  0  -0.100306  -0.182633  0  4.010295  0
C  C63  1  0.30014913  0.51087163  0.91409083  1  0  -0.162196  0  3.763278  0  0  -0.183986  0  4.022646  0  0  -0.186502  0  4.041739  0  -0.058277  0  -0.100277  -0.182506  0  4.010144  0
C  C64  1  0.56872948  0.51677506  0.12785932  1  0  0.098904  0  3.793363  0  0  0.088821  0  4.041774  0  0  0.092877  0  4.063382  0  0.376562  0  0.086756  0.08606  0  4.027215  0
C  C65  1  0.43127314  0.48322223  0.87214167  1  0  0.09891  0  3.793486  0  0  0.088837  0  4.04188  0  0  0.092889  0  4.063492  0  0.37656  0  0.08679  0.086075  0  4.02732  0
C  C66  1  0.53831384  0.28130177  0.20541293  1  0  -0.000237  0  3.62583  0  0  -0.060477  0  3.883073  0  0  -0.05674  0  3.894967  0  0.281986  0  -0.055315  -0.062781  0  3.874687  0
C  C67  1  0.46168522  0.71869764  0.79458672  1  0  -0.000218  0  3.625678  0  0  -0.060464  0  3.882939  0  0  -0.05673  0  3.894835  0  0.282194  0  -0.055336  -0.062771  0  3.87456  0
C  C68  1  0.59650968  0.18833705  0.34264283  1  0  -0.147699  0  3.650425  0  0  -0.192611  0  3.912038  0  0  -0.194113  0  3.924496  0  -0.047245  0  -0.162262  -0.1915  0  3.90336  0
C  C69  1  0.40348938  0.81166236  0.65735769  1  0  -0.147722  0  3.650396  0  0  -0.192631  0  3.912014  0  0  -0.194135  0  3.924468  0  -0.047436  0  -0.16228  -0.191533  0  3.903331  0
C  C70  1  0.74707360  0.20924194  0.57019661  1  0  0.413119  0  3.686372  0  0  0.384786  0  3.963273  0  0  0.404129  0  3.974428  0  0.976896  0  0.236594  0.37212  0  3.955502  0
C  C71  1  0.25292677  0.79075640  0.42980333  1  0  0.413161  0  3.686225  0  0  0.384804  0  3.96317  0  0  0.404149  0  3.974326  0  0.976877  0  0.236628  0.372137  0  3.955399  0
C  C72  1  0.67821439  0.36544634  0.51773747  1  0  -0.393249  0  3.703486  0  0  -0.476395  0  3.944839  0  0  -0.480053  0  3.949155  0  -0.082517  0  -0.230283  -0.473857  0  3.941817  0
C  C73  1  0.32178523  0.63455413  0.48226256  1  0  -0.393265  0  3.70352  0  0  -0.4764  0  3.944858  0  0  -0.480057  0  3.949174  0  -0.082698  0  -0.230284  -0.473859  0  3.941836  0
C  C74  1  0.85112661  0.98621342  0.69753533  1  0  0.150592  0  3.823243  0  0  0.146437  0  4.0719  0  0  0.149776  0  4.094977  0  0.36058  0  0.084751  0.144031  0  4.056326  0
C  C75  1  0.14887207  0.01378705  0.30246307  1  0  0.150553  0  3.823209  0  0  0.146429  0  4.071784  0  0  0.149765  0  4.094854  0  0.360724  0  0.084756  0.144024  0  4.056209  0
C  C76  1  0.91531787  0.85655325  0.79945540  1  0  -0.126164  0  3.712684  0  0  -0.144029  0  3.96132  0  0  -0.145423  0  3.979866  0  -0.05952  0  -0.087572  -0.143082  0  3.949159  0
C  C77  1  0.08468081  0.14344722  0.20054559  1  0  -0.12608  0  3.712619  0  0  -0.14396  0  3.961259  0  0  -0.145347  0  3.979804  0  -0.059669  0  -0.087558  -0.143013  0  3.949098  0
C  C78  1  0.96415980  0.73587656  0.77360327  1  0  -0.095571  0  3.810701  0  0  -0.11287  0  4.069317  0  0  -0.116414  0  4.093615  0  -0.027365  0  -0.103883  -0.110433  0  4.052698  0
C  C79  1  0.03583926  0.26412285  0.22639465  1  0  -0.095607  0  3.810772  0  0  -0.112908  0  4.069408  0  0  -0.116453  0  4.093704  0  -0.027135  0  -0.103908  -0.110473  0  4.052793  0
C  C80  1  0.95206176  0.74229651  0.65082761  1  0  -0.068899  0  3.774828  0  0  -0.085137  0  4.031678  0  0  -0.086829  0  4.054307  0  -0.037306  0  -0.097716  -0.083923  0  4.016387  0
C  C81  1  0.04793730  0.25770290  0.34917290  1  0  -0.068944  0  3.774845  0  0  -0.085197  0  4.031718  0  0  -0.086889  0  4.054347  0  -0.037495  0  -0.097698  -0.083993  0  4.016426  0
C  C82  1  0.88884220  0.87092364  0.54862773  1  0  -0.144745  0  3.74998  0  0  -0.166279  0  4.008511  0  0  -0.168898  0  4.028678  0  -0.012702  0  -0.098918  -0.164446  0  3.994866  0
C  C83  1  0.11115461  0.12907683  0.45137260  1  0  -0.144598  0  3.750048  0  0  -0.166153  0  4.008547  0  0  -0.168778  0  4.02871  0  -0.012337  0  -0.098916  -0.16432  0  3.994906  0
C  C84  1  0.83877482  0.99151336  0.57479018  1  0  0.098276  0  3.80413  0  0  0.0877  0  4.051701  0  0  0.091509  0  4.074244  0  0.3347  0  0.089799  0.085389  0  4.036234  0
C  C85  1  0.16122237  0.00848605  0.42521227  1  0  0.09818  0  3.804232  0  0  0.087675  0  4.051676  0  0  0.0915  0  4.074197  0  0.334342  0  0.08979  0.085363  0  4.036206  0
C  C86  1  0.73290817  0.19262727  0.36259802  1  0  0.006858  0  3.613537  0  0  -0.052795  0  3.869967  0  0  -0.048545  0  3.880921  0  0.277533  0  -0.054843  -0.055554  0  3.862459  0
C  C87  1  0.26709088  0.80737213  0.63740163  1  0  0.006877  0  3.613506  0  0  -0.052755  0  3.86989  0  0  -0.048493  0  3.880825  0  0.277512  0  -0.054836  -0.055516  0  3.862389  0
C  C88  1  0.21591017  0.97917300  0.90487813  1  0  0.667553  0  3.912887  0  0  0.61064  0  4.222044  0  0  0.645505  0  4.211711  0  1.609144  0  0.205736  0.586813  0  4.228403  0
C  C89  1  0.78408982  0.02082640  0.09512315  1  0  0.667687  0  3.912727  0  0  0.610731  0  4.221936  0  0  0.645598  0  4.2116  0  1.609122  0  0.205745  0.586904  0  4.228297  0
C  C90  1  0.25805538  0.08851540  0.79578012  1  0  -0.036067  0  3.686061  0  0  -0.022608  0  3.919992  0  0  -0.02391  0  3.938136  0  -0.019524  0  -0.001976  -0.021757  0  3.907456  0
C  C91  1  0.74194257  0.91148719  0.20422009  1  0  -0.036098  0  3.686137  0  0  -0.022571  0  3.920014  0  0  -0.023872  0  3.938156  0  -0.019407  0  -0.001956  -0.021719  0  3.907479  0
C  C92  1  0.39649042  0.05530197  0.77846873  1  0  -0.104299  0  3.759005  0  0  -0.121793  0  4.002648  0  0  -0.124636  0  4.021792  0  -0.024416  0  -0.093443  -0.119638  0  3.988845  0
C  C93  1  0.60350920  0.94469849  0.22153130  1  0  -0.104304  0  3.759086  0  0  -0.121815  0  4.002705  0  0  -0.124659  0  4.02185  0  -0.024439  0  -0.093454  -0.119659  0  3.988901  0
C  C94  1  0.44389869  0.14815427  0.67807325  1  0  -0.065746  0  3.788788  0  0  -0.079605  0  4.039945  0  0  -0.078508  0  4.057876  0  -0.103889  0  -0.096791  -0.079828  0  4.027417  0
C  C95  1  0.55610224  0.85184514  0.32192707  1  0  -0.065747  0  3.788818  0  0  -0.079613  0  4.039989  0  0  -0.078516  0  4.05792  0  -0.10389  0  -0.096784  -0.079836  0  4.027461  0
C  C96  1  0.35284831  0.27704019  0.59389761  1  0  -0.091594  0  3.804822  0  0  -0.10453  0  4.05509  0  0  -0.107606  0  4.0768  0  -0.051411  0  -0.103513  -0.102792  0  4.040751  0
C  C97  1  0.64715225  0.72296028  0.40610144  1  0  -0.091503  0  3.804786  0  0  -0.104461  0  4.055042  0  0  -0.107539  0  4.076749  0  -0.051459  0  -0.103482  -0.102724  0  4.040704  0
C  C98  1  0.01722975  0.25586165  0.71863145  1  0  0.629424  0  3.94087  0  0  0.580656  0  4.232371  0  0  0.614578  0  4.22517  0  1.579376  0  0.199817  0.557631  0  4.236517  0
C  C99  1  0.98276969  0.74414200  0.28136471  1  0  0.62953  0  3.940663  0  0  0.580763  0  4.232165  0  0  0.614683  0  4.224966  0  1.579372  0  0.199875  0.557738  0  4.236312  0
C  C100  1  0.16671202  0.21729208  0.70928568  1  0  -0.084843  0  3.741483  0  0  -0.069429  0  3.97281  0  0  -0.076864  0  3.994445  0  -0.054329  0  -0.017182  -0.064628  0  3.95839  0
C  C101  1  0.83328612  0.78271263  0.29071278  1  0  -0.084905  0  3.741449  0  0  -0.069552  0  3.972823  0  0  -0.07699  0  3.994464  0  -0.054533  0  -0.017223  -0.064751  0  3.958402  0
C  C102  1  0.21501844  0.31096953  0.60896492  1  0  -0.07527  0  3.74026  0  0  -0.097859  0  3.988293  0  0  -0.09738  0  4.007829  0  -0.060448  0  -0.085639  -0.098046  0  3.975596  0
C  C103  1  0.78498381  0.68903412  0.39103266  1  0  -0.075286  0  3.740225  0  0  -0.097873  0  3.98828  0  0  -0.097392  0  4.007815  0  -0.060344  0  -0.085652  -0.09806  0  3.97558  0
N  N104  1  0.36093577  0.64542976  0.17074807  1  0  -0.501045  0  3.197571  0  0  -0.43019  0  3.49527  0  0  -0.451888  0  3.502033  0  -1.225623  0  -0.355578  -0.415981  0  3.490694  0
N  N105  1  0.63906610  0.35456965  0.82925214  1  0  -0.501029  0  3.197505  0  0  -0.430153  0  3.495199  0  0  -0.451853  0  3.501966  0  -1.225345  0  -0.355563  -0.415946  0  3.49062  0
N  N106  1  0.49168659  0.43241730  0.17663933  1  0  -0.173292  0  3.476161  0  0  -0.090076  0  3.700366  0  0  -0.107363  0  3.723749  0  -1.247821  0  -0.242278  -0.078567  0  3.684184  0
N  N107  1  0.50831190  0.56758105  0.82336081  1  0  -0.173346  0  3.476178  0  0  -0.090139  0  3.700401  0  0  -0.107426  0  3.723787  0  -1.247814  0  -0.242314  -0.07863  0  3.684219  0
N  N108  1  0.79231802  0.12400917  0.69121360  1  0  -0.492678  0  3.173896  0  0  -0.423837  0  3.466555  0  0  -0.445753  0  3.474894  0  -1.191705  0  -0.351561  -0.409198  0  3.460899  0
N  N109  1  0.20768011  0.87599024  0.30878702  1  0  -0.49269  0  3.173826  0  0  -0.423868  0  3.466496  0  0  -0.445788  0  3.47484  0  -1.191712  0  -0.351593  -0.409231  0  3.460845  0
N  N110  1  0.77296724  0.13374357  0.49709410  1  0  -0.16946  0  3.486094  0  0  -0.087738  0  3.710514  0  0  -0.10519  0  3.734215  0  -1.232339  0  -0.241168  -0.075993  0  3.694028  0
N  N111  1  0.22703051  0.86625689  0.50290613  1  0  -0.169473  0  3.486152  0  0  -0.087777  0  3.710544  0  0  -0.105237  0  3.734237  0  -1.232312  0  -0.241167  -0.076032  0  3.694058  0
O  O112  1  0.97811995  0.19220621  0.83032076  1  0  -0.636837  0  2.059394  0  0  -0.55901  0  2.32725  0  0  -0.587291  0  2.311056  0  -1.150261  0  -0.327712  -0.539217  0  2.337309  0
O  O113  1  0.02188154  0.80779426  0.16967560  1  0  -0.636941  0  2.059325  0  0  -0.559077  0  2.327149  0  0  -0.587356  0  2.310953  0  -1.150324  0  -0.327777  -0.539287  0  2.337215  0
O  O114  1  0.94090590  0.34311385  0.62146856  1  0  -0.618501  0  1.94293  0  0  -0.569589  0  2.169168  0  0  -0.592788  0  2.161446  0  -1.192685  0  -0.320329  -0.553078  0  2.174196  0
O  O115  1  0.05909261  0.65688980  0.37852943  1  0  -0.618508  0  1.942959  0  0  -0.569575  0  2.169154  0  0  -0.592775  0  2.161434  0  -1.192588  0  -0.320299  -0.553063  0  2.17418  0
O  O116  1  0.18777139  0.89050805  0.88525959  1  0  -0.612884  0  1.895687  0  0  -0.567604  0  2.119799  0  0  -0.590774  0  2.111321  0  -1.172979  0  -0.320705  -0.551357  0  2.125144  0
O  O117  1  0.81222936  0.10949454  0.11473859  1  0  -0.612958  0  1.895527  0  0  -0.567668  0  2.119673  0  0  -0.590843  0  2.111201  0  -1.173002  0  -0.320731  -0.551419  0  2.125019  0
O  O118  1  0.22581268  0.97914967  0.01557734  1  0  -0.656062  0  2.038902  0  0  -0.579013  0  2.312353  0  0  -0.608441  0  2.296125  0  -1.166389  0  -0.329281  -0.558173  0  2.322584  0
O  O119  1  0.77418657  0.02085186  0.98442403  1  0  -0.656087  0  2.038856  0  0  -0.57904  0  2.312346  0  0  -0.608452  0  2.296083  0  -1.166363  0  -0.329276  -0.558202  0  2.322581  0
