# generated using pymatgen
data_ZnH16C25(NO2)3
_symmetry_space_group_name_H-M   'P 1'
_cell_length_a   8.12379121
_cell_length_b   10.68455809
_cell_length_c   13.52930000
_cell_angle_alpha   93.83693117
_cell_angle_beta   97.91813043
_cell_angle_gamma   96.15495634
_symmetry_Int_Tables_number   1
_chemical_formula_structural   ZnH16C25(NO2)3
_chemical_formula_sum   'Zn2 H32 C50 N6 O12'
_cell_volume   1152.44478315
_cell_formula_units_Z   2
loop_
 _symmetry_equiv_pos_site_id
 _symmetry_equiv_pos_as_xyz
  1  'x, y, z'
loop_
 _atom_site_type_symbol
 _atom_site_label
 _atom_site_symmetry_multiplicity
 _atom_site_fract_x
 _atom_site_fract_y
 _atom_site_fract_z
 _atom_site_occupancy
 _atom_site_hle17_bader_spin_density
 _atom_site_hle17_ddec_charge
 _atom_site_hle17_ddec_spin_density
 _atom_site_hle17_ddec_sum_bond_order
 _atom_site_hle17_magmom
 _atom_site_hse06_10hf_bader_spin_density
 _atom_site_hse06_10hf_ddec_charge
 _atom_site_hse06_10hf_ddec_spin_density
 _atom_site_hse06_10hf_ddec_sum_bond_order
 _atom_site_hse06_10hf_magmom
 _atom_site_hse06_bader_spin_density
 _atom_site_hse06_ddec_charge
 _atom_site_hse06_ddec_spin_density
 _atom_site_hse06_ddec_sum_bond_order
 _atom_site_hse06_magmom
 _atom_site_pbe_bader_charge
 _atom_site_pbe_bader_spin_density
 _atom_site_pbe_cm5_charge
 _atom_site_pbe_ddec_charge
 _atom_site_pbe_ddec_spin_density
 _atom_site_pbe_ddec_sum_bond_order
 _atom_site_pbe_magmom
Zn  Zn0  1  0.55462403  0.85688311  0.44857033  1  0  1.048819  0  1.838349  0  0  0.872321  0  2.312529  0  0  0.920089  0  2.253292  0  1.289274  0  0.693934  0.838936  0  2.353313  0
Zn  Zn1  1  0.44537390  0.14311534  0.55142986  1  0  1.048758  0  1.838384  0  0  0.872268  0  2.312571  0  0  0.920037  0  2.253336  0  1.289245  0  0.693937  0.838882  0  2.353355  0
H  H2  1  0.94309527  0.61207556  0.02548802  1  0  0.114542  0  0.974633  0  0  0.124081  0  1.034903  0  0  0.126892  0  1.034079  0  0.118185  0  0.105682  0.122137  0  1.035606  0
H  H3  1  0.05690311  0.38792573  0.97451235  1  0  0.114544  0  0.974657  0  0  0.124079  0  1.034932  0  0  0.126889  0  1.034109  0  0.11816  0  0.105685  0.122135  0  1.035636  0
H  H4  1  0.11223864  0.61673817  0.19154154  1  0  0.100411  0  0.951337  0  0  0.10629  0  1.019041  0  0  0.109819  0  1.016208  0  0.080865  0  0.10207  0.103738  0  1.021173  0
H  H5  1  0.88776208  0.38326218  0.80845824  1  0  0.100406  0  0.951338  0  0  0.10628  0  1.019046  0  0  0.10981  0  1.016214  0  0.08087  0  0.102066  0.103729  0  1.021176  0
H  H6  1  0.36129914  0.98171360  0.15141808  1  0  0.100443  0  0.94399  0  0  0.1105  0  1.004609  0  0  0.113768  0  1.002462  0  0.074406  0  0.102457  0.108182  0  1.00612  0
H  H7  1  0.63870267  0.01828580  0.84858100  1  0  0.100442  0  0.943992  0  0  0.110494  0  1.004617  0  0  0.113764  0  1.002468  0  0.074406  0  0.102452  0.108177  0  1.006128  0
H  H8  1  0.18438405  0.98083889  0.98489179  1  0  0.103018  0  0.950816  0  0  0.113064  0  1.01213  0  0  0.116367  0  1.010791  0  0.077219  0  0.102475  0.110702  0  1.013223  0
H  H9  1  0.81561557  0.01916240  0.01510795  1  0  0.103038  0  0.950806  0  0  0.113087  0  1.012114  0  0  0.116389  0  1.010777  0  0.077239  0  0.102489  0.110725  0  1.013208  0
H  H10  1  0.83307147  0.62858077  0.73928633  1  0  0.109519  0  0.957902  0  0  0.118059  0  1.018702  0  0  0.121148  0  1.018805  0  0.083797  0  0.106669  0.115848  0  1.018839  0
H  H11  1  0.16692596  0.37142241  0.26071407  1  0  0.109552  0  0.957932  0  0  0.118128  0  1.018682  0  0  0.121219  0  1.018783  0  0.083738  0  0.106679  0.115918  0  1.018819  0
H  H12  1  0.56382928  0.48796959  0.71920712  1  0  0.122747  0  0.953058  0  0  0.127477  0  1.0194  0  0  0.131221  0  1.016397  0  0.115562  0  0.111838  0.124735  0  1.021645  0
H  H13  1  0.43616925  0.51203264  0.28079332  1  0  0.122742  0  0.953024  0  0  0.127476  0  1.019358  0  0  0.131229  0  1.016356  0  0.115538  0  0.111825  0.124733  0  1.021605  0
H  H14  1  0.44823945  0.66292781  0.99372930  1  0  0.115535  0  0.938427  0  0  0.12404  0  0.998673  0  0  0.127346  0  0.99674  0  0.122419  0  0.114131  0.121651  0  1.000087  0
H  H15  1  0.55175878  0.33707254  0.00627249  1  0  0.115621  0  0.938405  0  0  0.124054  0  0.998717  0  0  0.127338  0  0.996811  0  0.122464  0  0.114108  0.121665  0  1.000133  0
H  H16  1  0.72291244  0.79646762  0.01875125  1  0  0.115962  0  0.931192  0  0  0.129124  0  0.982694  0  0  0.132848  0  0.981255  0  0.07306  0  0.11386  0.126417  0  0.983908  0
H  H17  1  0.27708579  0.20353273  0.98124981  1  0  0.115989  0  0.931189  0  0  0.129155  0  0.982683  0  0  0.132879  0  0.981246  0  0.073091  0  0.113862  0.126448  0  0.983897  0
H  H18  1  0.83842743  0.90676052  0.73463395  1  0  0.11412  0  0.938145  0  0  0.125979  0  0.994644  0  0  0.12895  0  0.993869  0  0.08354  0  0.107889  0.123823  0  0.99538  0
H  H19  1  0.16157328  0.09323982  0.26536583  1  0  0.114099  0  0.938165  0  0  0.125965  0  0.994657  0  0  0.128936  0  0.993883  0  0.083528  0  0.107882  0.12381  0  0.995392  0
H  H20  1  0.99181716  0.95106283  0.59213259  1  0  0.104383  0  0.956607  0  0  0.111979  0  1.02416  0  0  0.115056  0  1.021882  0  0.112  0  0.103815  0.109794  0  1.025731  0
H  H21  1  0.00818853  0.04893752  0.40786835  1  0  0.104429  0  0.956534  0  0  0.111987  0  1.024127  0  0  0.115069  0  1.021841  0  0.111643  0  0.103813  0.109799  0  1.025705  0
H  H22  1  0.41134522  0.78169483  0.73399132  1  0  0.097357  0  0.956791  0  0  0.105966  0  1.020446  0  0  0.108363  0  1.019757  0  0.101637  0  0.101023  0.104195  0  1.021049  0
H  H23  1  0.58865476  0.21830079  0.26601184  1  0  0.09736  0  0.956824  0  0  0.105971  0  1.02047  0  0  0.108368  0  1.019782  0  0.101657  0  0.101032  0.104201  0  1.021072  0
H  H24  1  0.25986237  0.74204474  0.87908782  1  0  0.096719  0  1.0078  0  0  0.10261  0  1.077611  0  0  0.104921  0  1.077637  0  0.088187  0  0.099205  0.100996  0  1.077655  0
H  H25  1  0.74013278  0.25795183  0.12091426  1  0  0.096753  0  1.007875  0  0  0.102639  0  1.077677  0  0  0.104951  0  1.077699  0  0.088201  0  0.099223  0.101023  0  1.077722  0
H  H26  1  0.88715444  0.82326343  0.38569813  1  0  0.087832  0  0.920971  0  0  0.098922  0  0.978286  0  0  0.10114  0  0.976559  0  0.125723  0  0.127336  0.097228  0  0.979659  0
H  H27  1  0.11284627  0.17673692  0.61430018  1  0  0.087908  0  0.920955  0  0  0.098987  0  0.978267  0  0  0.101204  0  0.97654  0  0.125748  0  0.127352  0.09729  0  0.979646  0
H  H28  1  0.09205792  0.66920381  0.40620211  1  0  0.127072  0  0.971064  0  0  0.135486  0  1.031299  0  0  0.139195  0  1.029944  0  0.152237  0  0.113093  0.132769  0  1.032455  0
H  H29  1  0.90794264  0.33079559  0.59379613  1  0  0.127097  0  0.971072  0  0  0.135474  0  1.031345  0  0  0.139183  0  1.029991  0  0.152322  0  0.113093  0.132756  0  1.032501  0
H  H30  1  0.75063938  0.45594630  0.57224582  1  0  0.128635  0  0.968602  0  0  0.137958  0  1.029083  0  0  0.141628  0  1.027235  0  0.140128  0  0.114546  0.135333  0  1.030425  0
H  H31  1  0.24936133  0.54405405  0.42775249  1  0  0.128645  0  0.968629  0  0  0.138027  0  1.02905  0  0  0.141696  0  1.027203  0  0.140101  0  0.114603  0.135401  0  1.030394  0
H  H32  1  0.56308939  0.62324088  0.54541233  1  0  0.086071  0  0.937399  0  0  0.095046  0  1.000098  0  0  0.097369  0  0.998527  0  0.109364  0  0.1213  0.093371  0  1.001232  0
H  H33  1  0.43691257  0.37675947  0.45458608  1  0  0.086043  0  0.937364  0  0  0.095032  0  1.00005  0  0  0.097356  0  0.998478  0  0.109335  0  0.121286  0.093356  0  1.001186  0
C  C34  1  0.05109624  0.79697676  0.99469406  1  0  0.192781  0  3.777181  0  0  0.186499  0  4.029448  0  0  0.195606  0  4.050041  0  0.273503  0  0.093586  0.180449  0  4.015123  0
C  C35  1  0.94890090  0.20302453  0.00530548  1  0  0.192774  0  3.777142  0  0  0.186473  0  4.029397  0  0  0.195579  0  4.049991  0  0.273509  0  0.093533  0.180424  0  4.015069  0
C  C36  1  0.03248618  0.69417557  0.05287833  1  0  -0.150257  0  3.73826  0  0  -0.174916  0  3.9953  0  0  -0.180703  0  4.015259  0  -0.026844  0  -0.09471  -0.170928  0  3.981492  0
C  C37  1  0.96751234  0.30582666  0.94712137  1  0  -0.150225  0  3.738095  0  0  -0.174899  0  3.995151  0  0  -0.180686  0  4.015109  0  -0.026848  0  -0.094681  -0.170912  0  3.981341  0
C  C38  1  0.12826093  0.69635385  0.14622319  1  0  -0.042366  0  3.740836  0  0  -0.066207  0  3.99194  0  0  -0.064498  0  4.012574  0  0.00629  0  -0.080557  -0.067044  0  3.977821  0
C  C39  1  0.87173854  0.30364649  0.85377649  1  0  -0.04233  0  3.740805  0  0  -0.066174  0  3.991891  0  0  -0.064464  0  4.012526  0  0.006241  0  -0.080541  -0.067011  0  3.977773  0
C  C40  1  0.24794262  0.79927973  0.18247766  1  0  -0.079854  0  3.774988  0  0  -0.058293  0  4.005234  0  0  -0.069685  0  4.03186  0  -0.04468  0  -0.025276  -0.05083  0  3.987155  0
C  C41  1  0.75205794  0.20071967  0.81752132  1  0  -0.07992  0  3.775104  0  0  -0.058321  0  4.005274  0  0  -0.069717  0  4.031907  0  -0.045107  0  -0.025266  -0.05086  0  3.987199  0
C  C42  1  0.26812395  0.90158971  0.12328500  1  0  -0.056969  0  3.74494  0  0  -0.079716  0  3.994086  0  0  -0.077788  0  4.014367  0  0.011999  0  -0.084942  -0.080692  0  3.980105  0
C  C43  1  0.73187552  0.09841063  0.87671468  1  0  -0.05697  0  3.744931  0  0  -0.079733  0  3.99407  0  0  -0.077802  0  4.014349  0  0.012446  0  -0.084967  -0.08071  0  3.98009  0
C  C44  1  0.16963458  0.90131200  0.03053374  1  0  -0.159333  0  3.747714  0  0  -0.18184  0  4.008876  0  0  -0.187525  0  4.029137  0  -0.051366  0  -0.096582  -0.178061  0  3.99511  0
C  C45  1  0.83036489  0.09868835  0.96946594  1  0  -0.159334  0  3.7477  0  0  -0.181852  0  4.008869  0  0  -0.187537  0  4.029132  0  -0.051362  0  -0.096582  -0.178074  0  3.995104  0
C  C46  1  0.79641604  0.72232596  0.88023554  1  0  0.227184  0  3.749648  0  0  0.214505  0  4.005173  0  0  0.227373  0  4.023541  0  0.35129  0  0.115761  0.205765  0  3.992688  0
C  C47  1  0.20358248  0.27767628  0.11976490  1  0  0.227177  0  3.749741  0  0  0.214498  0  4.00523  0  0  0.227367  0  4.023598  0  0.351291  0  0.115817  0.205758  0  3.992746  0
C  C48  1  0.74801224  0.63707944  0.79428955  1  0  -0.150423  0  3.710278  0  0  -0.168762  0  3.96356  0  0  -0.17634  0  3.983126  0  -0.007122  0  -0.088319  -0.16384  0  3.950592  0
C  C49  1  0.25198643  0.36292374  0.20571095  1  0  -0.150417  0  3.710427  0  0  -0.168811  0  3.963718  0  0  -0.176391  0  3.983291  0  -0.007101  0  -0.088286  -0.16389  0  3.95075  0
C  C50  1  0.59736347  0.55954946  0.78205345  1  0  -0.072252  0  3.729442  0  0  -0.09673  0  3.985869  0  0  -0.092908  0  4.003234  0  0.046933  0  -0.07419  -0.099047  0  3.974216  0
C  C51  1  0.40263382  0.44045277  0.21794689  1  0  -0.072199  0  3.729458  0  0  -0.096668  0  3.985876  0  0  -0.09286  0  4.003252  0  0.046892  0  -0.074187  -0.098984  0  3.974225  0
C  C52  1  0.49086327  0.56981456  0.85436563  1  0  0.04754  0  3.739758  0  0  0.031887  0  3.994264  0  0  0.025198  0  4.018382  0  0.188788  0  0.067743  0.036066  0  3.978055  0
C  C53  1  0.50913525  0.43018767  0.14563555  1  0  0.04753  0  3.739846  0  0  0.031844  0  3.994318  0  0  0.025157  0  4.01843  0  0.188808  0  0.067755  0.036023  0  3.978111  0
C  C54  1  0.53405091  0.65646949  0.93892200  1  0  -0.075665  0  3.747542  0  0  -0.102416  0  4.009965  0  0  -0.099054  0  4.028129  0  -0.040741  0  -0.076505  -0.104338  0  3.997504  0
C  C55  1  0.46594871  0.34353179  0.06107922  1  0  -0.07578  0  3.747713  0  0  -0.102469  0  4.010126  0  0  -0.099083  0  4.028289  0  -0.040743  0  -0.076516  -0.10439  0  3.997659  0
C  C56  1  0.68618020  0.73158127  0.95185347  1  0  -0.143057  0  3.712895  0  0  -0.164257  0  3.970951  0  0  -0.17144  0  3.990016  0  0.044609  0  -0.086159  -0.15965  0  3.958237  0
C  C57  1  0.31381833  0.26842097  0.04814771  1  0  -0.143075  0  3.712986  0  0  -0.164294  0  3.971028  0  0  -0.171476  0  3.990085  0  0.04462  0  -0.086206  -0.159686  0  3.958315  0
C  C58  1  0.04039685  0.82083672  0.81573768  1  0  0.195997  0  3.781369  0  0  0.190101  0  4.030658  0  0  0.19944  0  4.050794  0  0.294246  0  0.094042  0.183789  0  4.016752  0
C  C59  1  0.95960371  0.17916268  0.18426352  1  0  0.196035  0  3.781441  0  0  0.190099  0  4.030733  0  0  0.199428  0  4.050881  0  0.294637  0  0.094045  0.183788  0  4.016826  0
C  C60  1  0.96398416  0.87955758  0.73459205  1  0  -0.150212  0  3.721651  0  0  -0.170716  0  3.975318  0  0  -0.176434  0  3.995844  0  0.033064  0  -0.089705  -0.166859  0  3.961414  0
C  C61  1  0.03601794  0.12044371  0.26540863  1  0  -0.150239  0  3.721568  0  0  -0.170758  0  3.975255  0  0  -0.176474  0  3.995787  0  0.033069  0  -0.089734  -0.1669  0  3.96135  0
C  C62  1  0.05039471  0.90412694  0.65461993  1  0  -0.05682  0  3.738669  0  0  -0.081674  0  3.989178  0  0  -0.080286  0  4.010758  0  -0.066725  0  -0.083862  -0.082348  0  3.974405  0
C  C63  1  0.94960695  0.09587151  0.34538205  1  0  -0.056811  0  3.738563  0  0  -0.081632  0  3.989085  0  0  -0.080244  0  4.010665  0  -0.066451  0  -0.08386  -0.082308  0  3.974313  0
C  C64  1  0.21127129  0.86782833  0.65377265  1  0  -0.080843  0  3.779448  0  0  -0.059105  0  4.013164  0  0  -0.070398  0  4.03893  0  -0.057287  0  -0.025191  -0.051687  0  3.995742  0
C  C65  1  0.78873286  0.13217012  0.34622953  1  0  -0.080791  0  3.779508  0  0  -0.059064  0  4.013199  0  0  -0.070357  0  4.038965  0  -0.057286  0  -0.025098  -0.051646  0  3.995776  0
C  C66  1  0.28633545  0.80927278  0.73509907  1  0  -0.042695  0  3.74092  0  0  -0.065699  0  3.985022  0  0  -0.063581  0  4.005558  0  -0.006591  0  -0.083123  -0.066809  0  3.970913  0
C  C67  1  0.71366372  0.19072568  0.26490270  1  0  -0.042726  0  3.740899  0  0  -0.065722  0  3.984988  0  0  -0.063603  0  4.005524  0  -0.006438  0  -0.08318  -0.066831  0  3.970878  0
C  C68  1  0.20262458  0.78759676  0.81588743  1  0  -0.15908  0  3.763066  0  0  -0.180168  0  4.013838  0  0  -0.186599  0  4.035715  0  -0.019529  0  -0.098865  -0.175837  0  3.99887  0
C  C69  1  0.79737306  0.21239980  0.18411412  1  0  -0.15911  0  3.763197  0  0  -0.180188  0  4.013964  0  0  -0.186615  0  4.035845  0  -0.01979  0  -0.098865  -0.175858  0  3.998996  0
C  C70  1  0.30887175  0.89436910  0.57109376  1  0  0.671801  0  3.871181  0  0  0.620273  0  4.160937  0  0  0.656784  0  4.151515  0  1.528975  0  0.216819  0.595322  0  4.166859  0
C  C71  1  0.69113225  0.10562841  0.42890763  1  0  0.671609  0  3.871291  0  0  0.620123  0  4.161018  0  0  0.656632  0  4.151596  0  1.528928  0  0.216748  0.595173  0  4.16694  0
C  C72  1  0.86303577  0.74056169  0.42678513  1  0  0.163166  0  3.675239  0  0  0.129063  0  3.931218  0  0  0.136987  0  3.947978  0  0.464538  0  0.065179  0.123949  0  3.919723  0
C  C73  1  0.13696494  0.25943865  0.57321243  1  0  0.162981  0  3.675315  0  0  0.1289  0  3.931242  0  0  0.136822  0  3.948004  0  0.464576  0  0.06512  0.123786  0  3.919746  0
C  C74  1  0.97706212  0.65311612  0.43906271  1  0  -0.142363  0  3.653301  0  0  -0.16254  0  3.899749  0  0  -0.170397  0  3.92018  0  0.005129  0  -0.071398  -0.157311  0  3.885879  0
C  C75  1  0.02293736  0.34688422  0.56093549  1  0  -0.142338  0  3.653369  0  0  -0.162462  0  3.899794  0  0  -0.170318  0  3.920225  0  0.004967  0  -0.071401  -0.157232  0  3.885923  0
C  C76  1  0.94090412  0.54757084  0.49226815  1  0  0.10395  0  3.736084  0  0  0.115688  0  3.963753  0  0  0.119895  0  3.985121  0  -0.045467  0  0.019725  0.113072  0  3.949057  0
C  C77  1  0.05909506  0.45242762  0.50772993  1  0  0.10387  0  3.736162  0  0  0.115558  0  3.96388  0  0  0.119764  0  3.98525  0  0.004723  0  0.019689  0.112941  0  3.949185  0
C  C78  1  0.78802775  0.53554498  0.53062011  1  0  -0.156391  0  3.677698  0  0  -0.17404  0  3.920121  0  0  -0.18167  0  3.940859  0  -0.034481  0  -0.075093  -0.169132  0  3.906152  0
C  C79  1  0.21197173  0.46445536  0.46937735  1  0  -0.156393  0  3.67762  0  0  -0.1741  0  3.920082  0  0  -0.181728  0  3.940819  0  -0.034418  0  -0.07511  -0.169193  0  3.906113  0
C  C80  1  0.68146723  0.62761821  0.51563462  1  0  0.129219  0  3.702438  0  0  0.098759  0  3.95229  0  0  0.105104  0  3.97176  0  0.477421  0  0.050316  0.094607  0  3.939177  0
C  C81  1  0.31853225  0.37238214  0.48436432  1  0  0.129287  0  3.702317  0  0  0.098825  0  3.95218  0  0  0.105171  0  3.97165  0  0.477427  0  0.050335  0.094675  0  3.939068  0
C  C82  1  0.34916339  0.79812258  0.28301875  1  0  0.636762  0  3.92249  0  0  0.591916  0  4.207583  0  0  0.62688  0  4.200598  0  1.52067  0  0.196982  0.56821  0  4.211339  0
C  C83  1  0.65083732  0.20187777  0.71698103  1  0  0.636797  0  3.922432  0  0  0.591971  0  4.207475  0  0  0.626936  0  4.20049  0  1.520633  0  0.197015  0.568266  0  4.211233  0
N  N84  1  0.33201448  0.49083555  0.84114109  1  0  0.465529  0  3.9648  0  0  0.520227  0  4.225765  0  0  0.542312  0  4.232757  0  0.310912  0  0.041833  0.505406  0  4.221087  0
N  N85  1  0.66798499  0.50916480  0.15886007  1  0  0.465466  0  3.964882  0  0  0.520289  0  4.225682  0  0  0.542375  0  4.23267  0  0.310885  0  0.04188  0.505465  0  4.221008  0
N  N86  1  0.95500861  0.79231510  0.89781622  1  0  -0.233795  0  3.437212  0  0  -0.161769  0  3.663005  0  0  -0.185021  0  3.68665  0  -1.190323  0  -0.243369  -0.145263  0  3.645892  0
N  N87  1  0.04498977  0.20768619  0.10218415  1  0  -0.23386  0  3.437349  0  0  -0.161718  0  3.662976  0  0  -0.184965  0  3.686622  0  -1.190476  0  -0.243358  -0.145212  0  3.645863  0
N  N88  1  0.71803297  0.72852261  0.46462650  1  0  -0.329174  0  3.32133  0  0  -0.24579  0  3.600463  0  0  -0.265279  0  3.614508  0  -1.270195  0  -0.33207  -0.232719  0  3.590856  0
N  N89  1  0.28196760  0.27147679  0.53537174  1  0  -0.329102  0  3.321323  0  0  -0.245719  0  3.600425  0  0  -0.265209  0  3.614473  0  -1.270206  0  -0.332032  -0.232648  0  3.590814  0
O  O90  1  0.32504842  0.70722822  0.33646978  1  0  -0.640575  0  1.940991  0  0  -0.591873  0  2.173932  0  0  -0.616699  0  2.163745  0  -1.187698  0  -0.325441  -0.574204  0  2.180171  0
O  O91  1  0.67495091  0.29277118  0.66352910  1  0  -0.640565  0  1.940973  0  0  -0.591865  0  2.173908  0  0  -0.616688  0  2.163717  0  -1.187702  0  -0.325455  -0.574198  0  2.180145  0
O  O92  1  0.46072830  0.89428881  0.31275651  1  0  -0.647726  0  2.014917  0  0  -0.576754  0  2.270869  0  0  -0.606575  0  2.257266  0  -1.154596  0  -0.336148  -0.555693  0  2.279251  0
O  O93  1  0.53927117  0.10571154  0.68724317  1  0  -0.647744  0  2.014888  0  0  -0.576788  0  2.270828  0  0  -0.606613  0  2.25723  0  -1.15456  0  -0.336165  -0.55572  0  2.279195  0
O  O94  1  0.30447286  0.40231217  0.77390815  1  0  -0.372202  0  1.730791  0  0  -0.362518  0  1.916367  0  0  -0.371825  0  1.912743  0  -0.474583  0  -0.149115  -0.356614  0  1.91909  0
O  O95  1  0.69552552  0.59768912  0.22609223  1  0  -0.372187  0  1.730807  0  0  -0.362535  0  1.916345  0  0  -0.371843  0  1.912721  0  -0.474606  0  -0.149148  -0.356635  0  1.919071  0
O  O96  1  0.22907616  0.51643453  0.89801341  1  0  -0.381239  0  1.786176  0  0  -0.363105  0  1.984481  0  0  -0.373976  0  1.981071  0  -0.497087  0  -0.138871  -0.356212  0  1.987139  0
O  O97  1  0.77092455  0.48356581  0.10198859  1  0  -0.381218  0  1.786198  0  0  -0.363161  0  1.984483  0  0  -0.374033  0  1.981072  0  -0.497035  0  -0.138895  -0.356255  0  1.987132  0
O  O98  1  0.27560971  0.98451910  0.51658401  1  0  -0.659698  0  2.019258  0  0  -0.59475  0  2.287107  0  0  -0.620876  0  2.26997  0  -1.202224  0  -0.331749  -0.576512  0  2.298295  0
O  O99  1  0.72439151  0.01547652  0.48341631  1  0  -0.659682  0  2.019268  0  0  -0.594728  0  2.287083  0  0  -0.620867  0  2.269975  0  -1.202308  0  -0.331736  -0.57649  0  2.298271  0
O  O100  1  0.42668460  0.82629185  0.56036168  1  0  -0.624103  0  2.062342  0  0  -0.554142  0  2.332484  0  0  -0.5821  0  2.315938  0  -1.153521  0  -0.312071  -0.534825  0  2.343174  0
O  O101  1  0.57331508  0.17370188  0.43963840  1  0  -0.623957  0  2.062335  0  0  -0.554057  0  2.33252  0  0  -0.582015  0  2.315978  0  -1.15341  0  -0.312049  -0.534739  0  2.343208  0
