# generated using pymatgen
data_Al4H31C56N8O20F
_symmetry_space_group_name_H-M   'P 1'
_cell_length_a   6.67139210
_cell_length_b   21.96937244
_cell_length_c   23.80613833
_cell_angle_alpha   68.04940652
_cell_angle_beta   90.17265639
_cell_angle_gamma   90.13450053
_symmetry_Int_Tables_number   1
_chemical_formula_structural   Al4H31C56N8O20F
_chemical_formula_sum   'Al4 H31 C56 N8 O20 F1'
_cell_volume   3236.21748900
_cell_formula_units_Z   1
loop_
 _symmetry_equiv_pos_site_id
 _symmetry_equiv_pos_as_xyz
  1  'x, y, z'
loop_
 _atom_site_type_symbol
 _atom_site_label
 _atom_site_symmetry_multiplicity
 _atom_site_fract_x
 _atom_site_fract_y
 _atom_site_fract_z
 _atom_site_occupancy
 _atom_site_pbe_bader_charge
 _atom_site_pbe_bader_spin_density
 _atom_site_pbe_cm5_charge
 _atom_site_pbe_ddec_charge
 _atom_site_pbe_ddec_spin_density
 _atom_site_pbe_ddec_sum_bond_order
 _atom_site_pbe_magmom
Al  Al0  1  0.09665171  0.50116063  0.49630844  1  2.501344  0  0.39922  1.643511  0  2.580622  0
Al  Al1  1  0.59624692  0.49934716  0.50013177  1  2.501982  0  0.400415  1.644321  0  2.581214  0
Al  Al2  1  0.66951037  0.99902437  0.00147494  1  2.502269  0  0.400455  1.650426  0  2.579561  0
Al  Al3  1  0.16955491  0.00139864  0.99823201  1  2.501653  0  0.400354  1.649098  0  2.580267  0
H  H4  1  0.24445913  0.87437126  0.16999694  1  0.089817  0  0.109245  0.115337  0  0.997111  0
H  H5  1  0.48908729  0.71947323  0.23019783  1  0.046691  0  0.102387  0.102614  0  1.012061  0
H  H6  1  0.27659783  0.78039641  0.26879654  1  0.071501  0  0.103659  0.104191  0  1.010221  0
H  H7  1  0.52081764  0.62580500  0.32946904  1  0.09872  0  0.112669  0.121086  0  0.990053  0
H  H8  1  0.13243590  0.67879042  0.34624499  1  0.091414  0  0.111935  0.119453  0  0.993891  0
H  H9  1  0.59066517  0.90750312  0.88405385  1  0.104536  0  0.110784  0.116412  0  1.000608  0
H  H10  1  0.21489433  0.81719453  0.83155777  1  0.130196  0  0.105643  0.102492  0  1.032552  0
H  H11  1  0.22955202  0.88433636  0.89694420  1  0.087956  0  0.109507  0.113931  0  1.002544  0
H  H12  1  0.54646480  0.68790031  0.66147205  1  0.103105  0  0.107085  0.109028  0  1.023854  0
H  H13  1  0.54304787  0.62059402  0.59685496  1  0.141559  0  0.106422  0.112616  0  1.022177  0
H  H14  1  0.18128107  0.65245977  0.69012837  1  0.132072  0  0.114665  0.135359  0  1.015471  0
H  H15  1  0.67535263  0.40430239  0.38655265  1  0.092207  0  0.111006  0.115932  0  1.001423  0
H  H16  1  0.04742582  0.31982245  0.32830057  1  0.094128  0  0.105775  0.103299  0  1.033857  0
H  H17  1  0.03435048  0.38727357  0.39345701  1  0.099713  0  0.109583  0.113047  0  1.004195  0
H  H18  1  0.72220051  0.17977274  0.17130980  1  0.110492  0  0.105736  0.10337  0  1.033922  0
H  H19  1  0.73416198  0.11290118  0.10561524  1  0.101337  0  0.108358  0.112302  0  1.006258  0
H  H20  1  0.09298197  0.09675366  0.11224558  1  0.116775  0  0.109918  0.114853  0  1.003009  0
H  H21  1  0.07972589  0.16237549  0.17892227  1  0.10996  0  0.10536  0.103137  0  1.032947  0
H  H22  1  0.13484914  0.18066464  0.84703238  1  0.090727  0  0.108489  0.113047  0  1.000896  0
H  H23  1  0.74287267  0.12555953  0.82983003  1  0.081819  0  0.110168  0.11718  0  0.995323  0
H  H24  1  0.77480443  0.21882197  0.73054074  1  0.070675  0  0.103126  0.103356  0  1.009714  0
H  H25  1  0.02298981  0.37489240  0.66981040  1  0.101919  0  0.10895  0.115198  0  0.996212  0
H  H26  1  0.62983430  0.31918462  0.65210957  1  0.104568  0  0.108102  0.112205  0  1.001491  0
H  H27  1  0.63456856  0.82008731  0.15238488  1  0.08047  0  0.107891  0.111995  0  1.001949  0
H  H28  1  0.68973390  0.33788353  0.32054470  1  0.094572  0  0.105716  0.104073  0  1.032936  0
H  H29  1  0.99108271  0.28170404  0.76909920  1  0.071022  0  0.102959  0.103532  0  1.00932  0
H  H30  1  0.57490005  0.84226742  0.81702104  1  0.098071  0  0.105455  0.103139  0  1.030351  0
H  H31  1  0.34451564  0.57348948  0.50937443  1  0.619449  0  0.351437  0.429621  0  0.857066  0
H  H32  1  0.85138390  0.41525039  0.53599089  1  0.581624  0  0.352835  0.429893  0  0.855186  0
H  H33  1  0.41406630  0.91409805  0.03084423  1  0.609485  0  0.356304  0.433457  0  0.848118  0
H  H34  1  0.91490547  0.08655238  0.97057912  1  0.648875  0  0.35723  0.434813  0  0.846301  0
C  C35  1  0.34800176  0.43775664  0.43377564  1  1.59599  0  0.269976  0.637889  0  4.102706  0
C  C36  1  0.34153660  0.40704013  0.59512535  1  1.565027  0  0.26604  0.644451  0  4.094486  0
C  C37  1  0.84953858  0.56374281  0.56342086  1  1.584083  0  0.267289  0.65948  0  4.098408  0
C  C38  1  0.84358396  0.59148533  0.40251037  1  1.571759  0  0.269541  0.641499  0  4.099283  0
C  C39  1  0.93690851  0.85199024  0.15544055  1  0.013358  0  -0.016762  -0.044584  0  3.998735  0
C  C40  1  0.82962858  0.64745538  0.34311384  1  -0.031426  0  -0.012927  -0.037945  0  3.993934  0
C  C41  1  0.62841053  0.71117796  0.25610732  1  -0.023757  0  -0.088535  -0.134361  0  4.000296  0
C  C42  1  0.64578475  0.65913252  0.31051878  1  -0.053843  0  -0.083176  -0.09767  0  3.987927  0
C  C43  1  0.99195974  0.68869369  0.32080454  1  -0.004376  0  -0.073052  -0.134582  0  3.920361  0
C  C44  1  0.97599293  0.74393604  0.26600125  1  -0.025127  0  -0.002647  0.078884  0  3.997165  0
C  C45  1  0.79063087  0.75541677  0.23272322  1  -0.008015  0  -0.003889  0.078197  0  3.998497  0
C  C46  1  0.77498620  0.81053806  0.17780301  1  -0.018216  0  -0.0738  -0.132378  0  3.926114  0
C  C47  1  0.12010030  0.84060630  0.18840336  1  -0.067552  0  -0.086261  -0.101066  0  3.998069  0
C  C48  1  0.13765496  0.78847008  0.24274678  1  -0.043815  0  -0.088369  -0.132767  0  3.998771  0
C  C49  1  0.72600035  0.88767143  0.87185268  1  -0.004519  0  -0.077061  -0.085314  0  3.960442  0
C  C50  1  0.71725595  0.85145670  0.83496002  1  -0.049349  0  -0.079417  -0.105287  0  3.958326  0
C  C51  1  0.89396484  0.82555723  0.82063715  1  0.015969  0  -0.002843  0.019974  0  3.985851  0
C  C52  1  0.07937268  0.83756257  0.84299437  1  -0.036651  0  -0.079197  -0.105061  0  3.953889  0
C  C53  1  0.08737467  0.87454376  0.87925220  1  -0.065765  0  -0.076863  -0.084221  0  3.961408  0
C  C54  1  0.91077159  0.89933288  0.89435099  1  -0.0183  0  -0.008287  -0.030615  0  3.953783  0
C  C55  1  0.87077112  0.71511663  0.71722661  1  0.945519  0  0.242945  0.243538  0  3.974297  0
C  C56  1  0.88525769  0.78569435  0.78300854  1  0.932397  0  0.244625  0.247974  0  3.97317  0
C  C57  1  0.68344719  0.66574517  0.65321415  1  0.048532  0  -0.084926  -0.124078  0  3.959726  0
C  C58  1  0.68209178  0.62868517  0.61706235  1  -0.068689  0  -0.074601  -0.057317  0  3.968243  0
C  C59  1  0.85771315  0.60045940  0.60509128  1  0.034418  0  -0.01692  -0.149922  0  3.943881  0
C  C60  1  0.03494201  0.61006912  0.63280069  1  0.430243  0  0.111542  0.288836  0  4.025406  0
C  C61  1  0.04076624  0.64642710  0.66940249  1  0.033489  0  -0.091932  -0.241226  0  3.95954  0
C  C62  1  0.86404053  0.67526569  0.67946615  1  -0.039061  0  0.002985  0.053881  0  3.998469  0
C  C63  1  0.53928480  0.38557880  0.37326139  1  0.032949  0  -0.076647  -0.083028  0  3.960238  0
C  C64  1  0.54724293  0.34881218  0.33688299  1  -0.030069  0  -0.080205  -0.108745  0  3.960022  0
C  C65  1  0.36937643  0.32476750  0.32074771  1  -0.038503  0  -0.001112  0.025356  0  3.982371  0
C  C66  1  0.18376944  0.33878836  0.34112875  1  -0.040439  0  -0.079751  -0.108439  0  3.956349  0
C  C67  1  0.17656703  0.37599359  0.37717585  1  0.027399  0  -0.076963  -0.081637  0  3.961224  0
C  C68  1  0.35413832  0.39930554  0.39373389  1  -0.121051  0  -0.008929  -0.03711  0  3.962427  0
C  C69  1  0.39211636  0.21483036  0.21669729  1  0.9728  0  0.242309  0.245276  0  3.977271  0
C  C70  1  0.37751384  0.28496108  0.28298706  1  0.97504  0  0.242725  0.243557  0  3.977428  0
C  C71  1  0.58557192  0.16110909  0.15830441  1  -0.029149  0  -0.079656  -0.107219  0  3.954765  0
C  C72  1  0.59207907  0.12425277  0.12191783  1  -0.091634  0  -0.078319  -0.084071  0  3.963728  0
C  C73  1  0.41422564  0.10142553  0.10499475  1  0.009822  0  -0.009808  -0.035468  0  3.960222  0
C  C74  1  0.22944242  0.11514121  0.12569373  1  -0.03009  0  -0.078712  -0.085199  0  3.9623  0
C  C75  1  0.22210062  0.15150994  0.16244006  1  -0.077205  0  -0.080052  -0.106812  0  3.960142  0
C  C76  1  0.40019836  0.17524019  0.17876614  1  -0.019254  0  -0.001104  0.024443  0  3.983456  0
C  C77  1  0.43604454  0.14825003  0.84405007  1  -0.054345  0  -0.014978  -0.042346  0  3.997225  0
C  C78  1  0.32900395  0.35177655  0.65515991  1  0.045898  0  -0.014771  -0.037287  0  3.986461  0
C  C79  1  0.12947436  0.28932728  0.74300308  1  0.01553  0  -0.088016  -0.133815  0  3.999269  0
C  C80  1  0.14691011  0.34103183  0.68835986  1  -0.118348  0  -0.086246  -0.100247  0  3.995058  0
C  C81  1  0.49020047  0.31014944  0.67767251  1  -0.066609  0  -0.074646  -0.132419  0  3.923941  0
C  C82  1  0.47481899  0.25550367  0.73296451  1  -0.010087  0  -0.002526  0.078197  0  3.99633  0
C  C83  1  0.29048247  0.24466008  0.76642912  1  -0.024086  0  -0.003263  0.080117  0  3.995628  0
C  C84  1  0.27479467  0.18986045  0.82157580  1  -0.056375  0  -0.074395  -0.133911  0  3.927759  0
C  C85  1  0.61875845  0.15929353  0.81113596  1  0.028524  0  -0.085567  -0.100934  0  3.996041  0
C  C86  1  0.63614816  0.21103754  0.75652403  1  -0.078745  0  -0.088263  -0.131958  0  3.998115  0
C  C87  1  0.42276974  0.09255960  0.90364713  1  1.574179  0  0.270207  0.648418  0  4.088226  0
C  C88  1  0.41960851  0.06367621  0.06426019  1  1.579977  0  0.265333  0.634587  0  4.11025  0
C  C89  1  0.92358417  0.90773342  0.09592488  1  1.565845  0  0.269705  0.647398  0  4.088118  0
C  C90  1  0.91745524  0.93703169  0.93517701  1  1.582712  0  0.266169  0.633517  0  4.110806  0
N  N91  1  0.05706208  0.75685098  0.77534800  1  -0.540146  0  -0.148718  -0.138383  0  3.207958  0
N  N92  1  0.04964211  0.72113413  0.74175171  1  -0.557432  0  -0.150495  -0.139194  0  3.214631  0
N  N93  1  0.69881786  0.74355006  0.72506353  1  -0.505048  0  -0.150677  -0.14076  0  3.209091  0
N  N94  1  0.70625766  0.77963717  0.75842462  1  -0.579485  0  -0.149219  -0.140406  0  3.202064  0
N  N95  1  0.20301180  0.26070311  0.27066279  1  -0.552531  0  -0.149877  -0.1386  0  3.211861  0
N  N96  1  0.21039975  0.22504674  0.23696316  1  -0.534064  0  -0.150949  -0.14301  0  3.212345  0
N  N97  1  0.56666940  0.23898822  0.22911192  1  -0.524825  0  -0.150978  -0.141233  0  3.210733  0
N  N98  1  0.55925922  0.27462456  0.26282544  1  -0.580963  0  -0.150712  -0.141222  0  3.211277  0
O  O99  1  0.51479992  0.42622287  0.57285373  1  -1.264163  0  -0.241063  -0.603657  0  2.324668  0
O  O100  1  0.17662284  0.45234569  0.44859478  1  -1.261857  0  -0.232661  -0.585444  0  2.341062  0
O  O101  1  0.01696299  0.57069168  0.42333541  1  -1.259624  0  -0.234091  -0.584609  0  2.330303  0
O  O102  1  0.17418877  0.43005354  0.57035233  1  -1.260588  0  -0.237993  -0.603882  0  2.36113  0
O  O103  1  0.01540993  0.55250554  0.54302380  1  -1.248137  0  -0.237393  -0.603717  0  2.380581  0
O  O104  1  0.51577424  0.45244229  0.45088851  1  -1.256639  0  -0.231216  -0.584891  0  2.365218  0
O  O105  1  0.34744365  0.53952288  0.49254918  1  -1.42086  0  -0.447798  -0.987593  0  2.183411  0
O  O106  1  0.67632817  0.54782674  0.55057119  1  -1.254601  0  -0.236676  -0.59291  0  2.319748  0
O  O107  1  0.67795862  0.56934910  0.42853691  1  -1.256981  0  -0.230751  -0.584143  0  2.36302  0
O  O108  1  0.84677069  0.46047756  0.50791135  1  -1.384981  0  -0.448232  -0.99035  0  2.201532  0
O  O109  1  0.25089161  0.05070668  0.04613759  1  -1.25748  0  -0.236842  -0.595656  0  2.364782  0
O  O110  1  0.58918903  0.06939627  0.92884583  1  -1.265503  0  -0.234186  -0.595761  0  2.361085  0
O  O111  1  0.74921418  0.95009627  0.95308884  1  -1.259147  0  -0.236248  -0.593019  0  2.364109  0
O  O112  1  0.59107326  0.04831499  0.05007437  1  -1.258113  0  -0.237707  -0.593981  0  2.339562  0
O  O113  1  0.75041058  0.92760681  0.07390947  1  -1.261337  0  -0.237341  -0.596664  0  2.325308  0
O  O114  1  0.24968808  0.07267817  0.92548603  1  -1.25968  0  -0.237093  -0.594966  0  2.323752  0
O  O115  1  0.41842042  0.96091926  0.00789078  1  -1.41151  0  -0.448235  -0.994669  0  2.20949  0
O  O116  1  0.08993292  0.93098680  0.07078877  1  -1.267946  0  -0.234531  -0.59617  0  2.359986  0
O  O117  1  0.08940745  0.95216671  0.94951863  1  -1.253344  0  -0.237229  -0.591627  0  2.338714  0
O  O118  1  0.91878439  0.03941795  0.99171617  1  -1.451473  0  -0.448924  -0.996231  0  2.212185  0
F  F119  1  0.21083249  0.58277551  0.62542185  1  -0.631252  0  -0.087003  -0.131004  0  1.373598  0
