# generated using pymatgen
data_Zn4H25C33NO16
_symmetry_space_group_name_H-M   'P 1'
_cell_length_a   10.86172585
_cell_length_b   18.87304058
_cell_length_c   23.16670658
_cell_angle_alpha   90.00001273
_cell_angle_beta   90.00123890
_cell_angle_gamma   89.99952428
_symmetry_Int_Tables_number   1
_chemical_formula_structural   Zn4H25C33NO16
_chemical_formula_sum   'Zn16 H100 C132 N4 O64'
_cell_volume   4749.03104643
_cell_formula_units_Z   4
loop_
 _symmetry_equiv_pos_site_id
 _symmetry_equiv_pos_as_xyz
  1  'x, y, z'
loop_
 _atom_site_type_symbol
 _atom_site_label
 _atom_site_symmetry_multiplicity
 _atom_site_fract_x
 _atom_site_fract_y
 _atom_site_fract_z
 _atom_site_occupancy
 _atom_site_pbe_bader_charge
 _atom_site_pbe_bader_spin_density
 _atom_site_pbe_cm5_charge
 _atom_site_pbe_ddec_charge
 _atom_site_pbe_ddec_spin_density
 _atom_site_pbe_ddec_sum_bond_order
 _atom_site_pbe_magmom
Zn  Zn0  1  0.77770078  0.70824608  0.82614035  1  1.391777  0  0.664099  1.009166  0  2.274914  0
Zn  Zn1  1  0.22230163  0.79175147  0.32614284  1  1.392054  0  0.664142  1.009297  0  2.274665  0
Zn  Zn2  1  0.72228552  0.20824968  0.17384948  1  1.391889  0  0.664154  1.009274  0  2.274746  0
Zn  Zn3  1  0.27769063  0.29175594  0.67386494  1  1.392086  0  0.664141  1.009319  0  2.274726  0
Zn  Zn4  1  0.76259794  0.80237518  0.71370388  1  1.290333  0  0.654804  0.928875  0  2.372277  0
Zn  Zn5  1  0.23740244  0.69762472  0.21371049  1  1.290255  0  0.654777  0.928829  0  2.372519  0
Zn  Zn6  1  0.73740183  0.30237376  0.28628623  1  1.290371  0  0.654766  0.928899  0  2.372461  0
Zn  Zn7  1  0.26259202  0.19762951  0.78629485  1  1.290282  0  0.654778  0.928793  0  2.372432  0
Zn  Zn8  1  0.96710458  0.84023550  0.79536928  1  1.296811  0  0.660074  0.969693  0  2.311927  0
Zn  Zn9  1  0.03288380  0.65976895  0.29536826  1  1.296624  0  0.660108  0.969828  0  2.311697  0
Zn  Zn10  1  0.53288050  0.34023945  0.20462604  1  1.296815  0  0.660105  0.969868  0  2.311734  0
Zn  Zn11  1  0.46710969  0.15976881  0.70463273  1  1.296857  0  0.660125  0.969784  0  2.311745  0
Zn  Zn12  1  0.98565462  0.68426165  0.72922827  1  1.280737  0  0.649528  0.953485  0  2.317004  0
Zn  Zn13  1  0.01435324  0.81574328  0.22922159  1  1.280734  0  0.649491  0.953449  0  2.316805  0
Zn  Zn14  1  0.51435065  0.18426198  0.27076787  1  1.281061  0  0.649489  0.953521  0  2.316922  0
Zn  Zn15  1  0.48565872  0.31573732  0.77077902  1  1.280461  0  0.649596  0.953616  0  2.31675  0
H  H16  1  0.54574480  0.97174500  0.77394314  1  0.130296  0  0.108613  0.123724  0  1.008898  0
H  H17  1  0.45424121  0.52825274  0.27395232  1  0.130518  0  0.108515  0.123523  0  1.00883  0
H  H18  1  0.95420132  0.47175382  0.22603393  1  0.123464  0  0.108504  0.123478  0  1.008788  0
H  H19  1  0.04575993  0.02826010  0.72604923  1  0.130573  0  0.108507  0.123503  0  1.008888  0
H  H20  1  0.28496204  0.01888612  0.90818286  1  0.094239  0  0.107468  0.113927  0  1.000516  0
H  H21  1  0.71506395  0.48111495  0.40818126  1  0.093933  0  0.107399  0.113791  0  1.000526  0
H  H22  1  0.21506234  0.51888092  0.09182354  1  0.094083  0  0.107489  0.113935  0  1.00051  0
H  H23  1  0.78493536  0.98112435  0.59182075  1  0.094105  0  0.10744  0.113926  0  1.000481  0
H  H24  1  0.47180785  0.81626512  0.90406024  1  0.115446  0  0.111089  0.119672  0  0.996262  0
H  H25  1  0.52825321  0.68374539  0.40405261  1  0.115847  0  0.111172  0.119674  0  0.996049  0
H  H26  1  0.02823264  0.31625718  0.09594166  1  0.115441  0  0.111115  0.119656  0  0.996139  0
H  H27  1  0.97173827  0.18375561  0.59595259  1  0.115768  0  0.111096  0.119596  0  0.996131  0
H  H28  1  0.33109024  0.98224429  0.01425272  1  0.043202  0  0.104491  0.106431  0  0.995491  0
H  H29  1  0.66890776  0.51776763  0.51425816  1  0.043401  0  0.10447  0.106388  0  0.995339  0
H  H30  1  0.16891418  0.48223512  0.98575085  1  0.043301  0  0.104466  0.106367  0  0.99533  0
H  H31  1  0.83110138  0.01777255  0.48574926  1  0.043585  0  0.104485  0.10636  0  0.995344  0
H  H32  1  0.21629880  0.93643215  0.09922330  1  0.118265  0  0.107271  0.107506  0  1.006755  0
H  H33  1  0.78368282  0.56358385  0.59923449  1  0.117946  0  0.107355  0.107719  0  1.006698  0
H  H34  1  0.28370576  0.43642769  0.90077688  1  0.118343  0  0.107321  0.107639  0  1.006567  0
H  H35  1  0.71631880  0.06357909  0.40077028  1  0.118035  0  0.107313  0.107646  0  1.006649  0
H  H36  1  0.12747311  0.74612242  0.00562467  1  0.076065  0  0.113811  0.119747  0  0.979452  0
H  H37  1  0.87259427  0.75386976  0.50562480  1  0.075354  0  0.11383  0.119706  0  0.979677  0
H  H38  1  0.37260399  0.24613208  0.99438101  1  0.075079  0  0.113852  0.119734  0  0.979736  0
H  H39  1  0.62736979  0.25386461  0.49437662  1  0.075343  0  0.113862  0.119716  0  0.979759  0
H  H40  1  0.24960743  0.78967251  0.92197945  1  0.081545  0  0.108722  0.113912  0  0.990297  0
H  H41  1  0.75048338  0.71031657  0.42197276  1  0.081356  0  0.108601  0.113702  0  0.990446  0
H  H42  1  0.25047695  0.28967817  0.07802921  1  0.081208  0  0.108614  0.113754  0  0.990354  0
H  H43  1  0.74949091  0.21031949  0.57802914  1  0.081559  0  0.108608  0.113756  0  0.9904  0
H  H44  1  0.10754183  0.46931276  0.76352063  1  0.120234  0  0.105601  0.112404  0  1.020819  0
H  H45  1  0.89245969  0.03068694  0.26351665  1  0.120124  0  0.105633  0.112414  0  1.020974  0
H  H46  1  0.39248222  0.96930754  0.23648567  1  0.120419  0  0.105559  0.112399  0  1.020883  0
H  H47  1  0.60757309  0.53068162  0.73648071  1  0.119803  0  0.105657  0.112505  0  1.021004  0
H  H48  1  0.02002317  0.31214263  0.89051943  1  0.100126  0  0.107182  0.113999  0  1.010918  0
H  H49  1  0.97997493  0.18786663  0.39050949  1  0.100202  0  0.1072  0.11398  0  1.011036  0
H  H50  1  0.47997507  0.81212769  0.10949115  1  0.10009  0  0.107152  0.11387  0  1.011035  0
H  H51  1  0.52002933  0.68785404  0.60948531  1  0.100237  0  0.107178  0.113958  0  1.010904  0
H  H52  1  0.87126989  0.52388526  0.90499269  1  0.103495  0  0.1047  0.105393  0  1.037586  0
H  H53  1  0.12872586  0.97612421  0.40499699  1  0.103577  0  0.104702  0.105475  0  1.037643  0
H  H54  1  0.62872621  0.02386812  0.09500258  1  0.10365  0  0.104633  0.105417  0  1.037757  0
H  H55  1  0.37128607  0.47611181  0.59500880  1  0.103692  0  0.104681  0.10547  0  1.037526  0
H  H56  1  0.86798015  0.49442020  0.99810491  1  0.039661  0  0.104217  0.106529  0  0.996059  0
H  H57  1  0.13202702  0.00558768  0.49810178  1  0.039934  0  0.104149  0.106463  0  0.996101  0
H  H58  1  0.63201608  0.99439828  0.00189868  1  0.04025  0  0.104163  0.106529  0  0.996149  0
H  H59  1  0.36796544  0.50557317  0.50189958  1  0.039562  0  0.104215  0.106524  0  0.996125  0
H  H60  1  0.73318012  0.45711975  0.07949078  1  0.098431  0  0.106977  0.111079  0  0.994664  0
H  H61  1  0.26681178  0.04289171  0.57949418  1  0.098885  0  0.106977  0.111243  0  0.99468  0
H  H62  1  0.76680225  0.95709337  0.92050760  1  0.098942  0  0.106974  0.111175  0  0.994632  0
H  H63  1  0.23317522  0.54288138  0.42050894  1  0.098434  0  0.106989  0.111125  0  0.994618  0
H  H64  1  0.71355534  0.24694903  0.00996061  1  0.102016  0  0.110091  0.118334  0  0.985974  0
H  H65  1  0.28639413  0.25306922  0.50997696  1  0.101746  0  0.110116  0.118422  0  0.985973  0
H  H66  1  0.78642177  0.74692324  0.99003873  1  0.101374  0  0.110071  0.118311  0  0.985821  0
H  H67  1  0.21359628  0.75305533  0.49003296  1  0.102083  0  0.110121  0.118348  0  0.986071  0
H  H68  1  0.84152397  0.28418906  0.92615659  1  0.041456  0  0.100114  0.099271  0  1.011766  0
H  H69  1  0.15844798  0.21582662  0.42616386  1  0.041754  0  0.100148  0.099305  0  1.011883  0
H  H70  1  0.65846885  0.78416671  0.07384753  1  0.041584  0  0.100148  0.099267  0  1.011833  0
H  H71  1  0.34155341  0.71581072  0.57384041  1  0.041818  0  0.100183  0.099363  0  1.011856  0
H  H72  1  0.68363565  0.56284251  0.83159137  1  0.121315  0  0.124088  0.052244  0  1.016802  0
H  H73  1  0.31637818  0.93716414  0.33159367  1  0.121174  0  0.124107  0.052114  0  1.016819  0
H  H74  1  0.81636231  0.06283525  0.16840693  1  0.121253  0  0.124114  0.052175  0  1.01676  0
H  H75  1  0.18361163  0.43717134  0.66840822  1  0.120838  0  0.124094  0.052115  0  1.016817  0
H  H76  1  0.62859465  0.45704417  0.84914284  1  0.098328  0  0.109507  0.125861  0  0.996856  0
H  H77  1  0.37143381  0.04296386  0.34915616  1  0.098887  0  0.109543  0.125883  0  0.996861  0
H  H78  1  0.87142270  0.95703543  0.15085079  1  0.098511  0  0.109539  0.125963  0  0.996872  0
H  H79  1  0.12854490  0.54297190  0.65084135  1  0.09931  0  0.109565  0.125863  0  0.996811  0
H  H80  1  0.48592984  0.45469206  0.88650211  1  0.072913  0  0.100312  0.11681  0  1.033875  0
H  H81  1  0.51408364  0.04530177  0.38653518  1  0.072785  0  0.100279  0.116917  0  1.03385  0
H  H82  1  0.01408258  0.95469554  0.11348492  1  0.072792  0  0.10029  0.116795  0  1.033952  0
H  H83  1  0.98590000  0.54530268  0.61345857  1  0.07267  0  0.100274  0.11684  0  1.033873  0
H  H84  1  0.62396836  0.42918654  0.92297824  1  0.079196  0  0.100066  0.114839  0  1.019249  0
H  H85  1  0.37603192  0.07081213  0.42299560  1  0.07854  0  0.100071  0.114955  0  1.019099  0
H  H86  1  0.87604504  0.92918291  0.07701310  1  0.079116  0  0.100044  0.114928  0  1.019199  0
H  H87  1  0.12394982  0.57081523  0.57700030  1  0.078612  0  0.10008  0.114935  0  1.019052  0
H  H88  1  0.59982999  0.52599884  0.99917234  1  0.075062  0  0.105475  0.118341  0  1.006353  0
H  H89  1  0.40013896  0.97400002  0.49918507  1  0.07472  0  0.105557  0.118602  0  1.006115  0
H  H90  1  0.90015318  0.02600133  0.00082031  1  0.074817  0  0.105559  0.118562  0  1.006021  0
H  H91  1  0.09985828  0.47399715  0.50081384  1  0.074767  0  0.105549  0.118624  0  1.006159  0
H  H92  1  0.45694802  0.55162945  0.96762093  1  0.065391  0  0.106278  0.118216  0  0.979645  0
H  H93  1  0.54302065  0.94835563  0.46764508  1  0.065717  0  0.106334  0.118365  0  0.97966  0
H  H94  1  0.04303325  0.05163632  0.03237086  1  0.065341  0  0.106274  0.118204  0  0.979608  0
H  H95  1  0.95697665  0.44835422  0.53235512  1  0.065686  0  0.106321  0.118366  0  0.979637  0
H  H96  1  0.57954677  0.61505477  0.97306322  1  0.131186  0  0.11652  0.136559  0  0.989694  0
H  H97  1  0.42040109  0.88494259  0.47307615  1  0.131923  0  0.116473  0.136641  0  0.989599  0
H  H98  1  0.92042328  0.11505608  0.02693495  1  0.131425  0  0.116456  0.136588  0  0.989595  0
H  H99  1  0.07959822  0.38494125  0.52692674  1  0.131914  0  0.116489  0.136703  0  0.989626  0
H  H100  1  0.04066007  0.74596035  0.63641975  1  0.646047  0  0.288921  0.365928  0  0.974959  0
H  H101  1  0.95936732  0.75404091  0.13640985  1  0.646248  0  0.288845  0.365583  0  0.975301  0
H  H102  1  0.45932497  0.24595133  0.36357989  1  0.645744  0  0.288902  0.365863  0  0.975014  0
H  H103  1  0.54066579  0.25403840  0.86359201  1  0.645853  0  0.288949  0.365828  0  0.975179  0
H  H104  1  0.19175670  0.71504982  0.68077795  1  0.596321  0  0.301015  0.378428  0  0.92147  0
H  H105  1  0.80826171  0.78495165  0.18076085  1  0.596387  0  0.30087  0.378249  0  0.921762  0
H  H106  1  0.30823919  0.21504670  0.31920863  1  0.596565  0  0.301037  0.378439  0  0.92144  0
H  H107  1  0.69175779  0.28494176  0.81922902  1  0.596714  0  0.300992  0.378305  0  0.921639  0
H  H108  1  0.14732466  0.79491242  0.73939773  1  0.649311  0  0.277173  0.389745  0  0.955105  0
H  H109  1  0.85268020  0.70508950  0.23938648  1  0.649286  0  0.27723  0.389961  0  0.954849  0
H  H110  1  0.35266938  0.29491724  0.26059922  1  0.649404  0  0.277197  0.389834  0  0.954949  0
H  H111  1  0.64732642  0.20508189  0.76060814  1  0.649435  0  0.277212  0.389907  0  0.95489  0
H  H112  1  0.19377689  0.86834700  0.76867698  1  0.611769  0  0.333956  0.415235  0  0.855804  0
H  H113  1  0.80621337  0.63165806  0.26866626  1  0.611684  0  0.334017  0.41534  0  0.855744  0
H  H114  1  0.30620347  0.36835141  0.23132091  1  0.611519  0  0.334084  0.415428  0  0.855818  0
H  H115  1  0.69378852  0.13165199  0.73132267  1  0.611622  0  0.333974  0.415241  0  0.855806  0
C  C116  1  0.51845018  0.88959927  0.83684109  1  0.029645  0  -0.018593  -0.031523  0  4.00343  0
C  C117  1  0.48157137  0.61040428  0.33684134  1  0.030242  0  -0.018739  -0.031844  0  4.003589  0
C  C118  1  0.98154204  0.38960010  0.16314808  1  0.029211  0  -0.018507  -0.031384  0  4.003162  0
C  C119  1  0.01841774  0.11041488  0.66316493  1  0.030035  0  -0.018602  -0.031457  0  4.003465  0
C  C120  1  0.49742064  0.95632814  0.81303410  1  -0.106643  0  -0.077568  -0.104163  0  3.932789  0
C  C121  1  0.50258458  0.54367290  0.31303820  1  -0.110018  0  -0.077402  -0.103801  0  3.932418  0
C  C122  1  0.00255031  0.45633291  0.18695032  1  -0.099525  0  -0.077512  -0.103881  0  3.932532  0
C  C123  1  0.99741015  0.04368194  0.68696549  1  -0.10594  0  -0.077492  -0.103914  0  3.932569  0
C  C124  1  0.41457834  0.00322393  0.83895421  1  0.009544  0  -0.02128  -0.041119  0  3.998743  0
C  C125  1  0.58543563  0.49677704  0.33895432  1  0.012263  0  -0.021355  -0.041171  0  3.998645  0
C  C126  1  0.08541050  0.50322543  0.16103984  1  0.009193  0  -0.021253  -0.041233  0  3.998851  0
C  C127  1  0.91456331  0.99678578  0.66104838  1  0.008585  0  -0.021515  -0.04141  0  3.998833  0
C  C128  1  0.35102994  0.98246831  0.88881170  1  -0.110396  0  -0.074981  -0.130041  0  3.913116  0
C  C129  1  0.64899786  0.51753399  0.38880912  1  -0.109946  0  -0.074885  -0.129891  0  3.912899  0
C  C130  1  0.14898736  0.48246518  0.11119143  1  -0.110014  0  -0.074945  -0.130007  0  3.912995  0
C  C131  1  0.85099839  0.01754363  0.61119485  1  -0.110126  0  -0.074836  -0.129995  0  3.912691  0
C  C132  1  0.36833355  0.91430671  0.91185121  1  0.024636  0  -0.007575  0.054363  0  4.019337  0
C  C133  1  0.63170317  0.58569757  0.41184694  1  0.02683  0  -0.007691  0.054287  0  4.019082  0
C  C134  1  0.13169362  0.41430217  0.08815266  1  0.026665  0  -0.007721  0.054332  0  4.019379  0
C  C135  1  0.86829057  0.08570679  0.58815716  1  0.026985  0  -0.007753  0.05434  0  4.018966  0
C  C136  1  0.45352685  0.86847755  0.88586397  1  -0.03013  0  -0.070163  -0.121439  0  3.916945  0
C  C137  1  0.54651457  0.63152894  0.38585959  1  -0.030906  0  -0.070197  -0.121262  0  3.916394  0
C  C138  1  0.04649586  0.36847360  0.11413478  1  -0.03053  0  -0.070167  -0.121419  0  3.916852  0
C  C139  1  0.95347627  0.13153897  0.61414574  1  -0.031997  0  -0.070094  -0.121292  0  3.916702  0
C  C140  1  0.61073349  0.84145515  0.80922309  1  1.57944  0  0.215754  0.593741  0  4.188437  0
C  C141  1  0.38927884  0.65854741  0.30922706  1  1.578851  0  0.215872  0.593785  0  4.188685  0
C  C142  1  0.88925156  0.34145608  0.19076099  1  1.579181  0  0.215767  0.593689  0  4.188827  0
C  C143  1  0.11070639  0.15855671  0.69078171  1  1.579502  0  0.215807  0.593451  0  4.188938  0
C  C144  1  0.39347125  0.07323521  0.81009080  1  1.565479  0  0.221147  0.6038  0  4.158852  0
C  C145  1  0.60653432  0.42676633  0.31009006  1  1.56548  0  0.221132  0.603755  0  4.158892  0
C  C146  1  0.10651596  0.57323504  0.18990681  1  1.565624  0  0.221129  0.603711  0  4.158835  0
C  C147  1  0.89346992  0.92677135  0.68990908  1  1.565346  0  0.221123  0.603771  0  4.158738  0
C  C148  1  0.29737812  0.88919095  0.96222085  1  0.056451  0  0.005853  0.092199  0  3.982774  0
C  C149  1  0.70265923  0.61081047  0.46222058  1  0.055068  0  0.006098  0.092268  0  3.98262  0
C  C150  1  0.20265792  0.38918755  0.03778372  1  0.054898  0  0.006115  0.092305  0  3.982867  0
C  C151  1  0.79733485  0.11081685  0.53778282  1  0.055289  0  0.006094  0.092211  0  3.982943  0
C  C152  1  0.28563206  0.93078838  0.01217273  1  -0.05832  0  -0.087939  -0.136373  0  3.981143  0
C  C153  1  0.71437777  0.56921927  0.51217744  1  -0.058692  0  -0.087788  -0.136024  0  3.980737  0
C  C154  1  0.21438552  0.43078286  0.98782966  1  -0.057856  0  -0.087897  -0.136143  0  3.981058  0
C  C155  1  0.78562281  0.06922272  0.48782727  1  -0.058958  0  -0.087869  -0.136007  0  3.980942  0
C  C156  1  0.22116906  0.90544952  0.05963650  1  -0.06104  0  -0.078363  -0.08157  0  3.991987  0
C  C157  1  0.77883384  0.59456105  0.55964387  1  -0.060312  0  -0.078636  -0.082293  0  3.992017  0
C  C158  1  0.27884819  0.40544573  0.94036445  1  -0.061244  0  -0.078519  -0.082043  0  3.991798  0
C  C159  1  0.72116339  0.09455906  0.44035970  1  -0.060224  0  -0.078619  -0.082381  0  3.992045  0
C  C160  1  0.16286594  0.83906651  0.05737957  1  -0.087564  0  -0.021258  -0.06204  0  4.008595  0
C  C161  1  0.83715521  0.66093766  0.55738612  1  -0.088067  0  -0.021168  -0.061492  0  4.00825  0
C  C162  1  0.33716850  0.33906742  0.94262165  1  -0.088313  0  -0.021183  -0.061681  0  4.008239  0
C  C163  1  0.66283034  0.16093264  0.44261587  1  -0.088532  0  -0.02107  -0.061244  0  4.007927  0
C  C164  1  0.17322682  0.79740506  0.00746596  1  0.070117  0  -0.073183  -0.06784  0  3.95249  0
C  C165  1  0.82682412  0.70259244  0.50746768  1  0.070249  0  -0.073065  -0.067702  0  3.952914  0
C  C166  1  0.32683160  0.29740948  0.99253874  1  0.070757  0  -0.073171  -0.067777  0  3.952694  0
C  C167  1  0.67315034  0.20258983  0.49253430  1  0.07  0  -0.073184  -0.067903  0  3.953179  0
C  C168  1  0.24155900  0.82191725  0.96085099  1  -0.057297  0  -0.082585  -0.128103  0  3.953566  0
C  C169  1  0.75849944  0.67807884  0.46084900  1  -0.056513  0  -0.082698  -0.128149  0  3.953707  0
C  C170  1  0.25849702  0.32191907  0.03915474  1  -0.056493  0  -0.082632  -0.128094  0  3.953472  0
C  C171  1  0.74148204  0.17808165  0.53915324  1  -0.056178  0  -0.082612  -0.128056  0  3.953859  0
C  C172  1  0.08998354  0.81545765  0.10748762  1  1.500978  0  0.238772  0.58586  0  4.101706  0
C  C173  1  0.91003731  0.68454471  0.60749474  1  1.501393  0  0.238428  0.585326  0  4.101625  0
C  C174  1  0.41005053  0.31545706  0.89251559  1  1.501001  0  0.23846  0.585281  0  4.101615  0
C  C175  1  0.58995138  0.18453898  0.39250570  1  1.501471  0  0.238464  0.585419  0  4.101664  0
C  C176  1  0.98936955  0.50420356  0.83284561  1  0.001754  0  -0.020761  -0.036407  0  3.993344  0
C  C177  1  0.01062871  0.99579993  0.33284561  1  0.001806  0  -0.020743  -0.036464  0  3.993285  0
C  C178  1  0.51063806  0.00419474  0.16715461  1  0.00174  0  -0.020697  -0.036369  0  3.993314  0
C  C179  1  0.48939381  0.49579170  0.66715652  1  0.001756  0  -0.020837  -0.036528  0  3.993358  0
C  C180  1  0.06024238  0.45441040  0.80305101  1  0.013463  0  -0.075137  -0.096488  0  3.920835  0
C  C181  1  0.93975443  0.04559103  0.30304843  1  0.013282  0  -0.075279  -0.096567  0  3.921106  0
C  C182  1  0.43976913  0.95440389  0.19695242  1  0.013001  0  -0.075214  -0.096639  0  3.92119  0
C  C183  1  0.56026602  0.54558513  0.69695179  1  0.013487  0  -0.075256  -0.096622  0  3.921317  0
C  C184  1  0.06998084  0.38530512  0.82422317  1  -0.064746  0  -0.019066  -0.033813  0  3.992351  0
C  C185  1  0.93001464  0.11469720  0.32421806  1  -0.06504  0  -0.018825  -0.033528  0  3.992463  0
C  C186  1  0.43002215  0.88529827  0.17578230  1  -0.065184  0  -0.018881  -0.033589  0  3.992446  0
C  C187  1  0.56999317  0.61469146  0.67578141  1  -0.065252  0  -0.018894  -0.033609  0  3.992501  0
C  C188  1  0.00790975  0.36596160  0.87458892  1  -0.078521  0  -0.076599  -0.130473  0  3.928135  0
C  C189  1  0.99208359  0.13404474  0.37458437  1  -0.078662  0  -0.07675  -0.130612  0  3.928527  0
C  C190  1  0.49208908  0.86594956  0.12541676  1  -0.078857  0  -0.076653  -0.130344  0  3.928338  0
C  C191  1  0.50792008  0.63403509  0.62541532  1  -0.078441  0  -0.076704  -0.130557  0  3.928285  0
C  C192  1  0.93431085  0.41471731  0.90449057  1  -0.014279  0  -0.010966  0.056388  0  4.025926  0
C  C193  1  0.06568082  0.08529112  0.40448967  1  -0.014229  0  -0.010922  0.056504  0  4.025918  0
C  C194  1  0.56568815  0.91470132  0.09551344  1  -0.014294  0  -0.010914  0.056349  0  4.025745  0
C  C195  1  0.43432728  0.58527806  0.59551083  1  -0.013763  0  -0.010835  0.056557  0  4.025629  0
C  C196  1  0.92748077  0.48423058  0.88332446  1  -0.043929  0  -0.078834  -0.135878  0  3.927034  0
C  C197  1  0.07251316  0.01577697  0.38332607  1  -0.043772  0  -0.078764  -0.13589  0  3.927081  0
C  C198  1  0.57251846  0.98421599  0.11667492  1  -0.04365  0  -0.078785  -0.135956  0  3.927226  0
C  C199  1  0.42750208  0.51576533  0.61667690  1  -0.044197  0  -0.078818  -0.135984  0  3.926695  0
C  C200  1  0.97256213  0.57791965  0.80995974  1  1.570281  0  0.21551  0.593713  0  4.174914  0
C  C201  1  0.02744564  0.92208293  0.30996019  1  1.570988  0  0.215389  0.593543  0  4.174991  0
C  C202  1  0.52744653  0.07791382  0.19003710  1  1.571013  0  0.215343  0.593564  0  4.174734  0
C  C203  1  0.47257766  0.42207671  0.69004445  1  1.570641  0  0.215463  0.593575  0  4.174982  0
C  C204  1  0.14666528  0.33151006  0.79310747  1  1.579383  0  0.216475  0.60203  0  4.166731  0
C  C205  1  0.85333270  0.16849332  0.29309834  1  1.579362  0  0.216412  0.601887  0  4.166983  0
C  C206  1  0.35333803  0.83150494  0.20690117  1  1.57951  0  0.216329  0.601835  0  4.167001  0
C  C207  1  0.64667293  0.66848955  0.70689797  1  1.579185  0  0.216417  0.601941  0  4.166854  0
C  C208  1  0.86259034  0.39244476  0.95547875  1  -0.000403  0  -0.006274  0.069856  0  4.012357  0
C  C209  1  0.13739648  0.10756717  0.45548060  1  -5.6e-05  0  -0.006353  0.069663  0  4.01223  0
C  C210  1  0.63740458  0.89242408  0.04452421  1  -2.1e-05  0  -0.006403  0.069712  0  4.012326  0
C  C211  1  0.36260466  0.60755180  0.54452139  1  -0.000151  0  -0.00622  0.070035  0  4.012025  0
C  C212  1  0.83185950  0.44053492  0.99954121  1  -0.049941  0  -0.091101  -0.140635  0  3.992862  0
C  C213  1  0.16813213  0.05947669  0.49954201  1  -0.050585  0  -0.09101  -0.140426  0  3.992774  0
C  C214  1  0.66813154  0.94051132  0.00046037  1  -0.05005  0  -0.091128  -0.140702  0  3.993317  0
C  C215  1  0.33186185  0.55946223  0.50046006  1  -0.050053  0  -0.091104  -0.140665  0  3.993017  0
C  C216  1  0.75682021  0.41998976  0.04522722  1  -0.013097  0  -0.082168  -0.091315  0  3.993298  0
C  C217  1  0.24316478  0.08002218  0.54523181  1  -0.01324  0  -0.082071  -0.091584  0  3.993457  0
C  C218  1  0.74316118  0.91996400  0.95477156  1  -0.014206  0  -0.081999  -0.091187  0  3.993236  0
C  C219  1  0.25682411  0.58001027  0.45477263  1  -0.013051  0  -0.082178  -0.09145  0  3.993447  0
C  C220  1  0.71269186  0.35033174  0.04865739  1  -0.027014  0  -0.017322  -0.033003  0  3.970463  0
C  C221  1  0.28728047  0.14968238  0.54866580  1  -0.026906  0  -0.017452  -0.032877  0  3.970466  0
C  C222  1  0.78728378  0.85030531  0.95134170  1  -0.02597  0  -0.017606  -0.033438  0  3.97045  0
C  C223  1  0.21270865  0.64967050  0.45134005  1  -0.026984  0  -0.017382  -0.032861  0  3.970484  0
C  C224  1  0.74632009  0.30128997  0.00611437  1  -0.053904  0  -0.076894  -0.071563  0  3.965308  0
C  C225  1  0.25364661  0.19872503  0.50612465  1  -0.05463  0  -0.076801  -0.071673  0  3.965263  0
C  C226  1  0.75366221  0.80126537  0.99388611  1  -0.081994  0  -0.076597  -0.071379  0  3.964774  0
C  C227  1  0.24634598  0.69871114  0.49388240  1  -0.054564  0  -0.076956  -0.071773  0  3.965725  0
C  C228  1  0.81920317  0.32234961  0.95992936  1  -0.05653  0  -0.09329  -0.144715  0  3.993085  0
C  C229  1  0.18077106  0.17766504  0.45993587  1  -0.056209  0  -0.093391  -0.144751  0  3.992937  0
C  C230  1  0.68078693  0.82232665  0.04007435  1  -0.029022  0  -0.09333  -0.144543  0  3.992894  0
C  C231  1  0.31922846  0.67764967  0.54006839  1  -0.056285  0  -0.093385  -0.144898  0  3.993283  0
C  C232  1  0.63592976  0.32682038  0.09838989  1  1.544804  0  0.210262  0.583123  0  4.197052  0
C  C233  1  0.36404039  0.17319139  0.59840062  1  1.544169  0  0.210428  0.583451  0  4.196689  0
C  C234  1  0.86404274  0.82679403  0.90160773  1  1.543565  0  0.210553  0.583632  0  4.196337  0
C  C235  1  0.13595003  0.67318623  0.40160541  1  1.54461  0  0.210636  0.583709  0  4.1967  0
C  C236  1  0.65505293  0.58550007  0.87326175  1  1.35709  0  0.17637  0.303261  0  4.087319  0
C  C237  1  0.34494437  0.91450410  0.37326617  1  1.357882  0  0.176663  0.304107  0  4.087036  0
C  C238  1  0.84493530  0.08549418  0.12673545  1  1.357064  0  0.176643  0.303945  0  4.087146  0
C  C239  1  0.15504965  0.41450853  0.62673596  1  1.358187  0  0.17665  0.304082  0  4.087124  0
C  C240  1  0.58441053  0.46581263  0.89108778  1  0.209567  0  -0.136401  -0.283781  0  3.917059  0
C  C241  1  0.41559773  0.03418816  0.39110618  1  0.209684  0  -0.136378  -0.283978  0  3.917263  0
C  C242  1  0.91559833  0.96580999  0.10890446  1  0.209612  0  -0.136343  -0.283886  0  3.917437  0
C  C243  1  0.08438762  0.53419134  0.60889055  1  0.209447  0  -0.136354  -0.283724  0  3.916944  0
C  C244  1  0.55730024  0.55922271  0.96570678  1  0.205553  0  -0.126762  -0.261537  0  3.891235  0
C  C245  1  0.44266645  0.94077188  0.46572269  1  0.204702  0  -0.126878  -0.262058  0  3.891216  0
C  C246  1  0.94267939  0.05922463  0.03428724  1  0.205546  0  -0.126718  -0.261638  0  3.890897  0
C  C247  1  0.05733156  0.44077124  0.53427787  1  0.204692  0  -0.126869  -0.262119  0  3.891367  0
N  N248  1  0.60352696  0.53865847  0.90924064  1  -1.210134  0  -0.283237  0.027313  0  3.727494  0
N  N249  1  0.39646079  0.96134206  0.40925305  1  -1.210638  0  -0.2834  0.026935  0  3.727841  0
N  N250  1  0.89646235  0.03865506  0.09075404  1  -1.210178  0  -0.283418  0.02684  0  3.728034  0
N  N251  1  0.10353399  0.46134493  0.59074686  1  -1.210439  0  -0.283445  0.02677  0  3.727906  0
O  O252  1  0.88589917  0.75692124  0.76415229  1  -1.211767  0  -0.567405  -1.000456  0  2.433877  0
O  O253  1  0.11409908  0.74308163  0.26415428  1  -1.211794  0  -0.567385  -1.000444  0  2.433785  0
O  O254  1  0.61409521  0.25692291  0.23583874  1  -1.211772  0  -0.567411  -1.00059  0  2.43392  0
O  O255  1  0.38589800  0.24308163  0.73585057  1  -1.211819  0  -0.567408  -1.000421  0  2.433746  0
O  O256  1  0.11816064  0.74232644  0.68971198  1  -1.23812  0  -0.561011  -0.828336  0  2.032448  0
O  O257  1  0.88185561  0.75767624  0.18970204  1  -1.238462  0  -0.560919  -0.828161  0  2.032524  0
O  O258  1  0.38183645  0.24232515  0.31028122  1  -1.238514  0  -0.56104  -0.828401  0  2.032403  0
O  O259  1  0.61815993  0.25766634  0.81029503  1  -1.238435  0  -0.561035  -0.828253  0  2.032563  0
O  O260  1  0.14979020  0.82462284  0.77701104  1  -1.228063  0  -0.562996  -0.744384  0  2.068718  0
O  O261  1  0.85020431  0.67538184  0.27700052  1  -1.227755  0  -0.563077  -0.744716  0  2.068583  0
O  O262  1  0.35019947  0.32462968  0.22298732  1  -1.22792  0  -0.563124  -0.744688  0  2.068757  0
O  O263  1  0.64979380  0.17537571  0.72299269  1  -1.22796  0  -0.563033  -0.744552  0  2.068696  0
O  O264  1  0.63886407  0.78485980  0.83527681  1  -1.172469  0  -0.30629  -0.553811  0  2.339109  0
O  O265  1  0.36114817  0.71514108  0.33528261  1  -1.172759  0  -0.306388  -0.55384  0  2.338978  0
O  O266  1  0.86110756  0.28486776  0.16470054  1  -1.172237  0  -0.306537  -0.554054  0  2.339358  0
O  O267  1  0.13882930  0.21515572  0.66473160  1  -1.172762  0  -0.306377  -0.55364  0  2.338952  0
O  O268  1  0.65376989  0.86278513  0.76076649  1  -1.174318  0  -0.325684  -0.557002  0  2.340976  0
O  O269  1  0.34623549  0.63721556  0.26077175  1  -1.173996  0  -0.325653  -0.556934  0  2.341281  0
O  O270  1  0.84622940  0.36277954  0.23922168  1  -1.173917  0  -0.3255  -0.556838  0  2.341349  0
O  O271  1  0.15376036  0.13721976  0.73923337  1  -1.173988  0  -0.325586  -0.55688  0  2.341303  0
O  O272  1  0.44284931  0.08019600  0.76047487  1  -1.190107  0  -0.321733  -0.573382  0  2.364974  0
O  O273  1  0.55715292  0.41980789  0.26047350  1  -1.189986  0  -0.32167  -0.573351  0  2.364983  0
O  O274  1  0.05713221  0.58019622  0.23952180  1  -1.190316  0  -0.321748  -0.573307  0  2.364906  0
O  O275  1  0.94286161  0.91980782  0.73952312  1  -1.190058  0  -0.321658  -0.573246  0  2.364898  0
O  O276  1  0.32809247  0.11985331  0.83591018  1  -1.158095  0  -0.31769  -0.533649  0  2.267234  0
O  O277  1  0.67191208  0.38014496  0.33590771  1  -1.15824  0  -0.317718  -0.533687  0  2.267254  0
O  O278  1  0.17190471  0.61985205  0.16409211  1  -1.158015  0  -0.317664  -0.533624  0  2.26724  0
O  O279  1  0.82808864  0.88015338  0.66409020  1  -1.157959  0  -0.317658  -0.533652  0  2.267109  0
O  O280  1  0.09661074  0.84916061  0.15436421  1  -1.167772  0  -0.291713  -0.522727  0  2.365997  0
O  O281  1  0.90341050  0.65084147  0.65437080  1  -1.168145  0  -0.291724  -0.522617  0  2.366064  0
O  O282  1  0.40341794  0.34915660  0.84563734  1  -1.167778  0  -0.291707  -0.522639  0  2.366118  0
O  O283  1  0.59659555  0.15084131  0.34562785  1  -1.168342  0  -0.291729  -0.522683  0  2.366022  0
O  O284  1  0.01786279  0.76026518  0.10001924  1  -1.171658  0  -0.318284  -0.471275  0  2.280075  0
O  O285  1  0.98215847  0.73973759  0.60002833  1  -1.171621  0  -0.318151  -0.471377  0  2.279432  0
O  O286  1  0.48217624  0.26026563  0.89998499  1  -1.17129  0  -0.318167  -0.471185  0  2.279538  0
O  O287  1  0.51781697  0.23972630  0.39997325  1  -1.171422  0  -0.318129  -0.47131  0  2.279583  0
O  O288  1  0.90241993  0.61916395  0.83706159  1  -1.182307  0  -0.302485  -0.547639  0  2.337079  0
O  O289  1  0.09758506  0.88083854  0.33706372  1  -1.182024  0  -0.30249  -0.547639  0  2.337066  0
O  O290  1  0.59757304  0.11916020  0.16292964  1  -1.182057  0  -0.302453  -0.54758  0  2.336847  0
O  O291  1  0.40242355  0.38083571  0.66294698  1  -1.182276  0  -0.302275  -0.547416  0  2.337134  0
O  O292  1  0.03091259  0.59354136  0.76291630  1  -1.158684  0  -0.331857  -0.562543  0  2.297072  0
O  O293  1  0.96910307  0.90646202  0.26291301  1  -1.159546  0  -0.331773  -0.562384  0  2.297047  0
O  O294  1  0.46911098  0.09353550  0.23708498  1  -1.159423  0  -0.33175  -0.562431  0  2.296988  0
O  O295  1  0.53093203  0.40645317  0.73708807  1  -1.158933  0  -0.331985  -0.562609  0  2.296775  0
O  O296  1  0.16083036  0.27216689  0.81978145  1  -1.167913  0  -0.326825  -0.553046  0  2.322887  0
O  O297  1  0.83916758  0.22783694  0.31977247  1  -1.167469  0  -0.326765  -0.552985  0  2.322904  0
O  O298  1  0.33916972  0.77216082  0.18022826  1  -1.16756  0  -0.32665  -0.552867  0  2.322951  0
O  O299  1  0.66083392  0.72783269  0.68022363  1  -1.167444  0  -0.32681  -0.552987  0  2.322885  0
O  O300  1  0.19004698  0.34814975  0.74440139  1  -1.183982  0  -0.306395  -0.564866  0  2.327727  0
O  O301  1  0.80995601  0.15185599  0.24439005  1  -1.18425  0  -0.306471  -0.564878  0  2.327587  0
O  O302  1  0.30996331  0.84814553  0.25560836  1  -1.184152  0  -0.306462  -0.564888  0  2.327655  0
O  O303  1  0.69005553  0.65185190  0.75560514  1  -1.184089  0  -0.306384  -0.564856  0  2.327713  0
O  O304  1  0.59054247  0.37627325  0.13077390  1  -1.149132  0  -0.328749  -0.55601  0  2.276525  0
O  O305  1  0.40943171  0.12373695  0.63078239  1  -1.149018  0  -0.328888  -0.55618  0  2.27657  0
O  O306  1  0.90942336  0.87624839  0.86922362  1  -1.148549  0  -0.328781  -0.55609  0  2.276601  0
O  O307  1  0.09055709  0.62373557  0.36921985  1  -1.149167  0  -0.328922  -0.556243  0  2.276573  0
O  O308  1  0.62038634  0.26133924  0.10737637  1  -1.180933  0  -0.321257  -0.564822  0  2.282027  0
O  O309  1  0.37957982  0.23867216  0.60739080  1  -1.180206  0  -0.321272  -0.565027  0  2.282191  0
O  O310  1  0.87958676  0.76131377  0.89262109  1  -1.180235  0  -0.321409  -0.565045  0  2.281981  0
O  O311  1  0.12041460  0.73866794  0.39261971  1  -1.180617  0  -0.321394  -0.56512  0  2.281976  0
O  O312  1  0.67062652  0.64983318  0.88461178  1  -1.130251  0  -0.293607  -0.433091  0  2.348473  0
O  O313  1  0.32936326  0.85017117  0.38461336  1  -1.130145  0  -0.293733  -0.43345  0  2.348494  0
O  O314  1  0.82935101  0.14982608  0.11538515  1  -1.130063  0  -0.2938  -0.433418  0  2.348409  0
O  O315  1  0.17063502  0.35017539  0.61539076  1  -1.130468  0  -0.293723  -0.433432  0  2.348462  0
