# generated using pymatgen
data_MnH4C3N4O3
_symmetry_space_group_name_H-M   'P 1'
_cell_length_a   8.05306856
_cell_length_b   9.49267570
_cell_length_c   9.78469541
_cell_angle_alpha   90.00367032
_cell_angle_beta   89.99517776
_cell_angle_gamma   114.87140124
_symmetry_Int_Tables_number   1
_chemical_formula_structural   MnH4C3N4O3
_chemical_formula_sum   'Mn4 H16 C12 N16 O12'
_cell_volume   678.61939782
_cell_formula_units_Z   4
loop_
 _symmetry_equiv_pos_site_id
 _symmetry_equiv_pos_as_xyz
  1  'x, y, z'
loop_
 _atom_site_type_symbol
 _atom_site_label
 _atom_site_symmetry_multiplicity
 _atom_site_fract_x
 _atom_site_fract_y
 _atom_site_fract_z
 _atom_site_occupancy
 _atom_site_hle17_ddec_charge
 _atom_site_hle17_ddec_spin_density
 _atom_site_hle17_ddec_sum_bond_order
 _atom_site_hle17_magmom
 _atom_site_hse06_10hf_ddec_charge
 _atom_site_hse06_10hf_ddec_spin_density
 _atom_site_hse06_10hf_ddec_sum_bond_order
 _atom_site_hse06_10hf_magmom
 _atom_site_hse06_ddec_charge
 _atom_site_hse06_ddec_spin_density
 _atom_site_hse06_ddec_sum_bond_order
 _atom_site_hse06_magmom
 _atom_site_pbe_cm5_charge
 _atom_site_pbe_ddec_charge
 _atom_site_pbe_ddec_spin_density
 _atom_site_pbe_ddec_sum_bond_order
 _atom_site_pbe_magmom
Mn  Mn0  1  0.77463293  0.82064445  0.58024162  1  1.061873  4.79598  1.864482  4.667  0.873043  4.725716  2.384252  4.526  0.931209  4.766624  2.319315  4.587  0.611989  0.827445  4.685184  2.432388  4.467
Mn  Mn1  1  0.22535002  0.67934356  0.08021302  1  1.061874  4.796033  1.864323  4.667  0.873092  4.725719  2.384066  4.526  0.931241  4.766629  2.319149  4.587  0.612013  0.827461  4.685183  2.432258  4.467
Mn  Mn2  1  0.22536313  0.17935297  0.41975638  1  1.061891  4.795987  1.864366  4.667  0.873107  4.725729  2.384078  4.526  0.931259  4.766637  2.319172  4.587  0.612016  0.827519  4.685199  2.432198  4.467
Mn  Mn3  1  0.77465272  0.32065740  0.91977579  1  1.061846  4.796038  1.864362  4.667  0.873042  4.725751  2.384101  4.526  0.931202  4.766659  2.319169  4.587  0.611982  0.827473  4.685224  2.432179  4.467
H  H4  1  0.33594279  0.98161885  0.86553377  1  0.341669  -0.000372  0.918812  0.0  0.319788  2e-06  0.991249  0.0  0.32776  -0.000168  0.984058  0.0  0.298969  0.31425  0.000205  0.996064  0.0
H  H5  1  0.66403147  0.51838075  0.36553955  1  0.341654  -0.000364  0.91874  0.0  0.319723  2e-06  0.991269  0.0  0.327693  -0.000169  0.984082  0.0  0.298939  0.31419  0.000205  0.996082  0.0
H  H6  1  0.66405397  0.01837742  0.13446015  1  0.341728  -0.000375  0.918705  0.0  0.319756  2e-06  0.991249  0.0  0.327728  -0.000168  0.984059  0.0  0.298987  0.314219  0.000205  0.996064  0.0
H  H7  1  0.33596778  0.48161555  0.63446458  1  0.341685  -0.000363  0.918667  0.0  0.31969  3e-06  0.991281  0.0  0.327661  -0.000169  0.984092  0.0  0.298931  0.314156  0.000205  0.996093  0.0
H  H8  1  0.21961534  0.02490334  0.73833811  1  0.331981  -0.000301  0.889172  0.0  0.319399  -3.1e-05  0.948951  0.0  0.324831  -0.000184  0.945313  0.0  0.310327  0.315677  6.7e-05  0.951349  0.0
H  H9  1  0.78037786  0.47508851  0.23836009  1  0.332233  -0.000304  0.888996  0.0  0.319633  -3e-05  0.948811  0.0  0.325067  -0.000184  0.94516  0.0  0.310345  0.315914  6.7e-05  0.951211  0.0
H  H10  1  0.78037977  0.97509984  0.26165581  1  0.332139  -0.000298  0.889005  0.0  0.319543  -3.1e-05  0.94881  0.0  0.324976  -0.000184  0.945168  0.0  0.31035  0.315823  6.7e-05  0.951208  0.0
H  H11  1  0.21961860  0.52490199  0.76164610  1  0.332122  -0.0003  0.889226  0.0  0.31952  -3e-05  0.949026  0.0  0.324952  -0.000184  0.945381  0.0  0.310336  0.315801  6.8e-05  0.951423  0.0
H  H12  1  0.50143860  0.75477233  0.37338512  1  0.429147  -0.00038  0.872704  0.001  0.394336  0.000348  0.941829  0.002  0.40607  3.8e-05  0.92495  0.001  0.293997  0.385857  0.000686  0.954007  0.002
H  H13  1  0.49856649  0.74522333  0.87337085  1  0.429096  -0.000382  0.872784  0.001  0.394274  0.000348  0.941925  0.002  0.406015  3.9e-05  0.925035  0.001  0.293974  0.385794  0.000686  0.954102  0.002
H  H14  1  0.49856043  0.24523898  0.62661288  1  0.429136  -0.00038  0.872757  0.001  0.394303  0.000347  0.941919  0.002  0.406039  3.8e-05  0.925035  0.001  0.293972  0.385821  0.000686  0.954101  0.002
H  H15  1  0.50142773  0.25476253  0.12661898  1  0.429055  -0.000382  0.872855  0.001  0.39425  0.000348  0.941966  0.002  0.405994  3.9e-05  0.925072  0.001  0.293971  0.385767  0.000686  0.954149  0.002
H  H16  1  0.45418605  0.83017879  0.50478306  1  0.428217  -0.000118  0.812625  0.001  0.411198  0.000774  0.865316  0.002  0.419638  0.000383  0.8562  0.001  0.325684  0.404987  0.001232  0.872058  0.002
H  H17  1  0.54582452  0.66984024  0.00477265  1  0.428035  -0.000118  0.812872  0.001  0.411047  0.000775  0.865493  0.002  0.419481  0.000383  0.856396  0.001  0.325656  0.404837  0.001232  0.872234  0.002
H  H18  1  0.54581419  0.16982214  0.49522108  1  0.42818  -0.000118  0.812703  0.001  0.411153  0.000775  0.865401  0.002  0.419594  0.000384  0.856281  0.001  0.325661  0.404941  0.001233  0.872147  0.002
H  H19  1  0.45417585  0.33015838  0.99522228  1  0.428031  -0.000119  0.812853  0.001  0.411041  0.000775  0.865483  0.002  0.419475  0.000384  0.856385  0.001  0.325654  0.40483  0.001232  0.872226  0.002
C  C20  1  0.07888143  0.81476180  0.82299449  1  0.606188  0.013124  3.799676  0.015  0.561516  0.017552  4.079393  0.018  0.585571  0.015073  4.088704  0.016  0.331869  0.54499  0.019685  4.072558  0.02
C  C21  1  0.92110927  0.68525259  0.32299494  1  0.60657  0.01313  3.799329  0.015  0.561883  0.01755  4.079043  0.018  0.585939  0.015075  4.088349  0.016  0.332009  0.545356  0.019683  4.072218  0.02
C  C22  1  0.92111467  0.18524600  0.17700556  1  0.60624  0.013069  3.799396  0.015  0.561462  0.017551  4.079262  0.018  0.585516  0.015071  4.088575  0.016  0.331888  0.544935  0.019682  4.072436  0.02
C  C23  1  0.07889287  0.31473682  0.67701022  1  0.606408  0.013136  3.799311  0.015  0.561797  0.017551  4.078869  0.018  0.585852  0.015077  4.088174  0.016  0.331934  0.545271  0.019685  4.072048  0.02
C  C24  1  0.83384039  0.61494588  0.78040909  1  0.170517  0.013356  3.890796  0.013  0.148604  0.019786  4.157933  0.018  0.155847  0.01729  4.173377  0.016  0.197051  0.143581  0.023039  4.147312  0.02
C  C25  1  0.16615265  0.88505657  0.28040344  1  0.170589  0.013355  3.890579  0.013  0.148596  0.019787  4.157837  0.018  0.155839  0.017286  4.173267  0.016  0.197141  0.143578  0.023038  4.147211  0.02
C  C26  1  0.16615946  0.38506197  0.21958994  1  0.170661  0.013329  3.890758  0.013  0.148739  0.019787  4.157942  0.018  0.155984  0.017286  4.173387  0.016  0.197137  0.143717  0.023038  4.147314  0.02
C  C27  1  0.83385216  0.11494095  0.71959456  1  0.170772  0.013368  3.890316  0.013  0.148673  0.019784  4.157692  0.018  0.155919  0.017286  4.173124  0.016  0.197125  0.14365  0.023037  4.147072  0.02
C  C28  1  0.66148931  0.51067159  0.71524574  1  0.605711  0.002444  3.937757  0.002  0.552114  0.008151  4.232676  0.006  0.587032  0.005393  4.222564  0.004  0.223229  0.527736  0.011484  4.239305  0.008
C  C29  1  0.33850863  0.98930659  0.21523263  1  0.606138  0.002424  3.937561  0.002  0.55264  0.008149  4.232408  0.006  0.587576  0.005392  4.222273  0.004  0.223432  0.528256  0.011484  4.239043  0.008
C  C30  1  0.33850636  0.48933275  0.28475737  1  0.605856  0.002437  3.937502  0.002  0.552278  0.008143  4.23245  0.006  0.587187  0.005386  4.222334  0.004  0.223276  0.527902  0.011475  4.239076  0.008
C  C31  1  0.66148339  0.01068501  0.78477049  1  0.605948  0.002421  3.937677  0.002  0.552494  0.008147  4.232528  0.006  0.587425  0.005389  4.2224  0.004  0.223348  0.528112  0.01148  4.239166  0.008
N  N32  1  0.91634173  0.57090069  0.87794496  1  -0.293677  0.028383  3.190377  0.014  -0.246002  0.03778  3.488161  0.018  -0.260138  0.03143  3.5031  0.013  -0.24547  -0.235466  0.044067  3.477745  0.023
N  N33  1  0.08365469  0.92910888  0.37794364  1  -0.293648  0.028396  3.190387  0.014  -0.246009  0.037785  3.488234  0.018  -0.260138  0.031439  3.503166  0.013  -0.245557  -0.235475  0.044074  3.477826  0.023
N  N34  1  0.08365979  0.42911065  0.12205611  1  -0.293656  0.028385  3.190531  0.014  -0.246026  0.037778  3.488345  0.018  -0.260166  0.031431  3.503287  0.013  -0.245459  -0.235482  0.044065  3.477927  0.023
N  N35  1  0.91634457  0.07088742  0.62205743  1  -0.293709  0.028383  3.190329  0.014  -0.246056  0.037788  3.488213  0.018  -0.260186  0.03144  3.503144  0.013  -0.245574  -0.235516  0.044073  3.4778  0.023
N  N36  1  0.07633932  0.69859348  0.90648157  1  -0.40053  0.03153  3.050189  0.015  -0.339802  0.035956  3.351082  0.012  -0.362655  0.030152  3.362318  0.008  -0.261873  -0.323069  0.041124  3.342817  0.016
N  N37  1  0.92365136  0.80142053  0.40648700  1  -0.400562  0.031526  3.050428  0.015  -0.339788  0.035963  3.351315  0.012  -0.362641  0.030153  3.362541  0.008  -0.2618  -0.323066  0.041129  3.343065  0.016
N  N38  1  0.92366277  0.30141901  0.09352257  1  -0.400644  0.031573  3.050357  0.015  -0.339821  0.035955  3.351241  0.012  -0.362666  0.030152  3.362466  0.008  -0.261869  -0.3231  0.041123  3.342984  0.016
N  N39  1  0.07635121  0.19857235  0.59351510  1  -0.400508  0.031534  3.050277  0.015  -0.339722  0.035962  3.351067  0.012  -0.362574  0.030155  3.362296  0.008  -0.26179  -0.322998  0.041129  3.342815  0.016
N  N40  1  0.92778237  0.76513227  0.74223864  1  -0.545899  0.032359  3.11738  0.019  -0.483418  0.038926  3.400402  0.019  -0.508245  0.03371  3.409486  0.015  -0.356508  -0.465286  0.043911  3.394073  0.023
N  N41  1  0.07219560  0.73487205  0.24221893  1  -0.546125  0.032345  3.117074  0.019  -0.483627  0.038926  3.400166  0.019  -0.508452  0.03371  3.409248  0.015  -0.356602  -0.465494  0.043911  3.393838  0.023
N  N42  1  0.07221610  0.23487787  0.25776549  1  -0.546021  0.032387  3.117069  0.019  -0.483518  0.038925  3.40017  0.019  -0.508343  0.033712  3.409252  0.015  -0.356648  -0.465389  0.043912  3.393845  0.023
N  N43  1  0.92781197  0.26512090  0.75778725  1  -0.546199  0.032345  3.117172  0.019  -0.483678  0.038925  3.400249  0.019  -0.508503  0.033709  3.409327  0.015  -0.356589  -0.465552  0.04391  3.393931  0.023
N  N44  1  0.21100465  0.96206151  0.82420251  1  -0.695907  0.00377  3.032183  0.004  -0.669453  0.006505  3.265157  0.006  -0.689066  0.004845  3.260465  0.005  -0.583193  -0.655191  0.008334  3.267674  0.008
N  N45  1  0.78898213  0.53793210  0.32422440  1  -0.696399  0.003765  3.031607  0.004  -0.669903  0.006502  3.264552  0.006  -0.689515  0.004843  3.25986  0.005  -0.583327  -0.65564  0.008331  3.267067  0.008
N  N46  1  0.78899839  0.03794522  0.17579039  1  -0.696113  0.003774  3.031954  0.004  -0.669528  0.006504  3.26505  0.006  -0.689141  0.004844  3.26036  0.005  -0.583206  -0.655264  0.008332  3.267563  0.008
N  N47  1  0.21101919  0.46206077  0.67578791  1  -0.696205  0.003755  3.031589  0.004  -0.669695  0.006504  3.264588  0.006  -0.689306  0.004843  3.259899  0.005  -0.583267  -0.655432  0.008333  3.2671  0.008
O  O48  1  0.59766305  0.57007539  0.62443653  1  -0.592859  0.03053  2.048605  0.022  -0.522045  0.039362  2.295668  0.029  -0.548875  0.034476  2.282087  0.025  -0.286861  -0.502487  0.044049  2.304684  0.033
O  O49  1  0.40235496  0.92990198  0.12442351  1  -0.593064  0.030547  2.048707  0.022  -0.52234  0.039368  2.295809  0.029  -0.549167  0.034483  2.28222  0.025  -0.287052  -0.502781  0.044056  2.304835  0.033
O  O50  1  0.40234709  0.42993836  0.37556454  1  -0.592986  0.030532  2.048306  0.022  -0.522266  0.039361  2.295437  0.029  -0.549103  0.034478  2.28188  0.025  -0.286966  -0.502706  0.044049  2.304454  0.033
O  O51  1  0.59763676  0.07008384  0.87557347  1  -0.592838  0.030535  2.048924  0.022  -0.522189  0.039363  2.296035  0.029  -0.549029  0.034478  2.282476  0.025  -0.286914  -0.502625  0.044049  2.305045  0.033
O  O52  1  0.59000438  0.36815974  0.75321431  1  -0.63026  0.023075  2.01988  0.017  -0.560089  0.032639  2.254204  0.026  -0.587717  0.028487  2.241343  0.022  -0.298254  -0.540237  0.036552  2.263133  0.029
O  O53  1  0.41001543  0.13182606  0.25319559  1  -0.630481  0.023085  2.019815  0.017  -0.56031  0.032642  2.254081  0.026  -0.587988  0.028492  2.241236  0.022  -0.298303  -0.540449  0.036557  2.263013  0.029
O  O54  1  0.41000573  0.63184362  0.24679187  1  -0.630306  0.023068  2.019954  0.017  -0.560143  0.032636  2.254268  0.026  -0.587753  0.02848  2.241399  0.022  -0.298233  -0.540285  0.036548  2.263196  0.029
O  O55  1  0.58998188  0.86817138  0.74679220  1  -0.63056  0.023088  2.019864  0.017  -0.560347  0.032643  2.254097  0.026  -0.588022  0.028491  2.241252  0.022  -0.298324  -0.54049  0.036556  2.263031  0.029
O  O56  1  0.55562391  0.83438223  0.44816168  1  -0.816138  0.026587  1.866765  0.016  -0.759119  0.036516  2.077691  0.023  -0.781178  0.032432  2.045967  0.02  -0.560911  -0.742722  0.040364  2.100323  0.026
O  O57  1  0.44438827  0.66561051  0.94814315  1  -0.815926  0.026595  1.867107  0.016  -0.758915  0.036519  2.078062  0.023  -0.78097  0.032434  2.046337  0.02  -0.560893  -0.742514  0.040367  2.100689  0.026
O  O58  1  0.44437705  0.16562795  0.55183735  1  -0.816094  0.02659  1.866872  0.016  -0.759054  0.036516  2.077792  0.023  -0.781108  0.032432  2.046064  0.02  -0.56087  -0.742657  0.040363  2.100428  0.026
O  O59  1  0.55561180  0.33438234  0.05185281  1  -0.815876  0.026592  1.867099  0.016  -0.758868  0.036513  2.078039  0.023  -0.780927  0.032429  2.046308  0.02  -0.560881  -0.742475  0.040361  2.100671  0.026
