# generated using pymatgen
data_Zr3H8C20(N3O8)2
_symmetry_space_group_name_H-M   'P 1'
_cell_length_a   15.47812649
_cell_length_b   18.97137936
_cell_length_c   18.98182897
_cell_angle_alpha   91.22361258
_cell_angle_beta   89.85497453
_cell_angle_gamma   90.10512254
_symmetry_Int_Tables_number   1
_chemical_formula_structural   Zr3H8C20(N3O8)2
_chemical_formula_sum   'Zr6 H16 C40 N12 O32'
_cell_volume   5572.55330583
_cell_formula_units_Z   2
loop_
 _symmetry_equiv_pos_site_id
 _symmetry_equiv_pos_as_xyz
  1  'x, y, z'
loop_
 _atom_site_type_symbol
 _atom_site_label
 _atom_site_symmetry_multiplicity
 _atom_site_fract_x
 _atom_site_fract_y
 _atom_site_fract_z
 _atom_site_occupancy
 _atom_site_pbe_bader_charge
 _atom_site_pbe_bader_spin_density
 _atom_site_pbe_cm5_charge
 _atom_site_pbe_ddec_charge
 _atom_site_pbe_ddec_spin_density
 _atom_site_pbe_ddec_sum_bond_order
 _atom_site_pbe_magmom
Zr  Zr0  1  0.00648439  0.09974692  0.98984289  1  2.597634  0  1.548711  2.358426  0  2.835126  0
Zr  Zr1  1  0.00321601  0.96054615  0.11368182  1  2.601762  0  1.552047  2.367849  0  2.839577  0
Zr  Zr2  1  0.00340845  0.97307006  0.84844442  1  2.597077  0  1.548367  2.355842  0  2.847044  0
Zr  Zr3  1  0.00635405  0.83452212  0.97198733  1  2.59519  0  1.547261  2.356073  0  2.844302  0
Zr  Zr4  1  0.16612308  0.96748491  0.98073589  1  2.634027  0  1.612874  2.355574  0  2.791693  0
Zr  Zr5  1  0.84322279  0.96713429  0.98081490  1  2.639131  0  1.616087  2.358939  0  2.786789  0
H  H6  1  0.88647624  0.07794383  0.09153299  1  0.627118  0  0.330949  0.438142  0  0.842672  0
H  H7  1  0.12663998  0.85679042  0.08508066  1  0.617076  0  0.329062  0.426662  0  0.862496  0
H  H8  1  0.88719658  0.85606602  0.86957532  1  0.627818  0  0.331624  0.438855  0  0.841842  0
H  H9  1  0.12308047  0.07648265  0.87331164  1  0.6299  0  0.332023  0.439694  0  0.840918  0
H  H10  1  0.05781159  0.86946473  0.21411935  1  0.60237  0  0.300968  0.410522  0  0.879324  0
H  H11  1  0.94802393  0.73228476  0.05658396  1  0.644679  0  0.332539  0.427778  0  0.866187  0
H  H12  1  0.03853743  0.73213733  0.87817133  1  0.600867  0  0.297466  0.406786  0  0.88714  0
H  H13  1  0.96174755  0.89928302  0.72252009  1  0.645131  0  0.344169  0.429491  0  0.847371  0
H  H14  1  0.97113478  0.06667976  0.74999878  1  0.606072  0  0.298023  0.407478  0  0.886025  0
H  H15  1  0.05165637  0.22406504  0.92064620  1  0.648846  0  0.3433  0.428713  0  0.849206  0
H  H16  1  0.04022288  0.20067742  0.08457750  1  0.601588  0  0.297067  0.406346  0  0.888069  0
H  H17  1  0.95512704  0.03244794  0.23503897  1  0.63506  0  0.341059  0.428287  0  0.853604  0
H  H18  1  0.06169885  0.89271528  0.73957347  1  0.631667  0  0.331234  0.424573  0  0.870956  0
H  H19  1  0.95160481  0.20788303  0.91167694  1  0.639469  0  0.331376  0.424812  0  0.870186  0
H  H20  1  0.05590461  0.04313211  0.22497503  1  0.643556  0  0.333946  0.426068  0  0.863717  0
H  H21  1  0.04482874  0.70922301  0.04272951  1  0.630144  0  0.344447  0.428181  0  0.848252  0
C  C22  1  0.50618736  0.36007899  0.97993773  1  1.25552  0  0.269426  0.437423  0  4.081822  0
C  C23  1  0.57835252  0.25650449  0.97460985  1  1.18065  0  0.272773  0.441842  0  4.073926  0
C  C24  1  0.43216174  0.25731782  0.98280909  1  1.192838  0  0.271593  0.438606  0  4.080432  0
C  C25  1  0.50459471  0.57443736  0.98156616  1  1.196417  0  0.269613  0.437278  0  4.081315  0
C  C26  1  0.43037787  0.67678174  0.97739740  1  1.171111  0  0.271076  0.439431  0  4.078596  0
C  C27  1  0.57639070  0.67840526  0.98684950  1  1.128057  0  0.273224  0.440286  0  4.075843  0
C  C28  1  0.50326963  0.97010452  0.37375921  1  1.229398  0  0.269634  0.438181  0  4.080982  0
C  C29  1  0.57714575  0.97004093  0.27078349  1  1.18448  0  0.272844  0.442219  0  4.07566  0
C  C30  1  0.43086263  0.97606734  0.27076121  1  1.192605  0  0.271317  0.438298  0  4.079822  0
C  C31  1  0.50513828  0.96503267  0.58780924  1  1.131869  0  0.269568  0.437383  0  4.081102  0
C  C32  1  0.57987247  0.96581221  0.69000575  1  1.241578  0  0.271633  0.43827  0  4.077182  0
C  C33  1  0.43359167  0.95885019  0.69157029  1  1.164862  0  0.27216  0.440605  0  4.076197  0
C  C34  1  0.21686762  0.13315022  0.99040138  1  1.666523  0  0.244662  0.705114  0  4.186232  0
C  C35  1  0.79171781  0.96417222  0.14546000  1  1.700426  0  0.246315  0.700074  0  4.1909  0
C  C36  1  0.21775748  0.97677147  0.14462073  1  1.698963  0  0.242932  0.701215  0  4.192612  0
C  C37  1  0.79204721  0.13063860  0.97186662  1  1.676796  0  0.246957  0.702367  0  4.182704  0
C  C38  1  0.79418123  0.97225903  0.81482145  1  1.671315  0  0.245292  0.704852  0  4.184953  0
C  C39  1  0.21606450  0.80143196  0.97069582  1  1.681799  0  0.2427  0.700621  0  4.189123  0
C  C40  1  0.79114497  0.80373644  0.98952013  1  1.704299  0  0.247743  0.705345  0  4.181924  0
C  C41  1  0.21921008  0.95672525  0.81737014  1  1.684045  0  0.246433  0.701924  0  4.18619  0
C  C42  1  0.72306476  0.97107998  0.76525201  1  -0.366897  0  -0.010276  -0.117406  0  3.878726  0
C  C43  1  0.65921549  0.96875219  0.72817822  1  0.142729  0  -0.005294  -0.069418  0  3.960525  0
C  C44  1  0.35521242  0.95516541  0.73111535  1  -0.332259  0  -0.005143  -0.072901  0  3.958988  0
C  C45  1  0.29138876  0.95377802  0.76846278  1  0.147879  0  -0.005765  -0.109499  0  3.86915  0
C  C46  1  0.65611334  0.96751423  0.23196476  1  -0.003537  0  -0.006247  -0.075691  0  3.963607  0
C  C47  1  0.71990612  0.96536367  0.19461069  1  -0.175298  0  -0.004653  -0.106591  0  3.874904  0
C  C48  1  0.35236625  0.97931658  0.23163729  1  0.028769  0  -0.00548  -0.069135  0  3.961313  0
C  C49  1  0.28929499  0.98028929  0.19371322  1  -0.22661  0  -0.011633  -0.119632  0  3.882612  0
C  C50  1  0.50315214  0.96825324  0.44883619  1  -0.13373  0  0.00459  -0.070064  0  3.934136  0
C  C51  1  0.50400820  0.96683852  0.51275362  1  -0.027484  0  0.005159  -0.069038  0  3.934837  0
C  C52  1  0.71893000  0.75499801  0.99253216  1  -0.367256  0  -0.004425  -0.107519  0  3.868301  0
C  C53  1  0.65484852  0.71790882  0.99098984  1  0.182495  0  -0.006104  -0.074495  0  3.960659  0
C  C54  1  0.35119967  0.71496791  0.97301016  1  -0.46095  0  -0.005249  -0.069173  0  3.960829  0
C  C55  1  0.28736785  0.75198468  0.97042472  1  0.29547  0  -0.011167  -0.118511  0  3.88252  0
C  C56  1  0.65685040  0.21722657  0.97073017  1  -0.366529  0  -0.006483  -0.075229  0  3.960921  0
C  C57  1  0.72043957  0.17975762  0.96920502  1  0.194062  0  -0.005386  -0.108519  0  3.870353  0
C  C58  1  0.28855156  0.18240039  0.98957050  1  -0.411687  0  -0.010442  -0.117523  0  3.879531  0
C  C59  1  0.35292089  0.21896670  0.98676401  1  0.239718  0  -0.004852  -0.068845  0  3.96242  0
C  C60  1  0.50645694  0.43526652  0.98068108  1  -0.137709  0  0.005148  -0.068812  0  3.936049  0
C  C61  1  0.50558232  0.49927276  0.98114964  1  -0.152918  0  0.005011  -0.069491  0  3.936509  0
N  N62  1  0.58340670  0.32751520  0.97521549  1  -1.084987  0  -0.289401  -0.384108  0  3.067833  0
N  N63  1  0.50482942  0.21843919  0.97806210  1  -1.098094  0  -0.280759  -0.366427  0  3.056843  0
N  N64  1  0.42833486  0.32831228  0.98400325  1  -1.168846  0  -0.290955  -0.386658  0  3.071963  0
N  N65  1  0.42672122  0.60575000  0.97647560  1  -1.140792  0  -0.291099  -0.387626  0  3.070952  0
N  N66  1  0.50283617  0.71604495  0.98241346  1  -1.094241  0  -0.280672  -0.365988  0  3.058606  0
N  N67  1  0.58158119  0.60745929  0.98697300  1  -1.035312  0  -0.288998  -0.382241  0  3.067162  0
N  N68  1  0.58105038  0.96775508  0.34164820  1  -1.109437  0  -0.289477  -0.384  0  3.068668  0
N  N69  1  0.50423669  0.97444570  0.23239807  1  -1.131276  0  -0.281449  -0.367139  0  3.059879  0
N  N70  1  0.42582996  0.97408987  0.34162701  1  -1.121528  0  -0.290887  -0.386993  0  3.069052  0
N  N71  1  0.58325043  0.96806529  0.61912079  1  -1.160165  0  -0.290314  -0.384841  0  3.068512  0
N  N72  1  0.50736524  0.96110824  0.72916938  1  -1.087133  0  -0.280843  -0.366211  0  3.056612  0
N  N73  1  0.42809731  0.96047789  0.62071926  1  -1.084739  0  -0.289448  -0.384589  0  3.069425  0
O  O74  1  0.14047434  0.15805750  0.99206920  1  -1.169063  0  -0.337136  -0.633832  0  2.241225  0
O  O75  1  0.23862907  0.06859938  0.98849251  1  -1.14002  0  -0.33637  -0.583452  0  2.245095  0
O  O76  1  0.86770280  0.96592263  0.17043686  1  -1.157078  0  -0.325825  -0.595913  0  2.233841  0
O  O77  1  0.77003183  0.96214858  0.08079335  1  -1.149756  0  -0.341456  -0.59162  0  2.248116  0
O  O78  1  0.14159477  0.98359142  0.16889742  1  -1.177329  0  -0.325241  -0.623908  0  2.245093  0
O  O79  1  0.23944455  0.96467955  0.08070865  1  -1.148737  0  -0.342077  -0.587264  0  2.240001  0
O  O80  1  0.86819613  0.15408023  0.96408289  1  -1.163306  0  -0.318035  -0.599896  0  2.231805  0
O  O81  1  0.77000301  0.06723404  0.98386165  1  -1.144241  0  -0.341588  -0.589649  0  2.240233  0
O  O82  1  0.99250609  0.17213273  0.06714903  1  -1.212928  0  -0.705411  -0.9613  0  1.783307  0
O  O83  1  0.01000410  0.18846245  0.90496535  1  -1.229831  0  -0.576658  -0.779513  0  2.020499  0
O  O84  1  0.99946127  0.04913406  0.20258516  1  -1.219984  0  -0.575354  -0.776576  0  2.020756  0
O  O85  1  0.01006160  0.88878122  0.18804588  1  -1.209099  0  -0.706283  -0.961879  0  1.794735  0
O  O86  1  0.07478188  0.02134968  0.03947954  1  -1.225028  0  -0.784636  -1.179743  0  2.085875  0
O  O87  1  0.91592474  0.04415137  0.06068509  1  -1.268981  0  -0.680552  -1.056018  0  2.21554  0
O  O88  1  0.87084360  0.97311070  0.79006725  1  -1.178735  0  -0.340225  -0.635203  0  2.241371  0
O  O89  1  0.77178138  0.97161520  0.87918459  1  -1.123594  0  -0.333645  -0.58019  0  2.244279  0
O  O90  1  0.13951011  0.77654093  0.96944228  1  -1.166477  0  -0.338866  -0.63054  0  2.240488  0
O  O91  1  0.23819796  0.86596048  0.97348325  1  -1.131098  0  -0.335115  -0.581384  0  2.241716  0
O  O92  1  0.86694006  0.78033256  0.99838215  1  -1.176754  0  -0.317235  -0.602504  0  2.231371  0
O  O93  1  0.76999417  0.86692173  0.97593240  1  -1.149334  0  -0.342491  -0.592002  0  2.240905  0
O  O94  1  0.14342673  0.94782243  0.79358990  1  -1.165927  0  -0.315878  -0.598365  0  2.233326  0
O  O95  1  0.24031989  0.97014051  0.88118889  1  -1.146848  0  -0.344117  -0.592509  0  2.2397  0
O  O96  1  0.00310237  0.88569934  0.75841315  1  -1.221529  0  -0.576485  -0.779976  0  2.018327  0
O  O97  1  0.01823857  0.04951553  0.77847267  1  -1.217391  0  -0.705497  -0.96261  0  1.785235  0
O  O98  1  0.99140505  0.76127261  0.89564618  1  -1.212095  0  -0.705425  -0.962147  0  1.783316  0
O  O99  1  0.00857885  0.74803785  0.05961521  1  -1.215805  0  -0.576131  -0.780349  0  2.014321  0
O  O100  1  0.91692020  0.89033211  0.89970078  1  -1.270493  0  -0.679405  -1.052209  0  2.209511  0
O  O101  1  0.07535586  0.91266028  0.92299866  1  -1.22372  0  -0.787543  -1.182742  0  2.10207  0
O  O102  1  0.93485642  0.02347440  0.92730778  1  -1.222092  0  -0.788441  -1.183414  0  2.105428  0
O  O103  1  0.09300943  0.88724749  0.05530563  1  -1.267157  0  -0.681469  -1.066592  0  2.251808  0
O  O104  1  0.09353221  0.04671357  0.90682653  1  -1.272417  0  -0.680118  -1.05269  0  2.211369  0
O  O105  1  0.93462165  0.91054296  0.03437426  1  -1.224593  0  -0.784793  -1.176123  0  2.077821  0
