# generated using pymatgen
data_CuH7C5SIN2
_symmetry_space_group_name_H-M   'P 1'
_cell_length_a   7.67631812
_cell_length_b   9.88033401
_cell_length_c   10.47004414
_cell_angle_alpha   89.99975008
_cell_angle_beta   89.99986543
_cell_angle_gamma   104.36504645
_symmetry_Int_Tables_number   1
_chemical_formula_structural   CuH7C5SIN2
_chemical_formula_sum   'Cu4 H28 C20 S4 I4 N8'
_cell_volume   769.26851526
_cell_formula_units_Z   4
loop_
 _symmetry_equiv_pos_site_id
 _symmetry_equiv_pos_as_xyz
  1  'x, y, z'
loop_
 _atom_site_type_symbol
 _atom_site_label
 _atom_site_symmetry_multiplicity
 _atom_site_fract_x
 _atom_site_fract_y
 _atom_site_fract_z
 _atom_site_occupancy
 _atom_site_pbe_bader_spin_density
 _atom_site_pbe_cm5_charge
 _atom_site_pbe_ddec_charge
 _atom_site_pbe_ddec_spin_density
 _atom_site_pbe_ddec_sum_bond_order
 _atom_site_pbe_magmom
Cu  Cu0  1  0.03807861  0.06889186  0.13612151  1  0  0.228906  0.229476  0  2.627807  0
Cu  Cu1  1  0.46192004  0.93110775  0.63612108  1  0  0.228904  0.229463  0  2.627841  0
Cu  Cu2  1  0.96191941  0.93110731  0.86387901  1  0  0.228912  0.229466  0  2.627882  0
Cu  Cu3  1  0.53807799  0.06889143  0.36387943  1  0  0.228923  0.229505  0  2.6278  0
H  H4  1  0.15788228  0.45649355  0.18403731  1  0  0.103081  0.127522  0  0.993968  0
H  H5  1  0.34211516  0.54350683  0.68403773  1  0  0.103079  0.127525  0  0.993924  0
H  H6  1  0.84211608  0.54350666  0.81596512  1  0  0.103078  0.127503  0  0.993949  0
H  H7  1  0.65788190  0.45649338  0.31596183  1  0  0.103095  0.127544  0  0.993961  0
H  H8  1  0.04746896  0.56446228  0.27542362  1  0  0.09446  0.114257  0  1.041577  0
H  H9  1  0.45252740  0.43553969  0.77542238  1  0  0.094439  0.11425  0  1.041605  0
H  H10  1  0.95252810  0.43553794  0.72457977  1  0  0.094462  0.114272  0  1.041571  0
H  H11  1  0.54746933  0.56445948  0.22457718  1  0  0.094471  0.114291  0  1.041584  0
H  H12  1  0.91955638  0.41270648  0.19155917  1  0  0.099242  0.121432  0  1.04693  0
H  H13  1  0.58043962  0.58729426  0.69155794  1  0  0.099235  0.121439  0  1.046914  0
H  H14  1  0.08043971  0.58729478  0.80844326  1  0  0.099245  0.121434  0  1.046921  0
H  H15  1  0.41955320  0.41270492  0.30844353  1  0  0.099252  0.121448  0  1.046924  0
H  H16  1  0.18251584  0.28190732  0.63450566  1  0  0.11102  0.123359  0  1.046731  0
H  H17  1  0.31748735  0.71809020  0.13450771  1  0  0.111025  0.12334  0  1.046801  0
H  H18  1  0.81748508  0.71808871  0.36549103  1  0  0.111024  0.123363  0  1.046747  0
H  H19  1  0.68250971  0.28191002  0.86549471  1  0  0.111027  0.123365  0  1.046816  0
H  H20  1  0.23423434  0.51721090  0.47412090  1  0  0.108146  0.120457  0  1.053001  0
H  H21  1  0.26576883  0.48278994  0.97412266  1  0  0.108149  0.12045  0  1.053151  0
H  H22  1  0.76577221  0.48279453  0.52588057  1  0  0.108102  0.120385  0  1.05308  0
H  H23  1  0.73423151  0.51721236  0.02587690  1  0  0.108135  0.120421  0  1.053202  0
H  H24  1  0.80221398  0.00880717  0.50562945  1  0  0.086106  0.07395  0  1.073234  0
H  H25  1  0.69778488  0.99119252  0.00562963  1  0  0.086113  0.073941  0  1.073265  0
H  H26  1  0.19778598  0.99118991  0.49436820  1  0  0.086104  0.073957  0  1.073216  0
H  H27  1  0.30221381  0.00880874  0.99437089  1  0  0.086097  0.073918  0  1.073237  0
H  H28  1  0.96087393  0.05197246  0.63344435  1  0  0.095334  0.093406  0  1.026933  0
H  H29  1  0.53912594  0.94802756  0.13344593  1  0  0.095343  0.093421  0  1.026868  0
H  H30  1  0.03912603  0.94802462  0.36655425  1  0  0.095341  0.093403  0  1.026906  0
H  H31  1  0.46087112  0.05197266  0.86655459  1  0  0.095337  0.093401  0  1.026898  0
C  C32  1  0.04247605  0.45720082  0.24568471  1  0  -0.135508  -0.265446  0  3.863158  0
C  C33  1  0.45752109  0.54279922  0.74568398  1  0  -0.135486  -0.265453  0  3.862989  0
C  C34  1  0.95752198  0.54279835  0.75431772  1  0  -0.135481  -0.265365  0  3.862936  0
C  C35  1  0.54247400  0.45719891  0.25431558  1  0  -0.135535  -0.265514  0  3.863094  0
C  C36  1  0.95648269  0.23335277  0.36673355  1  0  0.208928  0.211668  0  4.008875  0
C  C37  1  0.54351861  0.76664594  0.86673452  1  0  0.208927  0.211667  0  4.009011  0
C  C38  1  0.04351895  0.76664953  0.63326697  1  0  0.2089  0.21166  0  4.008905  0
C  C39  1  0.45648169  0.23335218  0.13326600  1  0  0.208913  0.211627  0  4.008886  0
C  C40  1  0.12655300  0.29724951  0.54224246  1  0  0.00512  -0.074459  0  3.942605  0
C  C41  1  0.37344612  0.70275062  0.04224543  1  0  0.00513  -0.074422  0  3.942486  0
C  C42  1  0.87345191  0.70275488  0.45775519  1  0  0.005143  -0.074416  0  3.942609  0
C  C43  1  0.62655451  0.29724854  0.95775604  1  0  0.005161  -0.074402  0  3.942425  0
C  C44  1  0.15146253  0.41127923  0.46454434  1  0  -0.003722  -0.10327  0  3.947706  0
C  C45  1  0.34853346  0.58871541  0.96454457  1  0  -0.003763  -0.103299  0  3.947719  0
C  C46  1  0.84855339  0.58871887  0.53545044  1  0  -0.003716  -0.103162  0  3.947856  0
C  C47  1  0.65146688  0.41128689  0.03545786  1  0  -0.00378  -0.103308  0  3.947695  0
C  C48  1  0.94552937  0.04738301  0.52917452  1  0  -0.064157  -0.064605  0  3.820731  0
C  C49  1  0.55447034  0.95261550  0.02917605  1  0  -0.064173  -0.064642  0  3.820771  0
C  C50  1  0.05447222  0.95261511  0.47082313  1  0  -0.064184  -0.06464  0  3.820905  0
C  C51  1  0.44552802  0.04738472  0.97082447  1  0  -0.064158  -0.064538  0  3.820745  0
S  S52  1  0.81472021  0.13625487  0.25704665  1  0  -0.227117  -0.369482  0  3.168396  0
S  S53  1  0.68527773  0.86374447  0.75704698  1  0  -0.227123  -0.369517  0  3.168546  0
S  S54  1  0.18527946  0.86374535  0.74295386  1  0  -0.227108  -0.369453  0  3.168435  0
S  S55  1  0.31472030  0.13625471  0.24295354  1  0  -0.2271  -0.369458  0  3.168379  0
I  I56  1  0.06012862  0.20305074  0.91137678  1  0  -0.223976  -0.402061  0  1.844983  0
I  I57  1  0.43986995  0.79694733  0.41137734  1  0  -0.223982  -0.402065  0  1.844963  0
I  I58  1  0.93987071  0.79694844  0.08862374  1  0  -0.223973  -0.402057  0  1.844995  0
I  I59  1  0.56013068  0.20305183  0.58862318  1  0  -0.223988  -0.402065  0  1.84495  0
N  N60  1  0.04556108  0.37074859  0.35718585  1  0  -0.245576  0.045195  0  3.776258  0
N  N61  1  0.45444201  0.62925082  0.85718764  1  0  -0.245541  0.045261  0  3.776136  0
N  N62  1  0.95444413  0.62925266  0.64281276  1  0  -0.245539  0.045135  0  3.776329  0
N  N63  1  0.54555472  0.37074836  0.14281288  1  0  -0.245544  0.045277  0  3.776105  0
N  N64  1  0.00660190  0.18901917  0.48125832  1  0  -0.240289  0.018577  0  3.741095  0
N  N65  1  0.49339699  0.81098060  0.98125739  1  0  -0.240276  0.01859  0  3.741065  0
N  N66  1  0.99340104  0.81098313  0.51874219  1  0  -0.240311  0.018533  0  3.741184  0
N  N67  1  0.50660007  0.18901962  0.01874218  1  0  -0.240299  0.018544  0  3.741113  0
