# generated using pymatgen
data_FeH12(C3N)6
_symmetry_space_group_name_H-M   'P 1'
_cell_length_a   7.05076500
_cell_length_b   13.69348589
_cell_length_c   22.92281831
_cell_angle_alpha   87.75127401
_cell_angle_beta   81.12512029
_cell_angle_gamma   75.17012764
_symmetry_Int_Tables_number   1
_chemical_formula_structural   FeH12(C3N)6
_chemical_formula_sum   'Fe4 H48 C72 N24'
_cell_volume   2113.85207632
_cell_formula_units_Z   4
loop_
 _symmetry_equiv_pos_site_id
 _symmetry_equiv_pos_as_xyz
  1  'x, y, z'
loop_
 _atom_site_type_symbol
 _atom_site_label
 _atom_site_symmetry_multiplicity
 _atom_site_fract_x
 _atom_site_fract_y
 _atom_site_fract_z
 _atom_site_occupancy
 _atom_site_pbe_bader_charge
 _atom_site_pbe_bader_spin_density
 _atom_site_pbe_cm5_charge
 _atom_site_pbe_ddec_charge
 _atom_site_pbe_ddec_spin_density
 _atom_site_pbe_ddec_sum_bond_order
 _atom_site_pbe_magmom
Fe  Fe0  1  0.62841925  0.24999775  0.24312725  1  1.267299  0.784256  0.944809  0.431821  0.914474  3.853187  0.779
Fe  Fe1  1  0.12144889  0.24996992  0.25697267  1  1.264627  0.823843  0.949195  0.437752  0.961431  3.85289  0.818
Fe  Fe2  1  0.37158096  0.75000042  0.75687171  1  1.267385  0.784314  0.944758  0.431786  0.914541  3.853131  0.78
Fe  Fe3  1  0.87855132  0.75002825  0.74302629  1  1.26459  0.823782  0.949089  0.437585  0.961357  3.852971  0.818
H  H4  1  0.23968854  0.99042514  0.08449166  1  0.05887  -2.4e-05  0.098944  0.098891  -0.000116  1.008519  0.0
H  H5  1  0.15134813  0.12789990  0.14617256  1  0.073502  -0.000158  0.125296  0.116197  -0.000281  1.006487  0.0
H  H6  1  0.76744715  0.13825195  0.11704674  1  0.068709  -0.000492  0.12028  0.111803  -0.000572  1.008981  0.0
H  H7  1  0.74465451  0.09979041  0.00742253  1  0.056871  -7.4e-05  0.10091  0.103368  -0.000156  0.997753  0.0
H  H8  1  0.77261497  0.84232174  0.25055710  1  0.012503  -0.000112  0.098612  0.098157  -0.000224  1.01153  0.0
H  H9  1  0.70229943  0.01660648  0.22927017  1  0.112233  -0.000421  0.123394  0.115639  -0.00055  1.005733  0.0
H  H10  1  0.17547906  0.50978834  0.08447675  1  0.050529  -2.8e-05  0.099475  0.099648  -0.000113  1.009706  0.0
H  H11  1  0.20240552  0.37211827  0.14612440  1  0.114529  -0.000173  0.124786  0.115854  -0.000292  1.007288  0.0
H  H12  1  0.61546283  0.36161938  0.11710459  1  0.110082  -0.000477  0.120342  0.112322  -0.000578  1.008925  0.0
H  H13  1  0.74835759  0.39992191  0.00739741  1  0.069241  -7.4e-05  0.100421  0.102515  -0.000149  0.996439  0.0
H  H14  1  0.47654019  0.65766107  0.25046629  1  0.010788  -0.000111  0.098531  0.097434  -0.000225  1.011463  0.0
H  H15  1  0.56832570  0.48338731  0.22917284  1  0.127131  -0.000428  0.12381  0.116306  -0.000555  1.005238  0.0
H  H16  1  0.76933188  0.99045346  0.41534870  1  0.064073  -5.5e-05  0.099052  0.099093  -0.000132  1.009043  0.0
H  H17  1  0.72074224  0.12775332  0.35375345  1  0.069932  -0.000156  0.125372  0.117334  -0.000276  1.006237  0.0
H  H18  1  0.09429891  0.13830131  0.38305922  1  0.071417  -0.000515  0.12057  0.112275  -0.000592  1.008118  0.0
H  H19  1  0.15598144  0.09972284  0.49283512  1  0.059792  -7.1e-05  0.100012  0.103132  -0.000141  0.996977  0.0
H  H20  1  0.38516918  0.84246665  0.24940593  1  0.019565  -9.4e-05  0.098767  0.097831  -0.0002  1.011201  0.0
H  H21  1  0.28192789  0.01678015  0.27060176  1  0.133862  -0.000342  0.123498  0.115478  -0.000492  1.005762  0.0
H  H22  1  0.31531354  0.50964377  0.41540581  1  0.058128  -5.8e-05  0.09933  0.099218  -0.000157  1.007631  0.0
H  H23  1  0.42532261  0.37260118  0.35366881  1  0.121066  -0.000185  0.125497  0.116969  -0.000317  1.005352  0.0
H  H24  1  0.02269867  0.36143259  0.38300976  1  0.105314  -0.000508  0.120778  0.112432  -0.000613  1.008232  0.0
H  H25  1  0.85129556  0.40022528  0.49268209  1  0.077407  -8.2e-05  0.100243  0.102244  -0.000168  0.997805  0.0
H  H26  1  0.86504529  0.65748846  0.24944516  1  0.018899  -9.2e-05  0.098837  0.09845  -0.0002  1.010584  0.0
H  H27  1  0.94724797  0.48316480  0.27059514  1  0.078037  -0.000387  0.123399  0.115879  -0.000503  1.006153  0.0
H  H28  1  0.76029980  0.00957455  0.91551408  1  0.059097  -2.4e-05  0.098873  0.098807  -0.000116  1.008492  0.0
H  H29  1  0.84864781  0.87209903  0.85383171  1  0.073495  -0.000158  0.12531  0.116215  -0.000281  1.00639  0.0
H  H30  1  0.23254942  0.86175000  0.88295396  1  0.068656  -0.000492  0.120275  0.1118  -0.000572  1.008986  0.0
H  H31  1  0.25533179  0.90021229  0.99258089  1  0.056772  -7.4e-05  0.100913  0.1034  -0.000156  0.9978  0.0
H  H32  1  0.22738347  0.15767493  0.74944724  1  0.012692  -0.000112  0.098593  0.0981  -0.000224  1.011571  0.0
H  H33  1  0.29769073  0.98339924  0.77073076  1  0.112335  -0.000421  0.123364  0.115668  -0.00055  1.00571  0.0
H  H34  1  0.82452555  0.49021512  0.91552806  1  0.050557  -2.8e-05  0.099464  0.099648  -0.000113  1.00969  0.0
H  H35  1  0.79760466  0.62787689  0.85388186  1  0.114461  -0.000173  0.124737  0.115847  -0.000292  1.007246  0.0
H  H36  1  0.38454518  0.63838333  0.88289579  1  0.109946  -0.000477  0.120395  0.112442  -0.000578  1.008746  0.0
H  H37  1  0.25164709  0.60008231  0.99260697  1  0.069128  -7.4e-05  0.100489  0.102617  -0.000149  0.99641  0.0
H  H38  1  0.52345821  0.34233711  0.74953304  1  0.01076  -0.000111  0.09852  0.097451  -0.000225  1.011469  0.0
H  H39  1  0.43168412  0.51660256  0.77082639  1  0.12724  -0.000427  0.123845  0.116367  -0.000555  1.005295  0.0
H  H40  1  0.23065634  0.00955604  0.58465086  1  0.063891  -5.5e-05  0.099019  0.099034  -0.000132  1.009053  0.0
H  H41  1  0.27924530  0.87225392  0.64624648  1  0.069839  -0.000156  0.125327  0.117307  -0.000276  1.006221  0.0
H  H42  1  0.90568605  0.86170441  0.61693688  1  0.071464  -0.000515  0.120606  0.112344  -0.000592  1.008062  0.0
H  H43  1  0.84400623  0.90028591  0.50716394  1  0.060068  -7.1e-05  0.100019  0.103052  -0.000141  0.997082  0.0
H  H44  1  0.61483003  0.15753001  0.75059478  1  0.019457  -9.4e-05  0.098791  0.097874  -0.0002  1.011199  0.0
H  H45  1  0.71806779  0.98322634  0.72939901  1  0.133814  -0.000342  0.1235  0.115476  -0.000492  1.005734  0.0
H  H46  1  0.68469944  0.49035667  0.58458789  1  0.058296  -5.8e-05  0.09934  0.099296  -0.000157  1.007564  0.0
H  H47  1  0.57468659  0.62739246  0.64632774  1  0.120985  -0.000185  0.125485  0.116989  -0.000317  1.005322  0.0
H  H48  1  0.97731506  0.63856710  0.61698213  1  0.105649  -0.000508  0.12079  0.112455  -0.000613  1.008276  0.0
H  H49  1  0.14871710  0.59977668  0.50731118  1  0.077431  -8.2e-05  0.100301  0.10231  -0.000168  0.997868  0.0
H  H50  1  0.13494798  0.34251122  0.75055853  1  0.019196  -9.2e-05  0.098845  0.098452  -0.0002  1.010643  0.0
H  H51  1  0.05275676  0.51682430  0.72940382  1  0.078007  -0.000387  0.123388  0.115899  -0.000503  1.006105  0.0
C  C52  1  0.35278259  0.99609683  0.04712564  1  -0.040391  0.005732  -0.093637  -0.128314  0.002812  3.992291  0.003
C  C53  1  0.49018088  0.05264069  0.05315601  1  -0.008477  0.008527  -0.013091  0.081295  0.004102  4.048221  0.004
C  C54  1  0.47207409  0.10793374  0.10766650  1  0.026492  0.025497  -0.032735  -0.036838  0.012554  4.094034  0.015
C  C55  1  0.29781161  0.13744184  0.14839867  1  0.447978  0.003804  0.012745  -0.061304  0.001441  3.96269  0.001
C  C56  1  0.61152975  0.14443990  0.13252171  1  0.391399  -0.00068  0.007932  -0.079244  -0.001927  3.948227  -0.002
C  C57  1  0.63829889  0.05513442  0.00476149  1  -0.058718  0.005103  -0.095279  -0.133748  0.00248  4.000764  0.003
C  C58  1  0.92795361  0.80233471  0.25010612  1  -0.098132  0.007757  -0.093431  -0.128928  0.003756  3.994941  0.004
C  C59  1  0.83580247  0.03333891  0.23936200  1  0.373954  0.011417  0.014295  -0.068391  0.005335  3.95242  0.005
C  C60  1  0.09978831  0.50408491  0.04713786  1  -0.058252  0.005545  -0.0951  -0.13187  0.002712  3.993503  0.003
C  C61  1  0.95667759  0.44734648  0.05314489  1  -0.000778  0.007758  -0.01201  0.083325  0.003713  4.045725  0.004
C  C62  1  0.92017232  0.39200439  0.10766145  1  0.029617  0.025177  -0.033234  -0.038138  0.012406  4.094136  0.015
C  C63  1  0.05372763  0.36253577  0.14837451  1  0.403161  0.003916  0.012085  -0.062404  0.001518  3.963018  0.001
C  C64  1  0.75597207  0.35543153  0.13250538  1  0.338006  -0.003012  0.007921  -0.07955  -0.004258  3.94995  -0.003
C  C65  1  0.85721818  0.44467791  0.00475715  1  -0.025434  0.004776  -0.095745  -0.132375  0.002354  3.997049  0.003
C  C66  1  0.32163856  0.69765396  0.25006015  1  -0.103793  0.007987  -0.093257  -0.127924  0.003866  3.993642  0.004
C  C67  1  0.42471685  0.46665412  0.23935140  1  0.381185  0.01032  0.013726  -0.069872  0.004784  3.952939  0.005
C  C68  1  0.65078884  0.99608850  0.45276943  1  -0.089363  0.005278  -0.095388  -0.131523  0.002562  3.992415  0.003
C  C69  1  0.45709569  0.05263526  0.44688151  1  0.036307  0.007416  -0.011551  0.08547  0.003573  4.046225  0.004
C  C70  1  0.41989454  0.10796767  0.39238028  1  -0.000706  0.024154  -0.033694  -0.038991  0.011883  4.09541  0.014
C  C71  1  0.56479450  0.13720459  0.35154870  1  0.408273  0.002739  0.011983  -0.062617  0.000908  3.96232  0.001
C  C72  1  0.24394156  0.14471938  0.36763614  1  0.453945  0.00067  0.007609  -0.080561  -0.000599  3.949349  -0.001
C  C73  1  0.30685149  0.05511854  0.49536286  1  -0.058112  0.00474  -0.095255  -0.1348  0.00231  4.000565  0.002
C  C74  1  0.26962392  0.80241278  0.24992243  1  0.06451  0.006371  -0.093038  -0.126904  0.003011  3.994512  0.003
C  C75  1  0.13164441  0.03326808  0.26069407  1  0.355943  -0.005239  0.011954  -0.069864  -0.007057  3.960175  -0.005
C  C76  1  0.39637711  0.50401706  0.45280608  1  -0.075676  0.006361  -0.094562  -0.130727  0.003107  3.990416  0.003
C  C77  1  0.59607300  0.44743671  0.44681445  1  -0.045196  0.009896  -0.010906  0.085152  0.004729  4.043094  0.005
C  C78  1  0.68768399  0.39219179  0.39230653  1  0.039009  0.027339  -0.033055  -0.040409  0.013502  4.096475  0.016
C  C79  1  0.58349249  0.36314665  0.35140854  1  0.386271  0.004031  0.013403  -0.059577  0.001608  3.960514  0.001
C  C80  1  0.88843531  0.35516690  0.36759401  1  0.365789  -0.000134  0.008942  -0.076937  -0.001595  3.947393  -0.002
C  C81  1  0.69791343  0.44489723  0.49528082  1  0.00077  0.005526  -0.094633  -0.131625  0.00274  3.996537  0.003
C  C82  1  0.98008246  0.69753727  0.24994624  1  0.063328  0.006558  -0.093278  -0.128184  0.003107  3.994407  0.003
C  C83  1  0.10747506  0.46667188  0.26066332  1  0.419765  -0.005732  0.012386  -0.070982  -0.007664  3.961076  -0.005
C  C84  1  0.64720284  0.00390587  0.95287865  1  -0.040857  0.00573  -0.093513  -0.128266  0.002811  3.992166  0.003
C  C85  1  0.50980306  0.94736126  0.94684727  1  -0.008295  0.008529  -0.013049  0.081437  0.004104  4.04812  0.004
C  C86  1  0.52791913  0.89206594  0.89233581  1  0.026623  0.025491  -0.032712  -0.036911  0.012551  4.094002  0.015
C  C87  1  0.70218415  0.86255558  0.85160509  1  0.447669  0.003806  0.012727  -0.061244  0.001443  3.962581  0.001
C  C88  1  0.38846397  0.85556054  0.86747973  1  0.391424  -0.00068  0.007885  -0.07926  -0.001926  3.948241  -0.002
C  C89  1  0.36168616  0.94486904  0.99524280  1  -0.058985  0.005101  -0.0953  -0.13391  0.002479  4.000926  0.003
C  C90  1  0.07204740  0.19766196  0.74989422  1  -0.098345  0.007758  -0.093402  -0.128799  0.003756  3.994768  0.004
C  C91  1  0.16419928  0.96666077  0.76063753  1  0.373773  0.011423  0.01431  -0.068373  0.005337  3.952353  0.005
C  C92  1  0.90022610  0.49591252  0.95286591  1  -0.058822  0.005545  -0.09508  -0.131875  0.002711  3.993434  0.003
C  C93  1  0.04334113  0.55264943  0.94685677  1  -6.2e-05  0.007758  -0.012002  0.083299  0.003714  4.045891  0.004
C  C94  1  0.07984745  0.60799304  0.89233984  1  0.029615  0.025176  -0.033218  -0.038072  0.012406  4.094305  0.015
C  C95  1  0.94628362  0.63746241  0.85162776  1  0.403426  0.003923  0.012096  -0.062435  0.001522  3.963055  0.001
C  C96  1  0.24404137  0.64456665  0.86749470  1  0.337892  -0.003016  0.007796  -0.079801  -0.004263  3.950043  -0.003
C  C97  1  0.14279530  0.55531951  0.99524612  1  -0.025673  0.004776  -0.095736  -0.132451  0.002354  3.997281  0.003
C  C98  1  0.67835711  0.30234422  0.74993904  1  -0.103578  0.007988  -0.093236  -0.127975  0.003867  3.993719  0.004
C  C99  1  0.57528443  0.53334103  0.76064800  1  0.380839  0.010324  0.013671  -0.070046  0.004786  3.953069  0.005
C  C100  1  0.34920409  0.00392251  0.54723040  1  -0.076381  0.005277  -0.095341  -0.131517  0.002563  3.992359  0.003
C  C101  1  0.54289828  0.94737652  0.55311977  1  0.036116  0.007416  -0.011622  0.085462  0.003573  4.046233  0.004
C  C102  1  0.58009082  0.89204032  0.60762002  1  -0.001113  0.024156  -0.033735  -0.039049  0.011883  4.095255  0.014
C  C103  1  0.43519373  0.86280038  0.64845167  1  0.408598  0.002733  0.012005  -0.062621  0.000905  3.962062  0.001
C  C104  1  0.75604836  0.85528484  0.63236291  1  0.453982  0.000674  0.007603  -0.080622  -0.000596  3.949173  -0.001
C  C105  1  0.69314031  0.94489475  0.50463697  1  -0.04522  0.004737  -0.095248  -0.134729  0.00231  4.00054  0.002
C  C106  1  0.73037393  0.19758463  0.75007640  1  0.065022  0.00637  -0.093079  -0.126941  0.003011  3.994669  0.003
C  C107  1  0.86835423  0.96673236  0.73930533  1  0.355901  -0.00524  0.011926  -0.069876  -0.007059  3.960163  -0.005
C  C108  1  0.60363281  0.49598414  0.54718887  1  -0.075589  0.006361  -0.094637  -0.13098  0.003107  3.9904  0.003
C  C109  1  0.40393773  0.55256374  0.55318005  1  -0.045421  0.009898  -0.010843  0.085226  0.004729  4.042929  0.005
C  C110  1  0.31232705  0.60780639  0.60769023  1  0.039732  0.027336  -0.033131  -0.040539  0.013501  4.096504  0.016
C  C111  1  0.41651563  0.63684926  0.64858938  1  0.385611  0.004031  0.013393  -0.059646  0.001607  3.960545  0.001
C  C112  1  0.11156902  0.64483278  0.63240153  1  0.365865  -0.000131  0.008895  -0.077007  -0.001594  3.947497  -0.002
C  C113  1  0.30209637  0.55510321  0.50471318  1  0.000983  0.005524  -0.094712  -0.131759  0.002739  3.996725  0.003
C  C114  1  0.01991600  0.30246091  0.75005447  1  0.063151  0.006558  -0.093313  -0.128265  0.003107  3.994398  0.003
C  C115  1  0.89252715  0.53332327  0.73933659  1  0.420046  -0.005735  0.012406  -0.070999  -0.007666  3.961177  -0.005
C  C116  1  0.07125700  0.85769985  0.25004379  1  -0.03898  0.012591  -0.009172  0.085434  0.00607  4.047637  0.007
C  C117  1  0.01663982  0.96758362  0.25008504  1  0.10105  0.029773  -0.031813  -0.04015  0.014664  4.097355  0.018
C  C118  1  0.17835978  0.64228064  0.25002390  1  -0.031519  0.01234  -0.008909  0.086222  0.005946  4.047638  0.007
C  C119  1  0.23303859  0.53239013  0.25005472  1  0.068773  0.030377  -0.032418  -0.040356  0.014924  4.09731  0.018
C  C120  1  0.92874097  0.14229833  0.74995598  1  -0.039483  0.012593  -0.009187  0.085384  0.006071  4.047623  0.007
C  C121  1  0.98336083  0.03241455  0.74991348  1  0.101203  0.029772  -0.03178  -0.040138  0.014664  4.097345  0.018
C  C122  1  0.82163900  0.35771678  0.74997543  1  -0.031748  0.012342  -0.008869  0.086306  0.005946  4.047596  0.007
C  C123  1  0.76696231  0.46760578  0.74994468  1  0.068636  0.030379  -0.032438  -0.040339  0.014925  4.097407  0.018
N  N124  1  0.33038692  0.18700965  0.19382813  1  -0.743159  0.003409  -0.274783  -0.113021  -0.00252  3.611675  0.0
N  N125  1  0.52413320  0.19115550  0.18432617  1  -0.699281  0.007976  -0.275076  -0.105296  0.000387  3.617029  0.004
N  N126  1  0.84422728  0.12987449  0.24339533  1  -0.73823  0.007758  -0.274938  -0.109253  0.000434  3.625468  0.004
N  N127  1  0.97574407  0.31290417  0.19379120  1  -0.730087  0.002776  -0.274298  -0.112965  -0.002893  3.612971  0.0
N  N128  1  0.79158565  0.30868688  0.18429656  1  -0.729441  0.008265  -0.274861  -0.104642  0.000504  3.617999  0.004
N  N129  1  0.41230913  0.37010601  0.24339343  1  -0.736922  0.007933  -0.2766  -0.110963  0.000537  3.626042  0.004
N  N130  1  0.48275795  0.18689829  0.30616505  1  -0.729189  0.003238  -0.276544  -0.114093  -0.002554  3.614909  0.0
N  N131  1  0.28484941  0.19137210  0.31580865  1  -0.727576  0.006529  -0.273378  -0.1041  -0.000701  3.615776  0.003
N  N132  1  0.02667454  0.12984565  0.25665167  1  -0.709874  0.010541  -0.276818  -0.110083  0.002012  3.628261  0.006
N  N133  1  0.71089943  0.31324309  0.30609053  1  -0.718141  0.004379  -0.276549  -0.114449  -0.001734  3.614256  0.001
N  N134  1  0.89935014  0.30854548  0.31577660  1  -0.736303  0.00884  -0.273576  -0.104038  0.000722  3.613528  0.005
N  N135  1  0.21656806  0.37010539  0.25663869  1  -0.711151  0.0107  -0.276524  -0.108724  0.002132  3.625461  0.007
N  N136  1  0.66961389  0.81298852  0.80617452  1  -0.742881  0.003405  -0.274751  -0.112967  -0.002523  3.611684  0.0
N  N137  1  0.47586680  0.80884419  0.81567511  1  -0.699199  0.007972  -0.275036  -0.105321  0.000385  3.617056  0.004
N  N138  1  0.15577212  0.87012444  0.75660407  1  -0.73818  0.007756  -0.275006  -0.10943  0.000433  3.625561  0.004
N  N139  1  0.02426023  0.68709325  0.80620978  1  -0.730346  0.00277  -0.274195  -0.112874  -0.002897  3.612837  0.0
N  N140  1  0.20841952  0.69131054  0.81570355  1  -0.729106  0.008268  -0.274887  -0.104606  0.000506  3.618038  0.004
N  N141  1  0.58769396  0.62988914  0.75660560  1  -0.736898  0.007934  -0.276589  -0.110936  0.000536  3.625917  0.004
N  N142  1  0.51723534  0.81310366  0.69383321  1  -0.729215  0.003239  -0.276475  -0.114005  -0.002554  3.614727  0.0
N  N143  1  0.71514464  0.80862833  0.68418960  1  -0.727443  0.006527  -0.273381  -0.104099  -0.000702  3.615695  0.003
N  N144  1  0.97332305  0.87015328  0.74334809  1  -0.709922  0.010544  -0.276734  -0.109938  0.002014  3.628239  0.006
N  N145  1  0.28910502  0.68675281  0.69390676  1  -0.718082  0.004379  -0.276482  -0.114257  -0.001735  3.614154  0.001
N  N146  1  0.10065493  0.69145194  0.68422076  1  -0.736594  0.008837  -0.273563  -0.104042  0.000721  3.613684  0.005
N  N147  1  0.78343558  0.62989052  0.74336085  1  -0.710931  0.0107  -0.276472  -0.108619  0.002133  3.625495  0.007
