# generated using pymatgen
data_Zn3H22C24S2(N2O)8
_symmetry_space_group_name_H-M   'P 1'
_cell_length_a   8.10487480
_cell_length_b   14.01081028
_cell_length_c   15.99490000
_cell_angle_alpha   114.11783295
_cell_angle_beta   90.00000000
_cell_angle_gamma   106.81179927
_symmetry_Int_Tables_number   1
_chemical_formula_structural   Zn3H22C24S2(N2O)8
_chemical_formula_sum   'Zn6 H44 C48 S4 N32 O16'
_cell_volume   1572.32515808
_cell_formula_units_Z   2
loop_
 _symmetry_equiv_pos_site_id
 _symmetry_equiv_pos_as_xyz
  1  'x, y, z'
loop_
 _atom_site_type_symbol
 _atom_site_label
 _atom_site_symmetry_multiplicity
 _atom_site_fract_x
 _atom_site_fract_y
 _atom_site_fract_z
 _atom_site_occupancy
 _atom_site_hle17_bader_spin_density
 _atom_site_hle17_ddec_charge
 _atom_site_hle17_ddec_spin_density
 _atom_site_hle17_ddec_sum_bond_order
 _atom_site_hle17_magmom
 _atom_site_hse06_10hf_bader_spin_density
 _atom_site_hse06_10hf_ddec_charge
 _atom_site_hse06_10hf_ddec_spin_density
 _atom_site_hse06_10hf_ddec_sum_bond_order
 _atom_site_hse06_10hf_magmom
 _atom_site_hse06_bader_spin_density
 _atom_site_hse06_ddec_charge
 _atom_site_hse06_ddec_spin_density
 _atom_site_hse06_ddec_sum_bond_order
 _atom_site_hse06_magmom
 _atom_site_pbe_bader_charge
 _atom_site_pbe_bader_spin_density
 _atom_site_pbe_cm5_charge
 _atom_site_pbe_ddec_charge
 _atom_site_pbe_ddec_spin_density
 _atom_site_pbe_ddec_sum_bond_order
 _atom_site_pbe_magmom
Zn  Zn0  1  0.27003964  0.27582082  0.04897686  1  0  0.961634  0  1.941235  0  0  0.764839  0  2.406372  0  0  0.807669  0  2.359695  0  1.270019  0  0.708341  0.735131  0  2.43836  0
Zn  Zn1  1  0.99437868  0.72413239  0.45091518  1  0  0.960818  0  1.944973  0  0  0.763847  0  2.410303  0  0  0.806641  0  2.363605  0  1.270447  0  0.708212  0.73421  0  2.442311  0
Zn  Zn2  1  0.72995762  0.72417939  0.95102203  1  0  0.961654  0  1.941211  0  0  0.76486  0  2.406355  0  0  0.807691  0  2.359677  0  1.270023  0  0.708367  0.735157  0  2.438338  0
Zn  Zn3  1  0.00562393  0.27586864  0.54908650  1  0  0.9608  0  1.944982  0  0  0.763828  0  2.410282  0  0  0.806621  0  2.363593  0  1.270186  0  0.708214  0.734172  0  2.442283  0
Zn  Zn4  1  0.01359195  0.00011131  0.75006141  1  0  1.071117  0  1.858033  0  0  0.889415  0  2.339694  0  0  0.931318  0  2.284836  0  1.268496  0  0.724662  0.860117  0  2.377524  0
Zn  Zn5  1  0.98640449  0.99988725  0.24993751  1  0  1.071152  0  1.85797  0  0  0.889439  0  2.339632  0  0  0.931344  0  2.284774  0  1.268474  0  0.724667  0.860143  0  2.377461  0
H  H6  1  0.53766206  0.69079578  0.19792499  1  0  0.327288  0  0.928291  0  0  0.304976  0  0.991379  0  0  0.314512  0  0.983294  0  0.572433  0  0.308898  0.298262  0  0.997082  0
H  H7  1  0.84691976  0.30917227  0.30217805  1  0  0.327133  0  0.929093  0  0  0.305196  0  0.991592  0  0  0.314618  0  0.983655  0  0.578024  0  0.308836  0.298553  0  0.997221  0
H  H8  1  0.46233479  0.30920360  0.80207485  1  0  0.327347  0  0.928202  0  0  0.304957  0  0.991414  0  0  0.314492  0  0.983331  0  0.572432  0  0.308897  0.298238  0  0.99712  0
H  H9  1  0.15309067  0.69082959  0.69782392  1  0  0.327057  0  0.929279  0  0  0.305136  0  0.991742  0  0  0.314559  0  0.983805  0  0.57799  0  0.308812  0.298495  0  0.997362  0
H  H10  1  0.37868512  0.64184663  0.02758601  1  0  0.320178  0  0.918637  0  0  0.30112  0  0.977345  0  0  0.310033  0  0.969969  0  0.57647  0  0.311098  0.294785  0  0.982656  0
H  H11  1  0.73708091  0.35829704  0.47254925  1  0  0.319344  0  0.91897  0  0  0.299662  0  0.978596  0  0  0.30856  0  0.971234  0  0.547788  0  0.310534  0.293429  0  0.983764  0
H  H12  1  0.62131050  0.35815523  0.97241409  1  0  0.320185  0  0.918626  0  0  0.301117  0  0.977346  0  0  0.31003  0  0.969972  0  0.576561  0  0.311087  0.294786  0  0.982654  0
H  H13  1  0.26292704  0.64170234  0.52745121  1  0  0.319265  0  0.919022  0  0  0.299497  0  0.978744  0  0  0.308394  0  0.971382  0  0.54781  0  0.310435  0.293273  0  0.983902  0
H  H14  1  0.75196850  0.03611514  0.11802512  1  0  0.315145  0  0.902189  0  0  0.293193  0  0.969647  0  0  0.3013  0  0.9628  0  0.533702  0  0.317969  0.287403  0  0.974671  0
H  H15  1  0.71649387  0.96399637  0.38198485  1  0  0.315022  0  0.904138  0  0  0.293852  0  0.970503  0  0  0.301925  0  0.963676  0  0.545162  0  0.318436  0.288087  0  0.975515  0
H  H16  1  0.24802958  0.96388424  0.88197410  1  0  0.315119  0  0.902213  0  0  0.293192  0  0.969654  0  0  0.301298  0  0.96281  0  0.533695  0  0.317976  0.2874  0  0.97468  0
H  H17  1  0.28350503  0.03600219  0.61801532  1  0  0.315011  0  0.904122  0  0  0.293842  0  0.970489  0  0  0.301914  0  0.963661  0  0.545192  0  0.318414  0.288075  0  0.975504  0
H  H18  1  0.54553671  0.42315556  0.26014257  1  0  0.103601  0  0.952671  0  0  0.112492  0  1.013316  0  0  0.114867  0  1.012635  0  0.104332  0  0.117927  0.110785  0  1.013827  0
H  H19  1  0.12237914  0.57667727  0.23978390  1  0  0.102894  0  0.953179  0  0  0.111915  0  1.01371  0  0  0.114306  0  1.013073  0  0.111555  0  0.117623  0.110159  0  1.014264  0
H  H20  1  0.45446220  0.57684300  0.73985510  1  0  0.103607  0  0.952567  0  0  0.112471  0  1.013247  0  0  0.114842  0  1.012578  0  0.104332  0  0.117907  0.110765  0  1.013757  0
H  H21  1  0.87762593  0.42332623  0.76021742  1  0  0.102859  0  0.953212  0  0  0.111833  0  1.013805  0  0  0.114268  0  1.0131  0  0.111538  0  0.117564  0.110077  0  1.014359  0
H  H22  1  0.67349659  0.65139669  0.32048089  1  0  0.107652  0  0.993991  0  0  0.113812  0  1.060401  0  0  0.116261  0  1.059592  0  0.120378  0  0.11905  0.111971  0  1.061177  0
H  H23  1  0.02209975  0.34845510  0.17958054  1  0  0.107246  0  0.993825  0  0  0.114079  0  1.059637  0  0  0.116528  0  1.058817  0  0.133514  0  0.119056  0.112233  0  1.060418  0
H  H24  1  0.32650067  0.34860104  0.67951711  1  0  0.107649  0  0.993959  0  0  0.113771  0  1.060415  0  0  0.116219  0  1.059608  0  0.120335  0  0.119033  0.111932  0  1.06119  0
H  H25  1  0.97790944  0.65154675  0.82042081  1  0  0.107234  0  0.993834  0  0  0.114069  0  1.059653  0  0  0.116519  0  1.058827  0  0.13348  0  0.119043  0.112216  0  1.060439  0
H  H26  1  0.15238166  0.53567043  0.88319805  1  0  0.094767  0  0.985204  0  0  0.101682  0  1.053624  0  0  0.103849  0  1.053681  0  0.129695  0  0.113682  0.100093  0  1.053702  0
H  H27  1  0.61672023  0.46453754  0.61685895  1  0  0.094596  0  0.986072  0  0  0.102108  0  1.053753  0  0  0.104251  0  1.053836  0  0.130084  0  0.11403  0.100531  0  1.053812  0
H  H28  1  0.84761395  0.46433142  0.11680330  1  0  0.094697  0  0.985225  0  0  0.101695  0  1.05356  0  0  0.103863  0  1.053615  0  0.12973  0  0.113672  0.100101  0  1.053639  0
H  H29  1  0.38328402  0.53545936  0.38314063  1  0  0.094602  0  0.986063  0  0  0.102109  0  1.053751  0  0  0.104257  0  1.05383  0  0.130093  0  0.114037  0.100532  0  1.05381  0
H  H30  1  0.03655973  0.31943140  0.86460568  1  0  0.103269  0  0.956291  0  0  0.110671  0  1.020466  0  0  0.112757  0  1.020483  0  0.091989  0  0.114457  0.109127  0  1.020589  0
H  H31  1  0.71695681  0.68069825  0.63527198  1  0  0.102425  0  0.957557  0  0  0.109916  0  1.021529  0  0  0.112036  0  1.021505  0  0.099927  0  0.11451  0.108379  0  1.021657  0
H  H32  1  0.96343260  0.68057128  0.13539659  1  0  0.103179  0  0.956309  0  0  0.110549  0  1.020548  0  0  0.112653  0  1.020547  0  0.091968  0  0.114395  0.109006  0  1.020671  0
H  H33  1  0.28304703  0.31930030  0.36473132  1  0  0.102459  0  0.957559  0  0  0.109944  0  1.021538  0  0  0.112064  0  1.021513  0  0.099892  0  0.114494  0.108406  0  1.021666  0
H  H34  1  0.84102559  0.21392304  0.95490149  1  0  0.104321  0  0.947653  0  0  0.11601  0  1.006047  0  0  0.11862  0  1.004821  0  0.101716  0  0.118411  0.114124  0  1.007047  0
H  H35  1  0.62756970  0.78625690  0.54514234  1  0  0.105258  0  0.947538  0  0  0.117489  0  1.005162  0  0  0.12012  0  1.003882  0  0.111543  0  0.118662  0.115596  0  1.006184  0
H  H36  1  0.15897249  0.78607634  0.04509710  1  0  0.104289  0  0.947678  0  0  0.115997  0  1.00605  0  0  0.118606  0  1.004826  0  0.101742  0  0.118407  0.114111  0  1.007051  0
H  H37  1  0.37243044  0.21374413  0.45485934  1  0  0.105268  0  0.947535  0  0  0.117518  0  1.005138  0  0  0.12015  0  1.003857  0  0.111852  0  0.118673  0.115625  0  1.00616  0
H  H38  1  0.58948507  0.08123784  0.01189619  1  0  0.120192  0  0.963899  0  0  0.128698  0  1.025318  0  0  0.1317  0  1.023534  0  0.13173  0  0.125237  0.12652  0  1.026651  0
H  H39  1  0.50884294  0.91894705  0.48814817  1  0  0.120003  0  0.964107  0  0  0.12829  0  1.025645  0  0  0.13126  0  1.023945  0  0.155698  0  0.125156  0.126123  0  1.026979  0
H  H40  1  0.41051260  0.91876319  0.98810362  1  0  0.12012  0  0.963964  0  0  0.128699  0  1.025292  0  0  0.131705  0  1.023503  0  0.131789  0  0.125243  0.12652  0  1.026626  0
H  H41  1  0.49115761  0.08105233  0.51185167  1  0  0.120003  0  0.964095  0  0  0.12829  0  1.025633  0  0  0.131261  0  1.023932  0  0.155679  0  0.125154  0.126123  0  1.026968  0
H  H42  1  0.38755113  0.09474876  0.27328265  1  0  0.109601  0  0.979697  0  0  0.114361  0  1.049453  0  0  0.117292  0  1.047769  0  0.152126  0  0.114407  0.112235  0  1.050738  0
H  H43  1  0.29307765  0.90508819  0.22652964  1  0  0.108794  0  0.979777  0  0  0.11394  0  1.049113  0  0  0.11687  0  1.047402  0  0.14131  0  0.114088  0.111812  0  1.050403  0
H  H44  1  0.61244818  0.90525062  0.72671594  1  0  0.109632  0  0.979641  0  0  0.114392  0  1.049398  0  0  0.117322  0  1.047715  0  0.152094  0  0.114415  0.112264  0  1.050685  0
H  H45  1  0.70691673  0.09490871  0.77346807  1  0  0.108728  0  0.979793  0  0  0.113903  0  1.049106  0  0  0.116832  0  1.047397  0  0.141311  0  0.114091  0.111777  0  1.0504  0
H  H46  1  0.55609108  0.22008281  0.18492261  1  0  0.094496  0  0.967659  0  0  0.103609  0  1.031344  0  0  0.106161  0  1.03029  0  0.076477  0  0.108684  0.101784  0  1.032203  0
H  H47  1  0.33612499  0.77959090  0.31476372  1  0  0.095322  0  0.967509  0  0  0.104296  0  1.031244  0  0  0.106816  0  1.030218  0  0.071599  0  0.109364  0.102498  0  1.032071  0
H  H48  1  0.44390783  0.77991575  0.81507568  1  0  0.094537  0  0.967646  0  0  0.103655  0  1.031317  0  0  0.106209  0  1.030258  0  0.07646  0  0.108682  0.101829  0  1.032179  0
H  H49  1  0.66387268  0.22040766  0.68523395  1  0  0.095316  0  0.967517  0  0  0.104297  0  1.031237  0  0  0.106817  0  1.03021  0  0.071584  0  0.109374  0.102501  0  1.032062  0
C  C50  1  0.52085313  0.47470186  0.22948678  1  0  0.008676  0  3.738874  0  0  -0.023035  0  4.004338  0  0  -0.021173  0  4.023095  0  0.396741  0  0.002606  -0.024263  0  3.991638  0
C  C51  1  0.04621113  0.52518044  0.27049241  1  0  0.008463  0  3.739258  0  0  -0.023229  0  4.00483  0  0  -0.021417  0  4.023569  0  0.39129  0  0.002413  -0.024404  0  3.992151  0
C  C52  1  0.47914289  0.52529587  0.77051184  1  0  0.008769  0  3.73876  0  0  -0.022896  0  4.004205  0  0  -0.021037  0  4.022963  0  0.396732  0  0.002688  -0.024117  0  3.991507  0
C  C53  1  0.95379559  0.47482141  0.72950956  1  0  0.008507  0  3.739292  0  0  -0.023139  0  4.004855  0  0  -0.021355  0  4.023582  0  0.39116  0  0.002459  -0.024316  0  3.992178  0
C  C54  1  0.58493853  0.58755395  0.26000780  1  0  -0.002396  0  3.670681  0  0  -0.04208  0  3.935934  0  0  -0.039857  0  3.953958  0  0.364686  0  0.004743  -0.043504  0  3.923831  0
C  C55  1  0.99743240  0.41234154  0.24003739  1  0  -0.001395  0  3.670419  0  0  -0.041601  0  3.935384  0  0  -0.039393  0  3.953494  0  0.34479  0  0.004818  -0.042987  0  3.923228  0
C  C56  1  0.41505914  0.41244461  0.73999175  1  0  -0.002509  0  3.670718  0  0  -0.042165  0  3.935981  0  0  -0.03994  0  3.954003  0  0.364655  0  0.00468  -0.043593  0  3.923879  0
C  C57  1  0.00257679  0.58766031  0.75996521  1  0  -0.001351  0  3.670438  0  0  -0.041559  0  3.935395  0  0  -0.039347  0  3.953515  0  0.34486  0  0.004876  -0.04294  0  3.923246  0
C  C58  1  0.41035415  0.51531542  0.12899872  1  0  0.25951  0  3.807704  0  0  0.228467  0  4.072821  0  0  0.241038  0  4.087102  0  1.036526  0  0.214972  0.220166  0  4.062945  0
C  C59  1  0.89518309  0.48468314  0.37105147  1  0  0.258208  0  3.80951  0  0  0.229122  0  4.072452  0  0  0.241677  0  4.086719  0  1.008554  0  0.215064  0.220836  0  4.062595  0
C  C60  1  0.58963817  0.48468478  0.87100142  1  0  0.259579  0  3.807587  0  0  0.228547  0  4.072659  0  0  0.241124  0  4.086946  0  1.036529  0  0.21497  0.22024  0  4.062786  0
C  C61  1  0.10482692  0.51531789  0.62895084  1  0  0.258146  0  3.809517  0  0  0.229055  0  4.072551  0  0  0.241605  0  4.086819  0  1.008664  0  0.215038  0.220771  0  4.062696  0
C  C62  1  0.30611045  0.49281178  0.04621710  1  0  0.238721  0  3.824035  0  0  0.212108  0  4.091842  0  0  0.222595  0  4.10684  0  0.994565  0  0.20621  0.205153  0  4.081508  0
C  C63  1  0.81345280  0.50726180  0.45383494  1  0  0.238379  0  3.824977  0  0  0.21055  0  4.093343  0  0  0.220996  0  4.108409  0  1.016033  0  0.205764  0.203653  0  4.08297  0
C  C64  1  0.69388147  0.50719007  0.95378488  1  0  0.238491  0  3.824178  0  0  0.211938  0  4.091909  0  0  0.222401  0  4.106934  0  0.995119  0  0.20607  0.205002  0  4.081556  0
C  C65  1  0.18655598  0.49273923  0.54616737  1  0  0.238479  0  3.824773  0  0  0.210503  0  4.093252  0  0  0.220967  0  4.1083  0  1.015766  0  0.205703  0.203594  0  4.082892  0
C  C66  1  0.18133173  0.49961135  0.92745409  1  0  0.010555  0  3.676946  0  0  -0.031137  0  3.947469  0  0  -0.028697  0  3.966114  0  0.378733  0  0.004126  -0.032673  0  3.934836  0
C  C67  1  0.68179049  0.50055540  0.57259565  1  0  0.00964  0  3.679671  0  0  -0.03264  0  3.950156  0  0  -0.030182  0  3.968837  0  0.315782  0  0.003266  -0.034153  0  3.937541  0
C  C68  1  0.81866307  0.50039132  0.07254630  1  0  0.010614  0  3.676956  0  0  -0.031146  0  3.94745  0  0  -0.028707  0  3.966099  0  0.378739  0  0.004139  -0.032675  0  3.934813  0
C  C69  1  0.31821376  0.49944151  0.42740518  1  0  0.009675  0  3.679822  0  0  -0.03266  0  3.950273  0  0  -0.030208  0  3.968953  0  0.315826  0  0.003206  -0.034173  0  3.937658  0
C  C70  1  0.12573589  0.39278216  0.91928403  1  0  0.013676  0  3.718783  0  0  -0.019394  0  3.992482  0  0  -0.01817  0  4.011133  0  0.395853  0  -0.000589  -0.020229  0  3.979887  0
C  C71  1  0.73292394  0.60733841  0.58066916  1  0  0.013438  0  3.721951  0  0  -0.019702  0  3.995873  0  0  -0.018504  0  4.014492  0  0.444442  0  -0.001377  -0.020551  0  3.983273  0
C  C72  1  0.87425726  0.60721969  0.08071795  1  0  0.01383  0  3.71873  0  0  -0.019228  0  3.992454  0  0  -0.018019  0  4.011095  0  0.395662  0  -0.000528  -0.020065  0  3.979859  0
C  C73  1  0.26707990  0.39266014  0.41933288  1  0  0.013348  0  3.72204  0  0  -0.019789  0  3.995961  0  0  -0.01859  0  4.014583  0  0.444372  0  -0.001309  -0.020636  0  3.983359  0
C  C74  1  0.85546410  0.17669566  0.00077940  1  0  0.016423  0  3.734396  0  0  -0.019529  0  4.003162  0  0  -0.017913  0  4.022147  0  0.45507  0  -0.00042  -0.020677  0  3.990404  0
C  C75  1  0.67929134  0.82345460  0.49925194  1  0  0.014016  0  3.734459  0  0  -0.022437  0  4.002916  0  0  -0.020831  0  4.021907  0  0.388446  0  -0.001012  -0.023579  0  3.990157  0
C  C76  1  0.14453357  0.82330289  0.99921890  1  0  0.016464  0  3.734501  0  0  -0.0195  0  4.003264  0  0  -0.017884  0  4.022246  0  0.455088  0  -0.000384  -0.020648  0  3.990505  0
C  C77  1  0.32070963  0.17654560  0.50074882  1  0  0.014051  0  3.734434  0  0  -0.022422  0  4.002882  0  0  -0.020815  0  4.021877  0  0.388163  0  -0.000995  -0.023562  0  3.990119  0
C  C78  1  0.72939229  0.11063091  0.02863190  1  0  0.011856  0  3.652143  0  0  -0.030459  0  3.919839  0  0  -0.027746  0  3.937239  0  0.335871  0  0.008273  -0.032211  0  3.908166  0
C  C79  1  0.61932327  0.88952182  0.47138720  1  0  0.013858  0  3.651412  0  0  -0.028071  0  3.919129  0  0  -0.025375  0  3.936534  0  0.363426  0  0.009232  -0.029821  0  3.907478  0
C  C80  1  0.27060579  0.88936846  0.97136732  1  0  0.011856  0  3.652085  0  0  -0.030501  0  3.919802  0  0  -0.027791  0  3.937204  0  0.335786  0  0.008234  -0.032254  0  3.90813  0
C  C81  1  0.38067728  0.11047756  0.52861327  1  0  0.013812  0  3.651449  0  0  -0.028123  0  3.919178  0  0  -0.025429  0  3.936586  0  0.363422  0  0.009209  -0.029874  0  3.90753  0
C  C82  1  0.98858926  0.13208992  0.09211859  1  0  0.272089  0  3.755727  0  0  0.240192  0  4.01727  0  0  0.253848  0  4.030447  0  0.958497  0  0.21576  0.23115  0  4.00815  0
C  C83  1  0.85697572  0.86796717  0.40785940  1  0  0.271448  0  3.758777  0  0  0.239974  0  4.019904  0  0  0.253631  0  4.03313  0  0.971077  0  0.216012  0.230937  0  4.010772  0
C  C84  1  0.01140882  0.86790946  0.90787938  1  0  0.272098  0  3.755544  0  0  0.240281  0  4.017028  0  0  0.253936  0  4.030204  0  0.958449  0  0.215856  0.231237  0  4.007908  0
C  C85  1  0.14302482  0.13203221  0.59214044  1  0  0.271442  0  3.75884  0  0  0.239954  0  4.019972  0  0  0.253631  0  4.03317  0  0.971081  0  0.21601  0.230916  0  4.010843  0
C  C86  1  0.13959185  0.13339344  0.14135257  1  0  0.237323  0  3.84482  0  0  0.216356  0  4.102784  0  0  0.225648  0  4.121224  0  1.026673  0  0.188012  0.210178  0  4.090074  0
C  C87  1  0.00657104  0.86653751  0.35855150  1  0  0.237982  0  3.845425  0  0  0.216897  0  4.103496  0  0  0.226163  0  4.121977  0  0.998126  0  0.188254  0.21073  0  4.090772  0
C  C88  1  0.86040623  0.86660594  0.85864602  1  0  0.237289  0  3.844624  0  0  0.216279  0  4.102618  0  0  0.225572  0  4.121057  0  1.02635  0  0.187965  0.210103  0  4.089909  0
C  C89  1  0.99342827  0.13346187  0.64144896  1  0  0.237963  0  3.84543  0  0  0.216878  0  4.103509  0  0  0.226147  0  4.121975  0  0.998136  0  0.18824  0.210711  0  4.090785  0
C  C90  1  0.33332927  0.12110853  0.22759498  1  0  -0.005839  0  3.728081  0  0  -0.040379  0  3.997463  0  0  -0.038374  0  4.016869  0  0.305153  0  -0.011528  -0.041678  0  3.984334  0
C  C91  1  0.21248640  0.87871770  0.27220847  1  0  -0.003431  0  3.722263  0  0  -0.037968  0  3.991142  0  0  -0.035939  0  4.010501  0  0.362583  0  -0.010772  -0.039279  0  3.978054  0
C  C92  1  0.66666964  0.87889002  0.77240332  1  0  -0.005863  0  3.72814  0  0  -0.040407  0  3.997521  0  0  -0.038402  0  4.016927  0  0.305146  0  -0.011531  -0.041706  0  3.984394  0
C  C93  1  0.78750962  0.12128003  0.72778953  1  0  -0.003336  0  3.722256  0  0  -0.037895  0  3.991137  0  0  -0.035867  0  4.010499  0  0.362577  0  -0.010766  -0.039212  0  3.978056  0
C  C94  1  0.41785403  0.18360654  0.18282023  1  0  0.010811  0  3.755387  0  0  -0.023567  0  4.024309  0  0  -0.02223  0  4.043818  0  0.456291  0  -0.011363  -0.024449  0  4.011088  0
C  C95  1  0.23445096  0.81615127  0.31692872  1  0  0.010007  0  3.753438  0  0  -0.024381  0  4.022935  0  0  -0.023023  0  4.042398  0  0.404404  0  -0.011456  -0.025282  0  4.009731  0
C  C96  1  0.58214446  0.81639119  0.81717777  1  0  0.01078  0  3.755474  0  0  -0.023602  0  4.024389  0  0  -0.022264  0  4.043897  0  0.45628  0  -0.011333  -0.024485  0  4.011167  0
C  C97  1  0.76554712  0.18384811  0.68307050  1  0  0.009996  0  3.753479  0  0  -0.024398  0  4.022992  0  0  -0.023043  0  4.042463  0  0.404447  0  -0.011457  -0.0253  0  4.00979  0
S  S98  1  0.38949091  0.14688952  0.86511798  1  0  1.554084  0  5.829572  0  0  1.431007  0  6.366108  0  0  1.486482  0  6.330075  0  3.79902  0  0.564496  1.392604  0  6.390048  0
S  S99  1  0.24258834  0.85317500  0.63489642  1  0  1.553519  0  5.830481  0  0  1.430296  0  6.367272  0  0  1.485692  0  6.33135  0  3.801683  0  0.564517  1.391959  0  6.39117  0
S  S100  1  0.61050635  0.85311069  0.13488028  1  0  1.553932  0  5.829551  0  0  1.430849  0  6.366121  0  0  1.486319  0  6.330089  0  3.799537  0  0.564397  1.392446  0  6.390061  0
S  S101  1  0.75741550  0.14682603  0.36510401  1  0  1.553402  0  5.83055  0  0  1.430141  0  6.367382  0  0  1.485537  0  6.331468  0  3.801668  0  0.564442  1.391775  0  6.391277  0
N  N102  1  0.41196365  0.43062461  0.14800936  1  0  -0.4133  0  3.264045  0  0  -0.338583  0  3.54841  0  0  -0.35717  0  3.561881  0  -1.213651  0  -0.353785  -0.325919  0  3.539068  0
N  N103  1  0.98146673  0.56932282  0.35197376  1  0  -0.41247  0  3.266048  0  0  -0.338482  0  3.549869  0  0  -0.357012  0  3.563293  0  -1.212185  0  -0.353729  -0.325855  0  3.540564  0
N  N104  1  0.58803114  0.56937559  0.85199077  1  0  -0.413342  0  3.264013  0  0  -0.338663  0  3.548403  0  0  -0.357252  0  3.561876  0  -1.213525  0  -0.353806  -0.326017  0  3.53908  0
N  N105  1  0.01853999  0.43067903  0.64802821  1  0  -0.412486  0  3.26611  0  0  -0.33848  0  3.549892  0  0  -0.357013  0  3.563332  0  -1.211879  0  -0.353752  -0.325851  0  3.540582  0
N  N106  1  0.51355198  0.61169832  0.19589780  1  0  -0.304932  0  3.397708  0  0  -0.239435  0  3.627693  0  0  -0.255326  0  3.64163  0  -1.304277  0  -0.365425  -0.228776  0  3.618234  0
N  N107  1  0.90194620  0.38826561  0.30419001  1  0  -0.304401  0  3.399219  0  0  -0.239864  0  3.628913  0  0  -0.255647  0  3.642887  0  -1.299966  0  -0.365161  -0.229318  0  3.619496  0
N  N108  1  0.48644240  0.38830106  0.80410267  1  0  -0.304872  0  3.397651  0  0  -0.239337  0  3.627659  0  0  -0.255229  0  3.641597  0  -1.304347  0  -0.365353  -0.22867  0  3.618201  0
N  N109  1  0.09806463  0.61173707  0.69581289  1  0  -0.304347  0  3.399392  0  0  -0.239801  0  3.629104  0  0  -0.25559  0  3.643082  0  -1.299956  0  -0.365108  -0.229252  0  3.619681  0
N  N110  1  0.20422290  0.38932425  0.99371234  1  0  -0.403373  0  3.148464  0  0  -0.34491  0  3.42791  0  0  -0.360539  0  3.441875  0  -1.199061  0  -0.339941  -0.334128  0  3.418238  0
N  N111  1  0.81493780  0.61074438  0.50624914  1  0  -0.402625  0  3.148332  0  0  -0.344054  0  3.428326  0  0  -0.359651  0  3.442302  0  -1.197899  0  -0.339864  -0.333287  0  3.418645  0
N  N112  1  0.79576778  0.61067760  0.00628901  1  0  -0.403276  0  3.148448  0  0  -0.344828  0  3.427858  0  0  -0.36045  0  3.441837  0  -1.198855  0  -0.339864  -0.33405  0  3.41818  0
N  N113  1  0.18507097  0.38925664  0.49375379  1  0  -0.402609  0  3.148316  0  0  -0.344007  0  3.428339  0  0  -0.359612  0  3.442314  0  -1.197496  0  -0.339875  -0.333237  0  3.418662  0
N  N114  1  0.29505466  0.56183975  0.00818101  1  0  -0.308994  0  3.411283  0  0  -0.247075  0  3.643755  0  0  -0.262612  0  3.658074  0  -1.323873  0  -0.37407  -0.236565  0  3.634079  0
N  N115  1  0.73341286  0.43829072  0.49193078  1  0  -0.305842  0  3.410379  0  0  -0.24323  0  3.643137  0  0  -0.258741  0  3.657518  0  -1.287747  0  -0.372103  -0.232849  0  3.633412  0
N  N116  1  0.70493972  0.43816210  0.99181972  1  0  -0.308996  0  3.411448  0  0  -0.247094  0  3.643936  0  0  -0.262621  0  3.658255  0  -1.324444  0  -0.374041  -0.236592  0  3.634251  0
N  N117  1  0.26659550  0.56170948  0.50807061  1  0  -0.305796  0  3.410416  0  0  -0.242949  0  3.643057  0  0  -0.258465  0  3.657437  0  -1.287858  0  -0.371926  -0.232563  0  3.633325  0
N  N118  1  0.01544698  0.19010434  0.04083310  1  0  -0.43653  0  3.305492  0  0  -0.357451  0  3.591923  0  0  -0.376761  0  3.604547  0  -1.22175  0  -0.364584  -0.344259  0  3.58314  0
N  N119  1  0.82582740  0.80999480  0.45917681  1  0  -0.435115  0  3.306752  0  0  -0.35583  0  3.593009  0  0  -0.375152  0  3.605638  0  -1.223382  0  -0.364086  -0.34264  0  3.584238  0
N  N120  1  0.98455151  0.80989339  0.95916490  1  0  -0.436528  0  3.305591  0  0  -0.357452  0  3.591991  0  0  -0.376759  0  3.604611  0  -1.221789  0  -0.364645  -0.344259  0  3.583208  0
N  N121  1  0.17417192  0.19000458  0.54082365  1  0  -0.435087  0  3.306825  0  0  -0.355783  0  3.593066  0  0  -0.375117  0  3.605696  0  -1.223363  0  -0.364065  -0.342593  0  3.584293  0
N  N122  1  0.81524011  0.08367751  0.08590773  1  0  -0.286011  0  3.414669  0  0  -0.221383  0  3.644963  0  0  -0.236312  0  3.658511  0  -1.27644  0  -0.367037  -0.211386  0  3.635869  0
N  N123  1  0.73209328  0.91641174  0.41407802  1  0  -0.286934  0  3.419847  0  0  -0.223206  0  3.649973  0  0  -0.238126  0  3.663514  0  -1.280787  0  -0.368331  -0.213254  0  3.640933  0
N  N124  1  0.18475838  0.91632270  0.91409178  1  0  -0.285925  0  3.414415  0  0  -0.221386  0  3.64476  0  0  -0.236317  0  3.658313  0  -1.276302  0  -0.367049  -0.211384  0  3.63566  0
N  N125  1  0.26790726  0.08358764  0.58592182  1  0  -0.286938  0  3.419851  0  0  -0.223206  0  3.649977  0  0  -0.238129  0  3.66351  0  -1.280849  0  -0.368336  -0.213255  0  3.640938  0
N  N126  1  0.29577177  0.19087359  0.12867197  1  0  -0.432954  0  3.252459  0  0  -0.359954  0  3.531793  0  0  -0.378199  0  3.547062  0  -1.254335  0  -0.364151  -0.347364  0  3.52113  0
N  N127  1  0.10517430  0.80895759  0.37113262  1  0  -0.433708  0  3.253438  0  0  -0.360765  0  3.533016  0  0  -0.378986  0  3.548259  0  -1.240415  0  -0.365009  -0.348191  0  3.52239  0
N  N128  1  0.70422549  0.80912414  0.87132665  1  0  -0.432952  0  3.252335  0  0  -0.359945  0  3.531686  0  0  -0.378189  0  3.546954  0  -1.254252  0  -0.364157  -0.347354  0  3.521023  0
N  N129  1  0.89482666  0.19104261  0.62886814  1  0  -0.433661  0  3.253399  0  0  -0.360717  0  3.532973  0  0  -0.37894  0  3.548219  0  -1.240453  0  -0.364991  -0.348143  0  3.522348  0
N  N130  1  0.15648725  0.08939535  0.20112662  1  0  -0.443647  0  3.285605  0  0  -0.36039  0  3.578735  0  0  -0.380947  0  3.591346  0  -1.250235  0  -0.372527  -0.346306  0  3.569944  0
N  N131  1  0.06747613  0.91052653  0.29876983  1  0  -0.445691  0  3.282404  0  0  -0.36263  0  3.576127  0  0  -0.383188  0  3.588704  0  -1.238405  0  -0.373263  -0.348545  0  3.567357  0
N  N132  1  0.84351206  0.91060403  0.79887197  1  0  -0.443659  0  3.285674  0  0  -0.360386  0  3.578806  0  0  -0.380942  0  3.591417  0  -1.24995  0  -0.372557  -0.346303  0  3.570015  0
N  N133  1  0.93252113  0.08947120  0.70122880  1  0  -0.445737  0  3.282472  0  0  -0.36269  0  3.576222  0  0  -0.383248  0  3.588795  0  -1.238445  0  -0.37331  -0.348605  0  3.567456  0
O  O134  1  0.46524982  0.06309246  0.86222394  1  0  -0.681514  0  1.94121  0  0  -0.63076  0  2.186995  0  0  -0.652762  0  2.174254  0  -1.335451  0  -0.337106  -0.615406  0  2.195422  0
O  O135  1  0.40229853  0.93671481  0.63760711  1  0  -0.680659  0  1.938482  0  0  -0.630434  0  2.184572  0  0  -0.652136  0  2.171526  0  -1.341652  0  -0.337477  -0.615136  0  2.193045  0
O  O136  1  0.53474908  0.93690857  0.13777712  1  0  -0.681426  0  1.94114  0  0  -0.630664  0  2.18692  0  0  -0.652665  0  2.174183  0  -1.335516  0  -0.337072  -0.615309  0  2.195344  0
O  O137  1  0.59770408  0.06328374  0.36239243  1  0  -0.680616  0  1.938401  0  0  -0.630381  0  2.184496  0  0  -0.652081  0  2.171446  0  -1.341584  0  -0.337457  -0.615096  0  2.193009  0
O  O138  1  0.44662690  0.24623234  0.95950367  1  0  -0.74395  0  2.057037  0  0  -0.665262  0  2.336955  0  0  -0.688923  0  2.315407  0  -1.334132  0  -0.366234  -0.648632  0  2.351353  0
O  O139  1  0.20001013  0.75372087  0.54059030  1  0  -0.744867  0  2.059235  0  0  -0.665006  0  2.338558  0  0  -0.688714  0  2.317095  0  -1.33651  0  -0.366845  -0.648568  0  2.353116  0
O  O140  1  0.55336831  0.75377116  0.04049514  1  0  -0.743925  0  2.056992  0  0  -0.665234  0  2.336897  0  0  -0.688904  0  2.315369  0  -1.334236  0  -0.366191  -0.648601  0  2.351295  0
O  O141  1  0.79999207  0.24627933  0.45941171  1  0  -0.744786  0  2.059204  0  0  -0.664924  0  2.338489  0  0  -0.688636  0  2.317036  0  -1.336525  0  -0.366798  -0.648412  0  2.35299  0
O  O142  1  0.43893706  0.18628778  0.79323543  1  0  -0.703429  0  1.977229  0  0  -0.651742  0  2.227026  0  0  -0.6727  0  2.211673  0  -1.347955  0  -0.349266  -0.636944  0  2.237147  0
O  O143  1  0.25247405  0.81384022  0.70682795  1  0  -0.703315  0  1.978729  0  0  -0.651627  0  2.228326  0  0  -0.672561  0  2.213037  0  -1.345522  0  -0.3493  -0.636852  0  2.238399  0
O  O144  1  0.56106061  0.81371077  0.20676098  1  0  -0.703341  0  1.977185  0  0  -0.651711  0  2.226989  0  0  -0.672667  0  2.211635  0  -1.348326  0  -0.349227  -0.636912  0  2.237105  0
O  O145  1  0.74752815  0.18616246  0.29317432  1  0  -0.703313  0  1.97868  0  0  -0.651604  0  2.228289  0  0  -0.672539  0  2.213001  0  -1.345516  0  -0.349265  -0.636828  0  2.238373  0
O  O146  1  0.19361703  0.10341250  0.85870676  1  0  -0.764029  0  2.056474  0  0  -0.691319  0  2.363146  0  0  -0.713496  0  2.33711  0  -1.338315  0  -0.371251  -0.675674  0  2.380699  0
O  O147  1  0.09053905  0.89695955  0.64138396  1  0  -0.763492  0  2.057433  0  0  -0.69146  0  2.364957  0  0  -0.713582  0  2.338753  0  -1.336655  0  -0.370784  -0.67575  0  2.382362  0
O  O148  1  0.80637776  0.89658770  0.14129087  1  0  -0.764081  0  2.056553  0  0  -0.691336  0  2.363197  0  0  -0.713511  0  2.337157  0  -1.338241  0  -0.371289  -0.675694  0  2.380753  0
O  O149  1  0.90946520  0.10304231  0.35861614  1  0  -0.763496  0  2.057456  0  0  -0.691459  0  2.364999  0  0  -0.713573  0  2.338776  0  -1.336673  0  -0.370817  -0.675759  0  2.382434  0
