# generated using pymatgen
data_LaH14C12N3O10
_symmetry_space_group_name_H-M   'P 1'
_cell_length_a   4.62778345
_cell_length_b   11.89606119
_cell_length_c   15.69113441
_cell_angle_alpha   85.49115745
_cell_angle_beta   84.70640191
_cell_angle_gamma   83.57895542
_symmetry_Int_Tables_number   1
_chemical_formula_structural   LaH14C12N3O10
_chemical_formula_sum   'La2 H28 C24 N6 O20'
_cell_volume   852.71609130
_cell_formula_units_Z   2
loop_
 _symmetry_equiv_pos_site_id
 _symmetry_equiv_pos_as_xyz
  1  'x, y, z'
loop_
 _atom_site_type_symbol
 _atom_site_label
 _atom_site_symmetry_multiplicity
 _atom_site_fract_x
 _atom_site_fract_y
 _atom_site_fract_z
 _atom_site_occupancy
 _atom_site_hle17_bader_spin_density
 _atom_site_hle17_ddec_charge
 _atom_site_hle17_ddec_spin_density
 _atom_site_hle17_ddec_sum_bond_order
 _atom_site_hle17_magmom
 _atom_site_hse06_10hf_bader_spin_density
 _atom_site_hse06_10hf_ddec_charge
 _atom_site_hse06_10hf_ddec_spin_density
 _atom_site_hse06_10hf_ddec_sum_bond_order
 _atom_site_hse06_10hf_magmom
 _atom_site_hse06_bader_spin_density
 _atom_site_hse06_ddec_charge
 _atom_site_hse06_ddec_spin_density
 _atom_site_hse06_ddec_sum_bond_order
 _atom_site_hse06_magmom
 _atom_site_pbe_bader_spin_density
 _atom_site_pbe_cm5_charge
 _atom_site_pbe_ddec_charge
 _atom_site_pbe_ddec_spin_density
 _atom_site_pbe_ddec_sum_bond_order
 _atom_site_pbe_magmom
La  La0  1  0.17309412  0.22846028  0.32828092  1  0  2.164558  0  1.698847  0  0  2.049592  0  2.210345  0  0  2.154683  0  2.102335  0  0  1.391386  1.970031  0  2.286848  0
La  La1  1  0.82692340  0.77153824  0.67172099  1  0  2.164588  0  1.698803  0  0  2.049581  0  2.210311  0  0  2.154667  0  2.102301  0  0  1.391445  1.970003  0  2.286838  0
H  H2  1  0.54237187  0.89470423  0.43793075  1  0  0.132058  0  0.916109  0  0  0.142283  0  0.976098  0  0  0.145502  0  0.973382  0  0  0.131005  0.139949  0  0.978264  0
H  H3  1  0.45761480  0.10528069  0.56206765  1  0  0.132085  0  0.91602  0  0  0.142392  0  0.975922  0  0  0.145617  0  0.973194  0  0  0.131045  0.140021  0  0.978128  0
H  H4  1  0.52114029  0.89561783  0.32481146  1  0  0.123851  0  0.913343  0  0  0.135543  0  0.975496  0  0  0.137756  0  0.973886  0  0  0.126126  0.133958  0  0.97685  0
H  H5  1  0.47886811  0.10438241  0.67518486  1  0  0.123898  0  0.913363  0  0  0.135586  0  0.975539  0  0  0.137799  0  0.973932  0  0  0.126146  0.133999  0  0.976883  0
H  H6  1  0.11198045  0.84166114  0.24866016  1  0  0.130717  0  0.89458  0  0  0.141978  0  0.954016  0  0  0.145102  0  0.951217  0  0  0.127838  0.139635  0  0.956245  0
H  H7  1  0.88803491  0.15833739  0.75134053  1  0  0.130508  0  0.894543  0  0  0.141795  0  0.953932  0  0  0.144916  0  0.951128  0  0  0.127736  0.139471  0  0.95617  0
H  H8  1  0.82902758  0.75566756  0.25038678  1  0  0.127154  0  0.921087  0  0  0.137068  0  0.982991  0  0  0.139623  0  0.981128  0  0  0.123293  0.135195  0  0.984472  0
H  H9  1  0.17098660  0.24433522  0.74961115  1  0  0.127164  0  0.921021  0  0  0.137024  0  0.982955  0  0  0.139573  0  0.981093  0  0  0.123274  0.135162  0  0.98447  0
H  H10  1  0.45210661  0.70414092  0.47075266  1  0  0.117818  0  0.925672  0  0  0.125773  0  0.993194  0  0  0.128387  0  0.991707  0  0  0.127955  0.123847  0  0.994412  0
H  H11  1  0.54790370  0.29586015  0.52924739  1  0  0.117946  0  0.92562  0  0  0.125802  0  0.99327  0  0  0.128419  0  0.991785  0  0  0.12795  0.123876  0  0.994489  0
H  H12  1  0.19339584  0.60417479  0.48099143  1  0  0.123507  0  0.916749  0  0  0.134421  0  0.979979  0  0  0.137183  0  0.977737  0  0  0.125201  0.132374  0  0.981755  0
H  H13  1  0.80662099  0.39582630  0.51900716  1  0  0.123518  0  0.916739  0  0  0.134469  0  0.979912  0  0  0.137232  0  0.977671  0  0  0.125191  0.13242  0  0.981689  0
H  H14  1  0.75887354  0.55074026  0.39956444  1  0  0.119127  0  0.918988  0  0  0.131202  0  0.982899  0  0  0.133742  0  0.980842  0  0  0.120677  0.129309  0  0.984637  0
H  H15  1  0.24113701  0.44925996  0.60043437  1  0  0.119119  0  0.919042  0  0  0.131214  0  0.982951  0  0  0.133757  0  0.980895  0  0  0.120708  0.129322  0  0.984687  0
H  H16  1  0.71711349  0.54154928  0.28932672  1  0  0.121307  0  0.919048  0  0  0.131987  0  0.981055  0  0  0.135018  0  0.978325  0  0  0.128176  0.129778  0  0.983184  0
H  H17  1  0.28288864  0.45845010  0.71067045  1  0  0.121326  0  0.918985  0  0  0.132052  0  0.980953  0  0  0.135089  0  0.978216  0  0  0.128196  0.129846  0  0.98308  0
H  H18  1  0.99559840  0.16007046  0.05763979  1  0  0.099632  0  0.931403  0  0  0.113895  0  0.990922  0  0  0.115426  0  0.989445  0  0  0.118068  0.112748  0  0.992099  0
H  H19  1  0.00439556  0.83993485  0.94235535  1  0  0.099629  0  0.931391  0  0  0.113921  0  0.990872  0  0  0.115429  0  0.989415  0  0  0.118066  0.112775  0  0.992054  0
H  H20  1  0.04083254  0.03490605  0.12698948  1  0  0.126155  0  0.91714  0  0  0.135883  0  0.982729  0  0  0.1389  0  0.979789  0  0  0.127457  0.133648  0  0.98502  0
H  H21  1  0.95916311  0.96509335  0.87300085  1  0  0.126147  0  0.917118  0  0  0.135936  0  0.982623  0  0  0.138924  0  0.979712  0  0  0.127459  0.13371  0  0.984907  0
H  H22  1  0.43364537  0.19197079  0.00920799  1  0  0.109517  0  0.897539  0  0  0.125494  0  0.951079  0  0  0.128008  0  0.948941  0  0  0.123014  0.123657  0  0.952789  0
H  H23  1  0.56634931  0.80803960  0.99078940  1  0  0.109639  0  0.897441  0  0  0.125598  0  0.950985  0  0  0.128112  0  0.948851  0  0  0.123042  0.123757  0  0.952695  0
H  H24  1  0.73062881  0.14920161  0.93571483  1  0  0.11613  0  0.919829  0  0  0.12786  0  0.981888  0  0  0.130448  0  0.979971  0  0  0.120791  0.126027  0  0.983341  0
H  H25  1  0.26935333  0.85080705  0.06428362  1  0  0.116126  0  0.919973  0  0  0.127894  0  0.981956  0  0  0.130483  0  0.980041  0  0  0.120816  0.126059  0  0.983412  0
H  H26  1  0.06743678  0.38144407  0.17367979  1  0  0.436808  0  0.824487  0  0  0.418662  0  0.874526  0  0  0.428379  0  0.860469  0  0  0.323628  0.411612  0  0.884737  0
H  H27  1  0.93254555  0.61854847  0.82632084  1  0  0.43686  0  0.824467  0  0  0.418684  0  0.874513  0  0  0.428403  0  0.860454  0  0  0.323657  0.411637  0  0.884722  0
H  H28  1  0.24495624  0.47533440  0.20718259  1  0  0.438153  0  0.855751  0  0  0.410732  0  0.912727  0  0  0.421476  0  0.897021  0  0  0.299025  0.402987  0  0.924049  0
H  H29  1  0.75503457  0.52465904  0.79281140  1  0  0.438243  0  0.855631  0  0  0.410815  0  0.912617  0  0  0.421562  0  0.896911  0  0  0.299001  0.403068  0  0.923946  0
C  C30  1  0.77694413  0.01828215  0.36321566  1  0  0.721071  0  3.838356  0  0  0.678884  0  4.137466  0  0  0.713642  0  4.131325  0  0  0.231122  0.654909  0  4.140756  0
C  C31  1  0.22304974  0.98171546  0.63679203  1  0  0.721176  0  3.838446  0  0  0.679005  0  4.137527  0  0  0.713763  0  4.131387  0  0  0.231221  0.655024  0  4.140805  0
C  C32  1  0.66754718  0.90091778  0.37524942  1  0  -0.15652  0  3.592767  0  0  -0.214601  0  3.841148  0  0  -0.213823  0  3.844701  0  0  -0.051398  -0.215425  0  3.839384  0
C  C33  1  0.33244768  0.09907648  0.62475142  1  0  -0.156689  0  3.592809  0  0  -0.214835  0  3.84118  0  0  -0.214062  0  3.844736  0  0  -0.051441  -0.215611  0  3.839391  0
C  C34  1  0.01130079  0.77162529  0.28616997  1  0  -0.142148  0  3.64788  0  0  -0.202031  0  3.906509  0  0  -0.201845  0  3.913303  0  0  -0.050241  -0.202102  0  3.901898  0
C  C35  1  0.98871194  0.22837494  0.71382815  1  0  -0.141966  0  3.64779  0  0  -0.201698  0  3.906303  0  0  -0.201491  0  3.913076  0  0  -0.050152  -0.201865  0  3.901799  0
C  C36  1  0.23166249  0.66813571  0.28453355  1  0  0.51801  0  3.803133  0  0  0.46647  0  4.108553  0  0  0.495076  0  4.108196  0  0  0.245588  0.447177  0  4.108218  0
C  C37  1  0.76834181  0.33186366  0.71546420  1  0  0.518059  0  3.803136  0  0  0.466368  0  4.108704  0  0  0.494969  0  4.108347  0  0  0.245556  0.447104  0  4.108374  0
C  C38  1  0.02557488  0.76943567  0.44270609  1  0  0.537861  0  3.783623  0  0  0.488676  0  4.081744  0  0  0.519279  0  4.080464  0  0  0.260476  0.467753  0  4.082142  0
C  C39  1  0.97443059  0.23055944  0.55729570  1  0  0.537595  0  3.784131  0  0  0.488761  0  4.08178  0  0  0.519363  0  4.080504  0  0  0.260439  0.467839  0  4.082178  0
C  C40  1  0.27216295  0.67572255  0.43970548  1  0  -0.141051  0  3.658691  0  0  -0.199151  0  3.914145  0  0  -0.198696  0  3.920089  0  0  -0.045972  -0.199405  0  3.910226  0
C  C41  1  0.72785651  0.32427684  0.56029442  1  0  -0.141067  0  3.658801  0  0  -0.199223  0  3.914191  0  0  -0.198781  0  3.920158  0  0  -0.045951  -0.199474  0  3.910278  0
C  C42  1  0.59975545  0.54186852  0.35331102  1  0  -0.156022  0  3.630215  0  0  -0.214495  0  3.881212  0  0  -0.213803  0  3.886057  0  0  -0.056558  -0.215099  0  3.878305  0
C  C43  1  0.40025318  0.45813086  0.64668662  1  0  -0.155937  0  3.630222  0  0  -0.214571  0  3.881395  0  0  -0.213887  0  3.88623  0  0  -0.05659  -0.215173  0  3.87849  0
C  C44  1  0.48110002  0.42695468  0.37281971  1  0  0.679256  0  3.891636  0  0  0.638385  0  4.190037  0  0  0.671139  0  4.186877  0  0  0.207631  0.615946  0  4.191101  0
C  C45  1  0.51886761  0.57305138  0.62718756  1  0  0.678959  0  3.892207  0  0  0.638158  0  4.190592  0  0  0.670917  0  4.187434  0  0  0.20754  0.615715  0  4.19165  0
C  C46  1  0.72000565  0.16010915  0.17546912  1  0  0.715331  0  3.852408  0  0  0.670909  0  4.158945  0  0  0.705175  0  4.152999  0  0  0.227992  0.647186  0  4.162191  0
C  C47  1  0.27999792  0.83989275  0.82453042  1  0  0.715275  0  3.852645  0  0  0.670799  0  4.15926  0  0  0.705067  0  4.153301  0  0  0.227919  0.647064  0  4.162521  0
C  C48  1  0.87902378  0.09892845  0.09963314  1  0  -0.155439  0  3.639947  0  0  -0.21713  0  3.895656  0  0  -0.216053  0  3.900558  0  0  -0.056759  -0.217843  0  3.892536  0
C  C49  1  0.12097042  0.90107601  0.90036205  1  0  -0.155568  0  3.639782  0  0  -0.217273  0  3.895561  0  0  -0.216151  0  3.900465  0  0  -0.056739  -0.217998  0  3.892443  0
C  C50  1  0.64424447  0.93584680  0.06984805  1  0  0.506865  0  3.836825  0  0  0.457645  0  4.143524  0  0  0.486515  0  4.142468  0  0  0.237702  0.438201  0  4.143662  0
C  C51  1  0.35573236  0.06416524  0.93015226  1  0  0.506725  0  3.837035  0  0  0.457743  0  4.143417  0  0  0.486613  0  4.14236  0  0  0.237933  0.438296  0  4.143555  0
C  C52  1  0.55885296  0.11704051  0.98166285  1  0  -0.134511  0  3.672038  0  0  -0.196425  0  3.934155  0  0  -0.195694  0  3.940705  0  0  -0.049178  -0.196967  0  3.929716  0
C  C53  1  0.44112846  0.88297070  0.01833548  1  0  -0.134807  0  3.672009  0  0  -0.19666  0  3.934249  0  0  -0.195933  0  3.940804  0  0  -0.049184  -0.197169  0  3.92975  0
N  N54  1  0.90085204  0.80769151  0.37083089  1  0  -0.155671  0  3.448687  0  0  -0.076343  0  3.687189  0  0  -0.095834  0  3.708381  0  0  -0.264807  -0.063203  0  3.672715  0
N  N55  1  0.09914645  0.19230530  0.62916907  1  0  -0.155601  0  3.448982  0  0  -0.076435  0  3.687406  0  0  -0.09593  0  3.708595  0  0  -0.264787  -0.063272  0  3.672941  0
N  N56  1  0.37496410  0.63734994  0.35545791  1  0  -0.175758  0  3.457568  0  0  -0.097064  0  3.699064  0  0  -0.116991  0  3.721081  0  0  -0.278621  -0.083569  0  3.683825  0
N  N57  1  0.62505248  0.36265199  0.64454064  1  0  -0.175697  0  3.457459  0  0  -0.096913  0  3.699015  0  0  -0.116828  0  3.721022  0  0  -0.278519  -0.083416  0  3.683769  0
N  N58  1  0.69271051  0.04500339  0.04953070  1  0  -0.171395  0  3.47081  0  0  -0.089077  0  3.708236  0  0  -0.108987  0  3.730897  0  0  -0.278912  -0.075605  0  3.692576  0
N  N59  1  0.30727573  0.95500614  0.95046631  1  0  -0.171188  0  3.470396  0  0  -0.089048  0  3.707996  0  0  -0.108955  0  3.730645  0  0  -0.279081  -0.075569  0  3.692332  0
O  O60  1  0.59373471  0.10184398  0.38223322  1  0  -0.720777  0  2.03919  0  0  -0.679831  0  2.304023  0  0  -0.715393  0  2.296432  0  0  -0.380641  -0.653663  0  2.307996  0
O  O61  1  0.40625868  0.89814770  0.61777226  1  0  -0.720788  0  2.038938  0  0  -0.679876  0  2.303803  0  0  -0.715442  0  2.296217  0  0  -0.380645  -0.653705  0  2.307779  0
O  O62  1  0.03974840  0.02587933  0.33475171  1  0  -0.662975  0  1.958844  0  0  -0.617014  0  2.200485  0  0  -0.649019  0  2.193389  0  0  -0.358666  -0.594003  0  2.204583  0
O  O63  1  0.96026928  0.97411827  0.66526554  1  0  -0.662971  0  1.959011  0  0  -0.617018  0  2.200656  0  0  -0.649019  0  2.193556  0  0  -0.358763  -0.59401  0  2.204758  0
O  O64  1  0.93709659  0.80763538  0.51378325  1  0  -0.614976  0  2.045399  0  0  -0.576993  0  2.310905  0  0  -0.605456  0  2.30179  0  0  -0.351625  -0.556484  0  2.316617  0
O  O65  1  0.06289489  0.19235547  0.48621788  1  0  -0.614925  0  2.045553  0  0  -0.577096  0  2.310918  0  0  -0.605561  0  2.301805  0  0  -0.351656  -0.556583  0  2.316623  0
O  O66  1  0.28568629  0.61838976  0.21681803  1  0  -0.551339  0  1.915428  0  0  -0.509872  0  2.125942  0  0  -0.529096  0  2.116196  0  0  -0.302937  -0.496683  0  2.132472  0
O  O67  1  0.71431219  0.38160704  0.78318321  1  0  -0.551411  0  1.915397  0  0  -0.509904  0  2.125978  0  0  -0.529133  0  2.116239  0  0  -0.302914  -0.496707  0  2.132493  0
O  O68  1  0.21667962  0.42263097  0.40112546  1  0  -0.675234  0  1.956836  0  0  -0.632123  0  2.203023  0  0  -0.662239  0  2.198077  0  0  -0.351115  -0.610581  0  2.20563  0
O  O69  1  0.78332899  0.57737601  0.59887875  1  0  -0.675301  0  1.956509  0  0  -0.632176  0  2.202582  0  0  -0.6623  0  2.197637  0  0  -0.351194  -0.610625  0  2.205185  0
O  O70  1  0.65417585  0.33884431  0.35699506  1  0  -0.737835  0  2.079227  0  0  -0.692744  0  2.347895  0  0  -0.729117  0  2.342516  0  0  -0.373605  -0.666126  0  2.350255  0
O  O71  1  0.34582187  0.66114737  0.64301223  1  0  -0.737565  0  2.080006  0  0  -0.692401  0  2.348461  0  0  -0.728763  0  2.343081  0  0  -0.373493  -0.66579  0  2.350822  0
O  O72  1  0.86358227  0.22943889  0.20743042  1  0  -0.731416  0  2.05434  0  0  -0.685542  0  2.313974  0  0  -0.720161  0  2.305633  0  0  -0.391541  -0.660103  0  2.31857  0
O  O73  1  0.13642271  0.77055791  0.79257383  1  0  -0.731369  0  2.054248  0  0  -0.685526  0  2.31397  0  0  -0.720144  0  2.305625  0  0  -0.391521  -0.660079  0  2.31857  0
O  O74  1  0.46729350  0.13656598  0.20220754  1  0  -0.652961  0  1.987976  0  0  -0.61119  0  2.237526  0  0  -0.643003  0  2.231171  0  0  -0.356231  -0.588374  0  2.241193  0
O  O75  1  0.53270762  0.86342912  0.79779564  1  0  -0.652943  0  1.988258  0  0  -0.611128  0  2.237808  0  0  -0.642939  0  2.231449  0  0  -0.356216  -0.588309  0  2.241482  0
O  O76  1  0.76340473  0.87608152  0.12803274  1  0  -0.555346  0  1.918431  0  0  -0.524286  0  2.15133  0  0  -0.544168  0  2.143772  0  0  -0.311756  -0.510469  0  2.156078  0
O  O77  1  0.23656463  0.12393389  0.87196950  1  0  -0.555317  0  1.918713  0  0  -0.52431  0  2.151481  0  0  -0.54419  0  2.143918  0  0  -0.311791  -0.510483  0  2.156231  0
O  O78  1  0.22410724  0.39309891  0.20846930  1  0  -0.873431  0  1.819098  0  0  -0.827412  0  1.986612  0  0  -0.851068  0  1.954212  0  0  -0.613637  -0.810221  0  2.009479  0
O  O79  1  0.77591346  0.60689629  0.79152124  1  0  -0.873558  0  1.81905  0  0  -0.82752  0  1.986591  0  0  -0.851181  0  1.954179  0  0  -0.613652  -0.810331  0  2.00946  0
