# generated using pymatgen
data_ZnH16C22(NO3)2
_symmetry_space_group_name_H-M   'P 1'
_cell_length_a   7.93832467
_cell_length_b   7.93806076
_cell_length_c   16.43135839
_cell_angle_alpha   99.61987531
_cell_angle_beta   99.61897609
_cell_angle_gamma   108.04343726
_symmetry_Int_Tables_number   1
_chemical_formula_structural   ZnH16C22(NO3)2
_chemical_formula_sum   'Zn2 H32 C44 N4 O12'
_cell_volume   943.83427823
_cell_formula_units_Z   2
loop_
 _symmetry_equiv_pos_site_id
 _symmetry_equiv_pos_as_xyz
  1  'x, y, z'
loop_
 _atom_site_type_symbol
 _atom_site_label
 _atom_site_symmetry_multiplicity
 _atom_site_fract_x
 _atom_site_fract_y
 _atom_site_fract_z
 _atom_site_occupancy
 _atom_site_hle17_bader_spin_density
 _atom_site_hle17_ddec_charge
 _atom_site_hle17_ddec_spin_density
 _atom_site_hle17_ddec_sum_bond_order
 _atom_site_hle17_magmom
 _atom_site_hse06_10hf_bader_spin_density
 _atom_site_hse06_10hf_ddec_charge
 _atom_site_hse06_10hf_ddec_spin_density
 _atom_site_hse06_10hf_ddec_sum_bond_order
 _atom_site_hse06_10hf_magmom
 _atom_site_hse06_bader_spin_density
 _atom_site_hse06_ddec_charge
 _atom_site_hse06_ddec_spin_density
 _atom_site_hse06_ddec_sum_bond_order
 _atom_site_hse06_magmom
 _atom_site_pbe_bader_spin_density
 _atom_site_pbe_cm5_charge
 _atom_site_pbe_ddec_charge
 _atom_site_pbe_ddec_spin_density
 _atom_site_pbe_ddec_sum_bond_order
 _atom_site_pbe_magmom
Zn  Zn0  1  0.48885247  0.48849447  0.99987246  1  0  1.137067  0  1.736178  0  0  0.96405  0  2.215018  0  0  1.017838  0  2.146084  0  0  0.684324  0.92597  0  2.262729  0
Zn  Zn1  1  0.73849731  0.23886406  0.49987851  1  0  1.137272  0  1.735931  0  0  0.964262  0  2.214736  0  0  1.01805  0  2.145804  0  0  0.684348  0.926183  0  2.262455  0
H  H2  1  0.49637531  0.47961180  0.18498089  1  0  0.126139  0  0.961292  0  0  0.136799  0  1.022344  0  0  0.140863  0  1.021048  0  0  0.109135  0.133938  0  1.023433  0
H  H3  1  0.29525452  0.31060209  0.81440463  1  0  0.126736  0  0.959664  0  0  0.137818  0  1.02012  0  0  0.141802  0  1.018947  0  0  0.109333  0.135007  0  1.021143  0
H  H4  1  0.56057168  0.04526820  0.31440263  1  0  0.126764  0  0.95961  0  0  0.13781  0  1.020127  0  0  0.141795  0  1.01895  0  0  0.109301  0.134997  0  1.021152  0
H  H5  1  0.72960016  0.24639965  0.68497650  1  0  0.126235  0  0.961153  0  0  0.136824  0  1.022291  0  0  0.140888  0  1.020994  0  0  0.109166  0.133963  0  1.023385  0
H  H6  1  0.59736352  0.54721410  0.34238412  1  0  0.114189  0  0.951528  0  0  0.124632  0  1.011798  0  0  0.12782  0  1.0077  0  0  0.129715  0.122266  0  1.014706  0
H  H7  1  0.20547968  0.25488188  0.65703570  1  0  0.115014  0  0.952213  0  0  0.125614  0  1.012422  0  0  0.128855  0  1.008234  0  0  0.131139  0.123179  0  1.015452  0
H  H8  1  0.50486274  0.95547439  0.15703320  1  0  0.114975  0  0.951984  0  0  0.125643  0  1.012088  0  0  0.128912  0  1.007862  0  0  0.131139  0.123199  0  1.015151  0
H  H9  1  0.79719968  0.34738239  0.84238097  1  0  0.114048  0  0.951613  0  0  0.124507  0  1.011884  0  0  0.127693  0  1.007789  0  0  0.129718  0.122145  0  1.014786  0
H  H10  1  0.15799634  0.02730309  0.42353444  1  0  0.112068  0  0.973042  0  0  0.12216  0  1.032854  0  0  0.12519  0  1.032189  0  0  0.107214  0.119961  0  1.033441  0
H  H11  1  0.60432210  0.73546850  0.57667926  1  0  0.112253  0  0.973146  0  0  0.122267  0  1.03288  0  0  0.125286  0  1.032219  0  0  0.108155  0.120098  0  1.033456  0
H  H12  1  0.98549381  0.35430747  0.07668591  1  0  0.112137  0  0.973072  0  0  0.122123  0  1.032851  0  0  0.125142  0  1.032187  0  0  0.10811  0.119953  0  1.033426  0
H  H13  1  0.27732385  0.90801149  0.92354462  1  0  0.112228  0  0.972707  0  0  0.122264  0  1.032609  0  0  0.125299  0  1.031935  0  0  0.107272  0.120063  0  1.033199  0
H  H14  1  0.35704679  0.20979490  0.34750250  1  0  0.092428  0  0.983053  0  0  0.102652  0  1.045047  0  0  0.105252  0  1.043573  0  0  0.099752  0.100666  0  1.046253  0
H  H15  1  0.86258577  0.01077042  0.65310479  1  0  0.092275  0  0.982617  0  0  0.10199  0  1.045035  0  0  0.10458  0  1.04358  0  0  0.099629  0.100079  0  1.046111  0
H  H16  1  0.26079522  0.61255330  0.15312812  1  0  0.092312  0  0.982824  0  0  0.102054  0  1.04518  0  0  0.104645  0  1.043722  0  0  0.099734  0.100142  0  1.046252  0
H  H17  1  0.45981587  0.10705898  0.84750862  1  0  0.092409  0  0.983152  0  0  0.102664  0  1.045118  0  0  0.105278  0  1.043627  0  0  0.09978  0.100677  0  1.04633  0
H  H18  1  0.28057205  0.14359693  0.18902391  1  0  0.093342  0  0.944718  0  0  0.106378  0  1.000409  0  0  0.109217  0  0.999866  0  0  0.102819  0.104307  0  1.00097  0
H  H19  1  0.95385248  0.09279914  0.81162689  1  0  0.094092  0  0.946057  0  0  0.106599  0  1.00232  0  0  0.109483  0  1.001709  0  0  0.102145  0.104509  0  1.002903  0
H  H20  1  0.34279396  0.70382210  0.31164735  1  0  0.094045  0  0.946047  0  0  0.106664  0  1.002197  0  0  0.109548  0  1.001586  0  0  0.102116  0.104569  0  1.002778  0
H  H21  1  0.39360946  0.03058379  0.68902989  1  0  0.093313  0  0.944832  0  0  0.106367  0  1.000493  0  0  0.109204  0  0.999956  0  0  0.102799  0.104297  0  1.001058  0
H  H22  1  0.98964249  0.89686946  0.10787902  1  0  0.100475  0  0.946498  0  0  0.11226  0  1.005778  0  0  0.115618  0  1.002846  0  0  0.105974  0.109722  0  1.008057  0
H  H23  1  0.78832061  0.88235677  0.89238912  1  0  0.101731  0  0.944721  0  0  0.113266  0  1.004349  0  0  0.116567  0  1.001463  0  0  0.10719  0.110776  0  1.006582  0
H  H24  1  0.13230347  0.53830812  0.39239908  1  0  0.101712  0  0.944733  0  0  0.113303  0  1.004314  0  0  0.116599  0  1.001444  0  0  0.107325  0.110855  0  1.006495  0
H  H25  1  0.14687430  0.73965112  0.60788435  1  0  0.100251  0  0.94672  0  0  0.112143  0  1.005898  0  0  0.115495  0  1.002976  0  0  0.105959  0.109609  0  1.008175  0
H  H26  1  0.79282909  0.66430111  0.45880769  1  0  0.133377  0  0.935742  0  0  0.144303  0  0.997985  0  0  0.147041  0  0.996435  0  0  0.12533  0.142282  0  0.999249  0
H  H27  1  0.20532113  0.33505514  0.54097455  1  0  0.133938  0  0.935174  0  0  0.144951  0  0.996817  0  0  0.147692  0  0.995243  0  0  0.125535  0.142941  0  0.998092  0
H  H28  1  0.58501548  0.95531496  0.04098229  1  0  0.133927  0  0.934982  0  0  0.14491  0  0.996736  0  0  0.147651  0  0.995178  0  0  0.125504  0.142902  0  0.998011  0
H  H29  1  0.91430435  0.54282387  0.95880785  1  0  0.133413  0  0.935731  0  0  0.144327  0  0.997973  0  0  0.147066  0  0.99642  0  0  0.125312  0.142309  0  0.999243  0
H  H30  1  0.02594996  0.77799704  0.46107912  1  0  0.103495  0  0.922993  0  0  0.116206  0  0.98403  0  0  0.118248  0  0.981787  0  0  0.116651  0.114702  0  0.985708  0
H  H31  1  0.31731694  0.56593576  0.53889581  1  0  0.103299  0  0.922866  0  0  0.115623  0  0.983937  0  0  0.117716  0  0.981628  0  0  0.116464  0.114086  0  0.985666  0
H  H32  1  0.81589647  0.06726177  0.03889420  1  0  0.103283  0  0.922948  0  0  0.115665  0  0.984028  0  0  0.117761  0  0.981717  0  0  0.116506  0.114129  0  0.985753  0
H  H33  1  0.02801832  0.77595475  0.96109098  1  0  0.103617  0  0.922911  0  0  0.116329  0  0.983905  0  0  0.118371  0  0.98166  0  0  0.116698  0.114823  0  0.985581  0
C  C34  1  0.73530961  0.68840305  0.17040838  1  0  0.406375  0  3.863235  0  0  0.382339  0  4.128628  0  0  0.408211  0  4.135351  0  0  0.116261  0.365176  0  4.123372  0
C  C35  1  0.51805076  0.56482937  0.82936415  1  0  0.407212  0  3.86151  0  0  0.382278  0  4.12762  0  0  0.408182  0  4.134312  0  0  0.116918  0.365098  0  4.122377  0
C  C36  1  0.81480618  0.26805232  0.32936958  1  0  0.407345  0  3.861479  0  0  0.382307  0  4.127729  0  0  0.408209  0  4.134428  0  0  0.116906  0.365126  0  4.122485  0
C  C37  1  0.93840294  0.48532299  0.67040655  1  0  0.406759  0  3.863123  0  0  0.382601  0  4.128667  0  0  0.408468  0  4.135384  0  0  0.116399  0.365436  0  4.123419  0
C  C38  1  0.62494127  0.58732593  0.21744226  1  0  -0.291532  0  3.74919  0  0  -0.315614  0  4.023112  0  0  -0.332564  0  4.041957  0  0  -0.118957  -0.304675  0  4.010399  0
C  C39  1  0.37028704  0.40721459  0.78213283  1  0  -0.291989  0  3.747177  0  0  -0.31623  0  4.021813  0  0  -0.33313  0  4.040667  0  0  -0.119787  -0.305319  0  4.009061  0
C  C40  1  0.65718294  0.12028398  0.28212626  1  0  -0.292146  0  3.7472  0  0  -0.316363  0  4.021857  0  0  -0.333277  0  4.040745  0  0  -0.119869  -0.305449  0  4.009102  0
C  C41  1  0.83732792  0.37496786  0.71744957  1  0  -0.291997  0  3.749609  0  0  -0.315988  0  4.023659  0  0  -0.332939  0  4.042513  0  0  -0.119119  -0.305051  0  4.010953  0
C  C42  1  0.67919255  0.62295618  0.30452374  1  0  0.127503  0  3.655255  0  0  0.080939  0  3.916621  0  0  0.096532  0  3.929152  0  0  0.060578  0.070984  0  3.907837  0
C  C43  1  0.31881383  0.37470553  0.69507732  1  0  0.12725  0  3.654332  0  0  0.080571  0  3.915745  0  0  0.096185  0  3.928174  0  0  0.059936  0.070603  0  3.907028  0
C  C44  1  0.62469141  0.06883017  0.19508102  1  0  0.127371  0  3.654682  0  0  0.080695  0  3.915982  0  0  0.096294  0  3.928428  0  0  0.060058  0.070722  0  3.907258  0
C  C45  1  0.87295315  0.42919596  0.80451905  1  0  0.127798  0  3.655417  0  0  0.081233  0  3.916779  0  0  0.096823  0  3.929312  0  0  0.060655  0.071273  0  3.908003  0
C  C46  1  0.95497067  0.85898353  0.30877897  1  0  0.171193  0  3.742204  0  0  0.157383  0  3.984295  0  0  0.166187  0  4.007319  0  0  0.110567  0.151752  0  3.968687  0
C  C47  1  0.55013956  0.64699771  0.69124030  1  0  0.171415  0  3.740999  0  0  0.155837  0  3.985221  0  0  0.164595  0  4.008315  0  0  0.109354  0.150243  0  3.969561  0
C  C48  1  0.89699752  0.30013790  0.19124418  1  0  0.171285  0  3.741076  0  0  0.155882  0  3.985026  0  0  0.164636  0  4.008119  0  0  0.109375  0.150288  0  3.969365  0
C  C49  1  0.10899841  0.70497448  0.80878535  1  0  0.171161  0  3.74243  0  0  0.157474  0  3.984382  0  0  0.166275  0  4.007399  0  0  0.110676  0.151839  0  3.968776  0
C  C50  1  0.11952215  0.99784336  0.35453476  1  0  -0.16093  0  3.713947  0  0  -0.17889  0  3.964058  0  0  -0.186145  0  3.985569  0  0  -0.092203  -0.174221  0  3.949556  0
C  C51  1  0.64348678  0.76593799  0.64567440  1  0  -0.16353  0  3.714816  0  0  -0.180993  0  3.965797  0  0  -0.188216  0  3.987275  0  0  -0.095687  -0.176375  0  3.951354  0
C  C52  1  0.01594324  0.39346958  0.14568565  1  0  -0.163233  0  3.714717  0  0  -0.180708  0  3.965646  0  0  -0.187928  0  3.987119  0  0  -0.095587  -0.176092  0  3.951202  0
C  C53  1  0.24786164  0.86953196  0.85454223  1  0  -0.161213  0  3.713906  0  0  -0.179171  0  3.964035  0  0  -0.186427  0  3.985542  0  0  -0.092319  -0.1745  0  3.949534  0
C  C54  1  0.23306141  0.09934874  0.31128369  1  0  -0.038556  0  3.754658  0  0  -0.054132  0  4.002918  0  0  -0.051955  0  4.02346  0  0  -0.086205  -0.055141  0  3.988791  0
C  C55  1  0.78805211  0.92287303  0.68913825  1  0  -0.03585  0  3.754378  0  0  -0.050755  0  4.00209  0  0  -0.048531  0  4.022586  0  0  -0.08307  -0.051842  0  3.988011  0
C  C56  1  0.17287927  0.53802524  0.18915181  1  0  -0.036035  0  3.754435  0  0  -0.050988  0  4.002225  0  0  -0.04876  0  4.022712  0  0  -0.083192  -0.052075  0  3.988142  0
C  C57  1  0.34936842  0.98307057  0.81129512  1  0  -0.038444  0  3.754481  0  0  -0.054045  0  4.002724  0  0  -0.05188  0  4.02327  0  0  -0.086201  -0.055058  0  3.988602  0
C  C58  1  0.18901628  0.06391112  0.22217040  1  0  -0.076588  0  3.764611  0  0  -0.090139  0  4.017991  0  0  -0.095866  0  4.04083  0  0  -0.089696  -0.086463  0  4.002447  0
C  C59  1  0.84131741  0.96788368  0.77828441  1  0  -0.076002  0  3.763366  0  0  -0.089023  0  4.016186  0  0  -0.094773  0  4.039008  0  0  -0.087426  -0.085342  0  4.000691  0
C  C60  1  0.21787853  0.59129589  0.27830175  1  0  -0.076089  0  3.763354  0  0  -0.0892  0  4.016269  0  0  -0.09495  0  4.039089  0  0  -0.087507  -0.085514  0  4.000778  0
C  C61  1  0.31392344  0.93901911  0.72217096  1  0  -0.076637  0  3.764417  0  0  -0.090201  0  4.017837  0  0  -0.095933  0  4.040684  0  0  -0.089716  -0.086523  0  4.002295  0
C  C62  1  0.02816578  0.92832063  0.17692908  1  0  -0.050687  0  3.724447  0  0  -0.078106  0  3.979008  0  0  -0.074944  0  3.997181  0  0  -0.079798  -0.07984  0  3.966652  0
C  C63  1  0.75093222  0.85199043  0.82334359  1  0  -0.05328  0  3.721717  0  0  -0.080955  0  3.977063  0  0  -0.077765  0  3.995227  0  0  -0.08241  -0.082705  0  3.964715  0
C  C64  1  0.10195955  0.50091315  0.32335240  1  0  -0.053128  0  3.722012  0  0  -0.080896  0  3.977507  0  0  -0.077712  0  3.995682  0  0  -0.082494  -0.08268  0  3.965141  0
C  C65  1  0.17832942  0.77816949  0.67693461  1  0  -0.050418  0  3.724479  0  0  -0.077928  0  3.979084  0  0  -0.074777  0  3.997259  0  0  -0.079749  -0.079657  0  3.966715  0
C  C66  1  0.90743323  0.82562215  0.21891831  1  0  -0.107513  0  3.75886  0  0  -0.091144  0  3.991866  0  0  -0.102223  0  4.017268  0  0  -0.016097  -0.084194  0  3.974965  0
C  C67  1  0.60649169  0.68908197  0.78110917  1  0  -0.108089  0  3.757852  0  0  -0.090653  0  3.990952  0  0  -0.101722  0  4.016298  0  0  -0.016108  -0.083728  0  3.9741  0
C  C68  1  0.93905953  0.35648740  0.28111471  1  0  -0.108044  0  3.758131  0  0  -0.090623  0  3.991191  0  0  -0.101674  0  4.016509  0  0  -0.016106  -0.083699  0  3.974349  0
C  C69  1  0.07563375  0.65744217  0.71892785  1  0  -0.107573  0  3.758944  0  0  -0.09124  0  3.992057  0  0  -0.102292  0  4.017408  0  0  -0.016172  -0.084287  0  3.975154  0
C  C70  1  0.88754445  0.77948698  0.44204831  1  0  -0.161513  0  3.592387  0  0  -0.224171  0  3.842036  0  0  -0.224263  0  3.847605  0  0  -0.052866  -0.223963  0  3.838168  0
C  C71  1  0.33747576  0.44634217  0.55781027  1  0  -0.162678  0  3.59278  0  0  -0.224068  0  3.841022  0  0  -0.224255  0  3.84674  0  0  -0.051706  -0.223829  0  3.8371  0
C  C72  1  0.69632414  0.08745248  0.05780907  1  0  -0.162275  0  3.592526  0  0  -0.224021  0  3.841278  0  0  -0.224221  0  3.846986  0  0  -0.051672  -0.223778  0  3.837351  0
C  C73  1  0.02948712  0.63754116  0.94205111  1  0  -0.1618  0  3.592327  0  0  -0.224391  0  3.841993  0  0  -0.224476  0  3.847551  0  0  -0.052874  -0.224186  0  3.838128  0
C  C74  1  0.87690967  0.95773575  0.49014550  1  0  0.673801  0  3.880225  0  0  0.62818  0  4.183653  0  0  0.661052  0  4.176823  0  0  0.205254  0.605863  0  4.187462  0
C  C75  1  0.46756107  0.38737367  0.50979832  1  0  0.677323  0  3.876253  0  0  0.630928  0  4.180126  0  0  0.663785  0  4.173328  0  0  0.208805  0.608627  0  4.183906  0
C  C76  1  0.63737635  0.21755586  0.00979892  1  0  0.676969  0  3.876437  0  0  0.630741  0  4.180181  0  0  0.663604  0  4.173377  0  0  0.208777  0.608444  0  4.183954  0
C  C77  1  0.20773123  0.62688016  0.99014350  1  0  0.673734  0  3.880507  0  0  0.627944  0  4.184184  0  0  0.660813  0  4.177358  0  0  0.205254  0.605626  0  4.187987  0
N  N78  1  0.83794915  0.75302045  0.34967849  1  0  -0.069035  0  3.529843  0  0  0.019186  0  3.745652  0  0  0.00155  0  3.771157  0  0  -0.231394  0.030725  0  3.728208  0
N  N79  1  0.40344383  0.48893710  0.65015792  1  0  -0.06837  0  3.52831  0  0  0.01997  0  3.744165  0  0  0.002333  0  3.769718  0  0  -0.231409  0.031522  0  3.72668  0
N  N80  1  0.73891488  0.15343842  0.15016094  1  0  -0.068627  0  3.528439  0  0  0.019764  0  3.744328  0  0  0.002136  0  3.76986  0  0  -0.231523  0.031319  0  3.72684  0
N  N81  1  0.00302402  0.58795380  0.84968399  1  0  -0.068783  0  3.529673  0  0  0.019362  0  3.745498  0  0  0.001725  0  3.771002  0  0  -0.231425  0.030902  0  3.728059  0
O  O82  1  0.69323929  0.66968413  0.08969046  1  0  -0.586539  0  2.096303  0  0  -0.516092  0  2.372214  0  0  -0.544567  0  2.35912  0  0  -0.311639  -0.496191  0  2.380505  0
O  O83  1  0.58000209  0.60318804  0.91010312  1  0  -0.587326  0  2.095376  0  0  -0.515924  0  2.370935  0  0  -0.544327  0  2.357675  0  0  -0.310727  -0.496054  0  2.379325  0
O  O84  1  0.85317639  0.32999095  0.41010547  1  0  -0.587311  0  2.095578  0  0  -0.515862  0  2.371215  0  0  -0.54427  0  2.357967  0  0  -0.310604  -0.495996  0  2.379609  0
O  O85  1  0.91967959  0.44327396  0.58969787  1  0  -0.586758  0  2.096639  0  0  -0.516216  0  2.372554  0  0  -0.544693  0  2.359469  0  0  -0.311687  -0.49632  0  2.380851  0
O  O86  1  0.72404536  0.98249663  0.46746629  1  0  -0.662298  0  1.998544  0  0  -0.591655  0  2.265405  0  0  -0.621023  0  2.248276  0  0  -0.335453  -0.571046  0  2.276484  0
O  O87  1  0.51472470  0.25707184  0.53246044  1  0  -0.663319  0  1.996998  0  0  -0.59278  0  2.264546  0  0  -0.622084  0  2.247344  0  0  -0.33793  -0.572176  0  2.275605  0
O  O88  1  0.50707195  0.26472679  0.03245150  1  0  -0.66321  0  1.997159  0  0  -0.592668  0  2.264626  0  0  -0.621983  0  2.247442  0  0  -0.337916  -0.572061  0  2.275673  0
O  O89  1  0.23248981  0.47400774  0.96744658  1  0  -0.662171  0  1.998824  0  0  -0.591447  0  2.26569  0  0  -0.620815  0  2.248578  0  0  -0.33548  -0.570836  0  2.27676  0
O  O90  1  0.01067963  0.06249110  0.54723523  1  0  -0.617957  0  1.938985  0  0  -0.57595  0  2.168981  0  0  -0.598676  0  2.159325  0  0  -0.318095  -0.559982  0  2.174996  0
O  O91  1  0.51544740  0.46401950  0.45277953  1  0  -0.620484  0  1.93995  0  0  -0.578026  0  2.170418  0  0  -0.600744  0  2.160749  0  0  -0.319524  -0.562116  0  2.176542  0
O  O92  1  0.71404450  0.26545027  0.95278499  1  0  -0.620387  0  1.939862  0  0  -0.57793  0  2.170223  0  0  -0.600647  0  2.160555  0  0  -0.319536  -0.562026  0  2.17635  0
O  O93  1  0.31249084  0.76063702  0.04723670  1  0  -0.618009  0  1.939327  0  0  -0.575852  0  2.169204  0  0  -0.598631  0  2.159656  0  0  -0.31813  -0.559883  0  2.175222  0
