# generated using pymatgen
data_CuH32C27IN4
_symmetry_space_group_name_H-M   'P 1'
_cell_length_a   9.95204266
_cell_length_b   12.12373860
_cell_length_c   12.96200000
_cell_angle_alpha   103.46290703
_cell_angle_beta   111.43059100
_cell_angle_gamma   109.07486492
_symmetry_Int_Tables_number   1
_chemical_formula_structural   CuH32C27IN4
_chemical_formula_sum   'Cu2 H64 C54 I2 N8'
_cell_volume   1260.79328017
_cell_formula_units_Z   2
loop_
 _symmetry_equiv_pos_site_id
 _symmetry_equiv_pos_as_xyz
  1  'x, y, z'
loop_
 _atom_site_type_symbol
 _atom_site_label
 _atom_site_symmetry_multiplicity
 _atom_site_fract_x
 _atom_site_fract_y
 _atom_site_fract_z
 _atom_site_occupancy
 _atom_site_hle17_bader_spin_density
 _atom_site_hle17_ddec_charge
 _atom_site_hle17_ddec_spin_density
 _atom_site_hle17_ddec_sum_bond_order
 _atom_site_hle17_magmom
 _atom_site_hse06_10hf_bader_spin_density
 _atom_site_hse06_10hf_ddec_charge
 _atom_site_hse06_10hf_ddec_spin_density
 _atom_site_hse06_10hf_ddec_sum_bond_order
 _atom_site_hse06_10hf_magmom
 _atom_site_hse06_bader_spin_density
 _atom_site_hse06_ddec_charge
 _atom_site_hse06_ddec_spin_density
 _atom_site_hse06_ddec_sum_bond_order
 _atom_site_hse06_magmom
 _atom_site_pbe_bader_charge
 _atom_site_pbe_bader_spin_density
 _atom_site_pbe_cm5_charge
 _atom_site_pbe_ddec_charge
 _atom_site_pbe_ddec_spin_density
 _atom_site_pbe_ddec_sum_bond_order
 _atom_site_pbe_magmom
Cu  Cu0  1  0.12872251  0.11588195  0.55957036  1  0  0.307318  0  2.11513  0  0  0.202904  0  2.60555  0  0  0.20945  0  2.554052  0  0.521253  0  0.359068  0.202535  0  2.636755  0
Cu  Cu1  1  0.87127796  0.88411796  0.44042929  1  0  0.307278  0  2.115218  0  0  0.202867  0  2.605646  0  0  0.209363  0  2.554133  0  0.520718  0  0.359069  0.202504  0  2.636864  0
H  H2  1  0.06713258  0.28556473  0.43637733  1  0  0.063763  0  0.972209  0  0  0.071681  0  1.041218  0  0  0.074061  0  1.039074  0  0.080234  0  0.100121  0.069843  0  1.042917  0
H  H3  1  0.93286573  0.71443517  0.56362325  1  0  0.063825  0  0.972138  0  0  0.071741  0  1.041145  0  0  0.074122  0  1.039  0  0.080035  0  0.100132  0.069902  0  1.04285  0
H  H4  1  0.19699817  0.41647194  0.34562573  1  0  0.101347  0  0.998179  0  0  0.110013  0  1.06277  0  0  0.111273  0  1.065971  0  0.106385  0  0.100429  0.109107  0  1.060724  0
H  H5  1  0.80300069  0.58352892  0.65437521  1  0  0.101304  0  0.99821  0  0  0.110008  0  1.062771  0  0  0.111267  0  1.065974  0  0.106426  0  0.100436  0.109104  0  1.060724  0
H  H6  1  0.54856379  0.27130235  0.42435302  1  0  0.104083  0  0.945442  0  0  0.116506  0  1.003552  0  0  0.119303  0  1.003471  0  0.069331  0  0.103976  0.114084  0  1.00451  0
H  H7  1  0.45143508  0.72869850  0.57564715  1  0  0.104102  0  0.945431  0  0  0.116516  0  1.00355  0  0  0.119313  0  1.00347  0  0.069516  0  0.103992  0.114095  0  1.004508  0
H  H8  1  0.40529354  0.14782015  0.51346796  1  0  0.06093  0  0.971174  0  0  0.066865  0  1.043525  0  0  0.070157  0  1.03999  0  0.072607  0  0.098154  0.064011  0  1.047147  0
H  H9  1  0.59470696  0.85218166  0.48653288  1  0  0.060943  0  0.971195  0  0  0.066873  0  1.043553  0  0  0.070168  0  1.040018  0  0.072578  0  0.098149  0.064021  0  1.047179  0
H  H10  1  0.59232292  0.45483797  0.36106533  1  0  0.071889  0  0.948928  0  0  0.089624  0  1.00936  0  0  0.090507  0  1.009585  0  0.038745  0  0.091486  0.088936  0  1.009344  0
H  H11  1  0.40767539  0.54516193  0.63893602  1  0  0.071883  0  0.948912  0  0  0.089613  0  1.009361  0  0  0.090495  0  1.009584  0  0.038724  0  0.091478  0.088926  0  1.009347  0
H  H12  1  0.45089472  0.51739529  0.33294704  1  0  0.089185  0  0.930465  0  0  0.104443  0  0.992368  0  0  0.105729  0  0.99295  0  0.050952  0  0.095036  0.103472  0  0.992156  0
H  H13  1  0.54910359  0.48260461  0.66705432  1  0  0.089188  0  0.930458  0  0  0.104447  0  0.992369  0  0  0.105733  0  0.992947  0  0.05097  0  0.095041  0.103477  0  0.992156  0
H  H14  1  0.38864388  0.25965625  0.16549054  1  0  0.064301  0  0.945372  0  0  0.082437  0  1.008737  0  0  0.082771  0  1.010344  0  0.037931  0  0.087126  0.082088  0  1.007746  0
H  H15  1  0.61135606  0.74034461  0.83451072  1  0  0.064253  0  0.945371  0  0  0.082395  0  1.008748  0  0  0.082728  0  1.01036  0  0.037917  0  0.087108  0.082047  0  1.007757  0
H  H16  1  0.25448616  0.32844806  0.13976728  1  0  0.063822  0  0.944153  0  0  0.083222  0  1.006358  0  0  0.083591  0  1.007518  0  0.052187  0  0.08814  0.082558  0  1.006111  0
H  H17  1  0.74551162  0.67155280  0.86023336  1  0  0.063781  0  0.944178  0  0  0.083216  0  1.006354  0  0  0.083585  0  1.007513  0  0.052229  0  0.08814  0.082551  0  1.006108  0
H  H18  1  0.46139846  0.51758101  0.14441657  1  0  0.081426  0  0.949736  0  0  0.095273  0  1.017408  0  0  0.096585  0  1.01791  0  0.063281  0  0.091452  0.094012  0  1.017462  0
H  H19  1  0.53860312  0.48242080  0.85558457  1  0  0.081391  0  0.949774  0  0  0.095231  0  1.017435  0  0  0.096546  0  1.017938  0  0.063328  0  0.091451  0.093974  0  1.017489  0
H  H20  1  0.59642837  0.44891968  0.16728454  1  0  0.079959  0  0.940488  0  0  0.097983  0  1.000611  0  0  0.098434  0  1.002013  0  0.061012  0  0.093252  0.096854  0  1.000854  0
H  H21  1  0.40357047  0.55107927  0.83271445  1  0  0.079954  0  0.940489  0  0  0.097962  0  1.00062  0  0  0.098416  0  1.002021  0  0.06101  0  0.09325  0.096834  0  1.000863  0
H  H22  1  0.19253909  0.40656399  0.94511884  1  0  0.100793  0  0.951166  0  0  0.113164  0  1.011143  0  0  0.115875  0  1.011309  0  0.058017  0  0.104124  0.111242  0  1.011231  0
H  H23  1  0.80746031  0.59343591  0.05488051  1  0  0.100813  0  0.951217  0  0  0.113164  0  1.011213  0  0  0.115875  0  1.011378  0  0.058018  0  0.104121  0.111243  0  1.011301  0
H  H24  1  0.06376808  0.27876069  0.72524949  1  0  0.064692  0  0.995917  0  0  0.069667  0  1.069416  0  0  0.071844  0  1.068045  0  0.100502  0  0.096439  0.067943  0  1.07058  0
H  H25  1  0.93623239  0.72123921  0.27475016  1  0  0.06469  0  0.995929  0  0  0.069661  0  1.06943  0  0  0.071837  0  1.068057  0  0.10049  0  0.096439  0.067937  0  1.070597  0
H  H26  1  0.41863736  0.15888909  0.77256410  1  0  0.070159  0  0.962121  0  0  0.077309  0  1.031239  0  0  0.079981  0  1.028707  0  0.078551  0  0.104525  0.075246  0  1.033273  0
H  H27  1  0.58136419  0.84111081  0.22743662  1  0  0.07017  0  0.962108  0  0  0.077339  0  1.031215  0  0  0.080011  0  1.028684  0  0.078565  0  0.104553  0.075277  0  1.033253  0
H  H28  1  0.56424435  0.28326751  0.99551803  1  0  0.100079  0  0.965369  0  0  0.110696  0  1.029075  0  0  0.113367  0  1.029157  0  0.088268  0  0.102871  0.108606  0  1.029558  0
H  H29  1  0.43575612  0.71673239  0.00448316  1  0  0.10008  0  0.965367  0  0  0.110717  0  1.029045  0  0  0.113388  0  1.029127  0  0.088296  0  0.102874  0.108629  0  1.029529  0
H  H30  1  0.49909348  0.02193882  0.62608287  1  0  0.277141  0  0.96516  0  0  0.263794  0  1.034756  0  0  0.269653  0  1.030471  0  0.428595  0  0.261093  0.258654  0  1.039681  0
H  H31  1  0.50090646  0.97806203  0.37391838  1  0  0.277123  0  0.965128  0  0  0.263774  0  1.034732  0  0  0.269634  0  1.030445  0  0.428596  0  0.261089  0.258636  0  1.039655  0
H  H32  1  0.68648207  0.07984646  0.63800043  1  0  0.281868  0  0.941452  0  0  0.267759  0  1.012093  0  0  0.273649  0  1.007556  0  0.414878  0  0.271345  0.262912  0  1.016392  0
H  H33  1  0.31351734  0.92015534  0.36199934  1  0  0.281829  0  0.941488  0  0  0.267723  0  1.012135  0  0  0.273612  0  1.007601  0  0.414814  0  0.271326  0.262873  0  1.016436  0
H  H34  1  0.82380065  0.06131918  0.19078510  1  0  0.099597  0  0.958375  0  0  0.119265  0  1.02466  0  0  0.120349  0  1.024954  0  0.036011  0  0.08175  0.118335  0  1.024548  0
H  H35  1  0.17619927  0.93867977  0.80921264  1  0  0.099604  0  0.958358  0  0  0.119254  0  1.024669  0  0  0.120343  0  1.024959  0  0.035968  0  0.081728  0.118323  0  1.024558  0
H  H36  1  0.00992038  0.09150971  0.18921214  1  0  0.106084  0  0.956474  0  0  0.127366  0  1.016555  0  0  0.128455  0  1.017645  0  0.025951  0  0.08629  0.126542  0  1.015709  0
H  H37  1  0.99007954  0.90848924  0.81078560  1  0  0.106041  0  0.956518  0  0  0.127363  0  1.016563  0  0  0.128455  0  1.01765  0  0.025968  0  0.086284  0.126532  0  1.015724  0
H  H38  1  0.85570334  0.93346626  0.12672058  1  0  0.099567  0  0.972047  0  0  0.120574  0  1.036132  0  0  0.12046  0  1.038933  0  0.033094  0  0.084047  0.120557  0  1.03429  0
H  H39  1  0.14429821  0.06653364  0.87327860  1  0  0.099565  0  0.971994  0  0  0.120578  0  1.036069  0  0  0.120461  0  1.038879  0  0.033083  0  0.084048  0.120561  0  1.034223  0
H  H40  1  0.56048652  0.94474854  0.97390722  1  0  0.081736  0  0.970046  0  0  0.094365  0  1.032454  0  0  0.096542  0  1.031886  0  0.043973  0  0.09289  0.092743  0  1.033084  0
H  H41  1  0.43951448  0.05525041  0.02609160  1  0  0.081706  0  0.970096  0  0  0.094364  0  1.032463  0  0  0.096541  0  1.031897  0  0.043895  0  0.092891  0.092742  0  1.033092  0
H  H42  1  0.44735422  0.96197292  0.77699116  1  0  0.088636  0  0.991177  0  0  0.09693  0  1.0595  0  0  0.099978  0  1.05875  0  0.082546  0  0.085557  0.094803  0  1.060078  0
H  H43  1  0.55264572  0.03802793  0.22300855  1  0  0.088627  0  0.991194  0  0  0.096921  0  1.059516  0  0  0.099971  0  1.058765  0  0.082537  0  0.085563  0.094796  0  1.060093  0
H  H44  1  0.93040446  0.15158028  0.82896557  1  0  0.09133  0  0.976063  0  0  0.103046  0  1.038377  0  0  0.105759  0  1.03783  0  0.048353  0  0.094454  0.100996  0  1.039102  0
H  H45  1  0.06959711  0.84842153  0.17103403  1  0  0.091355  0  0.976079  0  0  0.103082  0  1.038376  0  0  0.105793  0  1.037832  0  0.048378  0  0.09447  0.101033  0  1.039101  0
H  H46  1  0.04189100  0.13406446  0.02554658  1  0  0.085919  0  0.967628  0  0  0.09874  0  1.028495  0  0  0.101156  0  1.027884  0  0.066336  0  0.097771  0.097083  0  1.028884  0
H  H47  1  0.95811055  0.86593545  0.97445337  1  0  0.085933  0  0.967658  0  0  0.098728  0  1.028553  0  0  0.101144  0  1.027942  0  0.066307  0  0.097764  0.097072  0  1.028939  0
H  H48  1  0.68626239  0.27139283  0.76389609  1  0  0.29424  0  0.958931  0  0  0.276939  0  1.030063  0  0  0.283279  0  1.025743  0  0.490126  0  0.277243  0.272668  0  1.032711  0
H  H49  1  0.31373484  0.72860707  0.23610419  1  0  0.294256  0  0.958922  0  0  0.276955  0  1.030038  0  0  0.283295  0  1.025719  0  0.490127  0  0.277255  0.272673  0  1.032697  0
H  H50  1  0.76765479  0.38946247  0.90179406  1  0  0.287351  0  0.925881  0  0  0.278754  0  0.986406  0  0  0.283415  0  0.983834  0  0.400375  0  0.289932  0.275667  0  0.987915  0
H  H51  1  0.23234407  0.61053839  0.09820612  1  0  0.287411  0  0.925816  0  0  0.278771  0  0.986409  0  0  0.283431  0  0.983837  0  0.400434  0  0.28995  0.275684  0  0.987918  0
H  H52  1  0.23000701  0.62272451  0.64664297  1  0  0.09837  0  0.959088  0  0  0.120078  0  1.021472  0  0  0.121904  0  1.020393  0  0.00864  0  0.085553  0.11877  0  1.022344  0
H  H53  1  0.76999236  0.37727349  0.35335673  1  0  0.098408  0  0.959091  0  0  0.12012  0  1.021463  0  0  0.121953  0  1.020377  0  0.008653  0  0.085572  0.118811  0  1.022335  0
H  H54  1  0.34650815  0.73040618  0.80118820  1  0  0.101696  0  0.963167  0  0  0.124394  0  1.025256  0  0  0.125594  0  1.025474  0  0.040647  0  0.08727  0.123552  0  1.025291  0
H  H55  1  0.65349230  0.26959182  0.19881179  1  0  0.10169  0  0.963177  0  0  0.12439  0  1.025258  0  0  0.12559  0  1.025477  0  0.040947  0  0.08727  0.123548  0  1.025293  0
H  H56  1  0.19070064  0.75062971  0.69924661  1  0  0.097456  0  0.978657  0  0  0.114811  0  1.050116  0  0  0.11621  0  1.050144  0  0.040754  0  0.078608  0.113781  0  1.050128  0
H  H57  1  0.80929873  0.24936829  0.30075231  1  0  0.097476  0  0.978586  0  0  0.114836  0  1.050047  0  0  0.116232  0  1.050079  0  0.040746  0  0.078623  0.113803  0  1.050061  0
H  H58  1  0.18468469  0.73615399  0.92516511  1  0  0.08512  0  0.983651  0  0  0.09752  0  1.04436  0  0  0.099278  0  1.045008  0  0.080276  0  0.09341  0.096355  0  1.043946  0
H  H59  1  0.81531523  0.26384496  0.07483572  1  0  0.085149  0  0.983635  0  0  0.097521  0  1.044367  0  0  0.099278  0  1.045017  0  0.080289  0  0.093416  0.096356  0  1.043953  0
H  H60  1  0.98034981  0.60403246  0.96509755  1  0  0.089312  0  0.976949  0  0  0.099126  0  1.043815  0  0  0.102236  0  1.042617  0  0.068264  0  0.0938  0.09687  0  1.044981  0
H  H61  1  0.01965011  0.39596649  0.03490328  1  0  0.089349  0  0.976948  0  0  0.099154  0  1.043818  0  0  0.102262  0  1.042623  0  0.068279  0  0.093813  0.096899  0  1.044983  0
H  H62  1  0.78224880  0.29821944  0.62075059  1  0  0.088752  0  0.990556  0  0  0.097956  0  1.056525  0  0  0.10118  0  1.055597  0  0.071655  0  0.084052  0.095392  0  1.058013  0
H  H63  1  0.21775112  0.70177951  0.37925024  1  0  0.088763  0  0.990562  0  0  0.097965  0  1.056535  0  0  0.101201  0  1.055595  0  0.071662  0  0.08405  0.0954  0  1.058025  0
H  H64  1  0.98888198  0.43045812  0.58233673  1  0  0.081792  0  0.962438  0  0  0.093663  0  1.025043  0  0  0.096315  0  1.023862  0  0.049467  0  0.091104  0.09177  0  1.025821  0
H  H65  1  0.01111794  0.56954083  0.41766333  1  0  0.081798  0  0.962412  0  0  0.093665  0  1.025019  0  0  0.096315  0  1.02384  0  0.04946  0  0.091099  0.091768  0  1.025801  0
C  C66  1  0.17471759  0.28568664  0.43218480  1  0  0.120447  0  3.718065  0  0  0.093094  0  3.963514  0  0  0.099994  0  3.980045  0  0.431036  0  0.036597  0.088786  0  3.952634  0
C  C67  1  0.82527802  0.71431231  0.56781404  1  0  0.120292  0  3.718062  0  0  0.092929  0  3.96354  0  0  0.099827  0  3.980067  0  0.43121  0  0.036539  0.088616  0  3.952666  0
C  C68  1  0.24720704  0.35769094  0.38117774  1  0  -0.171964  0  3.707923  0  0  -0.186049  0  3.948246  0  0  -0.194285  0  3.970689  0  -0.019833  0  -0.086538  -0.180818  0  3.933072  0
C  C69  1  0.75278803  0.64230897  0.61882116  1  0  -0.171864  0  3.70798  0  0  -0.185992  0  3.948268  0  0  -0.194231  0  3.970713  0  -0.019742  0  -0.08658  -0.180762  0  3.933098  0
C  C70  1  0.38458835  0.35503370  0.37667133  1  0  0.155853  0  3.725846  0  0  0.170926  0  3.961286  0  0  0.177404  0  3.981965  0  -0.036972  0  0.011222  0.166794  0  3.946814  0
C  C71  1  0.61540888  0.64496620  0.62332818  1  0  0.15576  0  3.725948  0  0  0.170879  0  3.96133  0  0  0.177356  0  3.982005  0  -0.036981  0  0.011223  0.166748  0  3.946859  0
C  C72  1  0.44177566  0.27744827  0.42481690  1  0  -0.171666  0  3.713863  0  0  -0.187877  0  3.957924  0  0  -0.196145  0  3.979496  0  -0.00832  0  -0.086846  -0.182225  0  3.943398  0
C  C73  1  0.55822428  0.72255259  0.57518358  1  0  -0.17158  0  3.713949  0  0  -0.187791  0  3.957994  0  0  -0.196059  0  3.979567  0  -0.008541  0  -0.086808  -0.18214  0  3.943471  0
C  C74  1  0.36283553  0.20842502  0.47470517  1  0  0.122759  0  3.71918  0  0  0.094257  0  3.968283  0  0  0.101436  0  3.984608  0  0.460875  0  0.032389  0.089542  0  3.957513  0
C  C75  1  0.63716333  0.79157583  0.52529423  1  0  0.122677  0  3.719334  0  0  0.094168  0  3.968452  0  0  0.101344  0  3.984773  0  0.460897  0  0.032349  0.089449  0  3.95769  0
C  C76  1  0.46220550  0.42846091  0.31865776  1  0  -0.165691  0  3.711668  0  0  -0.205864  0  3.958876  0  0  -0.207736  0  3.97048  0  -0.005336  0  -0.160829  -0.20455  0  3.950843  0
C  C77  1  0.53779336  0.57153995  0.68134318  1  0  -0.165676  0  3.71168  0  0  -0.205858  0  3.958914  0  0  -0.207721  0  3.970504  0  -0.005332  0  -0.160828  -0.204546  0  3.950883  0
C  C78  1  0.38368945  0.35125548  0.18231992  1  0  -0.085171  0  3.652179  0  0  -0.123359  0  3.906867  0  0  -0.124328  0  3.920158  0  -0.051293  0  -0.158763  -0.122373  0  3.897577  0
C  C79  1  0.61630670  0.64874442  0.81767929  1  0  -0.085154  0  3.652217  0  0  -0.123396  0  3.906964  0  0  -0.124376  0  3.920276  0  -0.051325  0  -0.158793  -0.12241  0  3.897676  0
C  C80  1  0.46754204  0.42656084  0.12500877  1  0  -0.169985  0  3.709498  0  0  -0.210842  0  3.955873  0  0  -0.212813  0  3.967326  0  -0.050289  0  -0.163212  -0.208857  0  3.947687  0
C  C81  1  0.53245735  0.57343906  0.87499058  1  0  -0.169883  0  3.709437  0  0  -0.21066  0  3.955775  0  0  -0.212639  0  3.967241  0  -0.050335  0  -0.163163  -0.20868  0  3.947594  0
C  C82  1  0.38980576  0.35484989  0.99117934  1  0  0.155991  0  3.725526  0  0  0.170187  0  3.962562  0  0  0.177331  0  3.983146  0  0.023169  0  0.011348  0.165543  0  3.948  0
C  C83  1  0.61019687  0.64515001  0.00882092  1  0  0.156046  0  3.725321  0  0  0.170157  0  3.962465  0  0  0.177306  0  3.98305  0  0.023265  0  0.011349  0.165514  0  3.947905  0
C  C84  1  0.24721734  0.35227647  0.91170965  1  0  -0.171057  0  3.705102  0  0  -0.185866  0  3.949579  0  0  -0.194441  0  3.970482  0  -0.004811  0  -0.086418  -0.180336  0  3.935812  0
C  C85  1  0.75278532  0.64772534  0.08829025  1  0  -0.171091  0  3.705132  0  0  -0.185864  0  3.949619  0  0  -0.194438  0  3.970522  0  -0.004896  0  -0.086417  -0.180337  0  3.93586  0
C  C86  1  0.17449078  0.28148269  0.78837669  1  0  0.115742  0  3.718241  0  0  0.087604  0  3.965675  0  0  0.095331  0  3.981431  0  0.389745  0  0.034347  0.082547  0  3.955691  0
C  C87  1  0.82550969  0.71851721  0.21162450  1  0  0.115707  0  3.718275  0  0  0.087579  0  3.965696  0  0  0.095305  0  3.981447  0  0.389754  0  0.034327  0.08252  0  3.955719  0
C  C88  1  0.37284011  0.21547764  0.81474648  1  0  0.12633  0  3.71044  0  0  0.097322  0  3.960379  0  0  0.105548  0  3.975632  0  0.451471  0  0.037666  0.091785  0  3.950665  0
C  C89  1  0.62716036  0.78452226  0.18525471  1  0  0.126318  0  3.710389  0  0  0.097297  0  3.960329  0  0  0.105519  0  3.975581  0  0.452835  0  0.037627  0.091756  0  3.950622  0
C  C90  1  0.45247153  0.28427421  0.93912869  1  0  -0.180818  0  3.711515  0  0  -0.19528  0  3.955194  0  0  -0.203859  0  3.975751  0  -0.03309  0  -0.087691  -0.189702  0  3.941715  0
C  C91  1  0.54753110  0.71572569  0.06087234  1  0  -0.180843  0  3.711425  0  0  -0.195296  0  3.955129  0  0  -0.203876  0  3.975687  0  -0.034446  0  -0.087679  -0.189721  0  3.941654  0
C  C92  1  0.87850282  0.03138200  0.13668915  1  0  -0.326964  0  3.731685  0  0  -0.406969  0  3.967293  0  0  -0.409264  0  3.978363  0  -0.04649  0  -0.244789  -0.405035  0  3.959579  0
C  C93  1  0.12150034  0.96861695  0.86331027  1  0  -0.326951  0  3.731683  0  0  -0.406969  0  3.967265  0  0  -0.409274  0  3.978334  0  -0.046484  0  -0.24475  -0.405017  0  3.959564  0
C  C94  1  0.81027113  0.03954227  0.01596766  1  0  0.105028  0  3.791513  0  0  0.130787  0  4.028201  0  0  0.12994  0  4.052548  0  -0.033151  0  -0.027157  0.131253  0  4.011665  0
C  C95  1  0.18973150  0.96045764  0.98403183  1  0  0.105125  0  3.791492  0  0  0.130858  0  4.028205  0  0  0.130017  0  4.052544  0  -0.033103  0  -0.027185  0.131299  0  4.011707  0
C  C96  1  0.64279883  0.99104913  0.94290994  1  0  -0.130061  0  3.795782  0  0  -0.148178  0  4.041382  0  0  -0.148684  0  4.061744  0  -0.05364  0  -0.105202  -0.147543  0  4.027609  0
C  C97  1  0.35720491  0.00895268  0.05709181  1  0  -0.130121  0  3.795812  0  0  -0.148246  0  4.041406  0  0  -0.148754  0  4.061765  0  -0.05372  0  -0.105209  -0.147603  0  4.027641  0
C  C98  1  0.57832963  0.00080098  0.83201530  1  0  -0.202675  0  3.777908  0  0  -0.216531  0  4.027009  0  0  -0.222576  0  4.048614  0  -0.102019  0  -0.1169  -0.212402  0  4.012218  0
C  C99  1  0.42167247  0.99919988  0.16798579  1  0  -0.202659  0  3.777938  0  0  -0.216518  0  4.027041  0  0  -0.222564  0  4.048646  0  -0.101964  0  -0.116887  -0.212391  0  4.01225  0
C  C100  1  0.68127332  0.05984675  0.78967523  1  0  0.281725  0  3.863312  0  0  0.279414  0  4.107086  0  0  0.287463  0  4.129153  0  0.366815  0  0.07713  0.273925  0  4.091458  0
C  C101  1  0.31872770  0.94015410  0.21032478  1  0  0.281797  0  3.863279  0  0  0.27948  0  4.107063  0  0  0.287528  0  4.129131  0  0.3668  0  0.077155  0.273993  0  4.091437  0
C  C102  1  0.84884791  0.10668926  0.86100874  1  0  -0.18797  0  3.758935  0  0  -0.202731  0  4.005236  0  0  -0.207715  0  4.025801  0  -0.039181  0  -0.111511  -0.199453  0  3.991368  0
C  C103  1  0.15115419  0.89331159  0.13899158  1  0  -0.188038  0  3.758966  0  0  -0.202804  0  4.005256  0  0  -0.207792  0  4.025829  0  -0.039168  0  -0.111523  -0.199523  0  3.991382  0
C  C104  1  0.91109990  0.09646797  0.97166690  1  0  -0.110921  0  3.774516  0  0  -0.129709  0  4.019749  0  0  -0.130297  0  4.040165  0  -0.062325  0  -0.094627  -0.129068  0  4.005766  0
C  C105  1  0.08890221  0.90353289  0.02833187  1  0  -0.110943  0  3.774575  0  0  -0.129709  0  4.01981  0  0  -0.130297  0  4.040223  0  -0.062241  0  -0.094629  -0.129061  0  4.005838  0
C  C106  1  0.22386187  0.67840255  0.72330950  1  0  -0.32804  0  3.74195  0  0  -0.408601  0  3.978121  0  0  -0.410642  0  3.987721  0  -0.065665  0  -0.244547  -0.407294  0  3.97209  0
C  C107  1  0.77613805  0.32159640  0.27669055  1  0  -0.32809  0  3.741851  0  0  -0.408657  0  3.978026  0  0  -0.410703  0  3.987627  0  -0.065987  0  -0.244575  -0.407347  0  3.971996  0
C  C108  1  0.10394004  0.59440928  0.75029370  1  0  0.093097  0  3.798056  0  0  0.119467  0  4.034922  0  0  0.117535  0  4.060811  0  0.057997  0  -0.035639  0.1208  0  4.01795  0
C  C109  1  0.89606041  0.40558872  0.24970553  1  0  0.093162  0  3.797984  0  0  0.119532  0  4.034848  0  0  0.117601  0  4.060738  0  0.057993  0  -0.035642  0.120866  0  4.017875  0
C  C110  1  0.09873944  0.63912219  0.85826361  1  0  -0.120387  0  3.786592  0  0  -0.137899  0  4.029441  0  0  -0.137394  0  4.049602  0  -0.106404  0  -0.10275  -0.138516  0  4.015938  0
C  C111  1  0.90126048  0.36087676  0.14173645  1  0  -0.120473  0  3.786644  0  0  -0.137967  0  4.029499  0  0  -0.137461  0  4.04966  0  -0.106463  0  -0.102759  -0.138584  0  4.015996  0
C  C112  1  0.98217341  0.56448067  0.88112303  1  0  -0.217057  0  3.783773  0  0  -0.230654  0  4.035716  0  0  -0.236224  0  4.054973  0  -0.112868  0  -0.117473  -0.226907  0  4.022848  0
C  C113  1  0.01782651  0.43551828  0.11887780  1  0  -0.217098  0  3.783808  0  0  -0.230666  0  4.035746  0  0  -0.236238  0  4.055003  0  -0.113088  0  -0.117492  -0.226922  0  4.022877  0
C  C114  1  0.86385762  0.44031940  0.79577438  1  0  0.30056  0  3.868293  0  0  0.297041  0  4.114276  0  0  0.30703  0  4.134178  0  0.406542  0  0.085088  0.290741  0  4.100057  0
C  C115  1  0.13614174  0.55967860  0.20422531  1  0  0.300641  0  3.868243  0  0  0.297083  0  4.114266  0  0  0.307073  0  4.134169  0  0.406784  0  0.08511  0.290783  0  4.100047  0
C  C116  1  0.86997053  0.39452740  0.68804991  1  0  -0.205299  0  3.771399  0  0  -0.217564  0  4.017558  0  0  -0.223672  0  4.037656  0  -0.074124  0  -0.118118  -0.213287  0  4.003343  0
C  C117  1  0.13003047  0.60547155  0.31195122  1  0  -0.20536  0  3.771354  0  0  -0.217607  0  4.017506  0  0  -0.223724  0  4.037597  0  -0.074107  0  -0.118138  -0.21333  0  4.003291  0
C  C118  1  0.98786774  0.47012324  0.66677206  1  0  -0.122474  0  3.798735  0  0  -0.140605  0  4.042612  0  0  -0.140678  0  4.062998  0  -0.133471  0  -0.102931  -0.139847  0  4.028262  0
C  C119  1  0.01213379  0.52987475  0.33322824  1  0  -0.122495  0  3.798736  0  0  -0.14062  0  4.042618  0  0  -0.140695  0  4.063008  0  -0.133454  0  -0.102917  -0.139862  0  4.028267  0
I  I120  1  0.17363983  0.90996929  0.52645729  1  0  -0.484175  0  1.435969  0  0  -0.427957  0  1.846548  0  0  -0.442385  0  1.807207  0  -0.513535  0  -0.187644  -0.416939  0  1.873954  0
I  I121  1  0.82636064  0.09003061  0.47354236  1  0  -0.48417  0  1.435945  0  0  -0.427967  0  1.846537  0  0  -0.442395  0  1.807192  0  -0.513521  0  -0.187651  -0.416951  0  1.873946  0
N  N122  1  0.23022877  0.21113654  0.47874904  1  0  -0.28167  0  3.373151  0  0  -0.208239  0  3.661194  0  0  -0.22001  0  3.669151  0  -1.223489  0  -0.366312  -0.20091  0  3.655542  0
N  N123  1  0.76977120  0.78886622  0.52124954  1  0  -0.281584  0  3.373107  0  0  -0.20815  0  3.661146  0  0  -0.219905  0  3.669076  0  -1.223559  0  -0.366246  -0.200818  0  3.655502  0
N  N124  1  0.23466673  0.21260611  0.73899788  1  0  -0.278952  0  3.367607  0  0  -0.20573  0  3.655879  0  0  -0.217352  0  3.662425  0  -1.222835  0  -0.365191  -0.199149  0  3.651373  0
N  N125  1  0.76533537  0.78739474  0.26100475  1  0  -0.278903  0  3.367577  0  0  -0.205691  0  3.655856  0  0  -0.217294  0  3.662373  0  -1.222863  0  -0.365168  -0.199107  0  3.651361  0
N  N126  1  0.62045598  0.07907215  0.68284530  1  0  -0.66371  0  3.129816  0  0  -0.621566  0  3.345581  0  0  -0.639287  0  3.345364  0  -1.241816  0  -0.601547  -0.608913  0  3.347378  0
N  N127  1  0.37954342  0.92092775  0.31715327  1  0  -0.663669  0  3.129772  0  0  -0.621525  0  3.345516  0  0  -0.639245  0  3.345301  0  -1.241738  0  -0.601542  -0.608872  0  3.347311  0
N  N128  1  0.74149815  0.36771032  0.81400215  1  0  -0.660534  0  3.104311  0  0  -0.62889  0  3.333187  0  0  -0.647542  0  3.335079  0  -1.255639  0  -0.605519  -0.615574  0  3.331012  0
N  N129  1  0.25850016  0.63228959  0.18599689  1  0  -0.660625  0  3.104275  0  0  -0.628926  0  3.33321  0  0  -0.647578  0  3.3351  0  -1.255697  0  -0.605551  -0.6156  0  3.331054  0
