# generated using pymatgen
data_CoH12(C4O3)2
_symmetry_space_group_name_H-M   'P 1'
_cell_length_a   7.11202229
_cell_length_b   8.11785804
_cell_length_c   10.45477999
_cell_angle_alpha   108.40458354
_cell_angle_beta   109.88903530
_cell_angle_gamma   89.99670999
_symmetry_Int_Tables_number   1
_chemical_formula_structural   CoH12(C4O3)2
_chemical_formula_sum   'Co2 H24 C16 O12'
_cell_volume   534.65303946
_cell_formula_units_Z   2
loop_
 _symmetry_equiv_pos_site_id
 _symmetry_equiv_pos_as_xyz
  1  'x, y, z'
loop_
 _atom_site_type_symbol
 _atom_site_label
 _atom_site_symmetry_multiplicity
 _atom_site_fract_x
 _atom_site_fract_y
 _atom_site_fract_z
 _atom_site_occupancy
 _atom_site_hle17_ddec_charge
 _atom_site_hle17_ddec_spin_density
 _atom_site_hle17_ddec_sum_bond_order
 _atom_site_hle17_magmom
 _atom_site_hse06_10hf_ddec_charge
 _atom_site_hse06_10hf_ddec_spin_density
 _atom_site_hse06_10hf_ddec_sum_bond_order
 _atom_site_hse06_10hf_magmom
 _atom_site_hse06_ddec_charge
 _atom_site_hse06_ddec_spin_density
 _atom_site_hse06_ddec_sum_bond_order
 _atom_site_hse06_magmom
 _atom_site_pbe_cm5_charge
 _atom_site_pbe_ddec_charge
 _atom_site_pbe_ddec_spin_density
 _atom_site_pbe_ddec_sum_bond_order
 _atom_site_pbe_magmom
Co  Co0  1  0.50000047  0.99999967  0.50000043  1  1.103329  -2.916148  1.893177  -2.632  1.070934  -2.894911  2.286099  -2.691  1.13969  -2.921168  2.215973  -2.75  0.665415  1.021976  -2.880692  2.33621  -2.64
Co  Co1  1  0.00000061  0.49999976  0.49999960  1  1.100863  2.914627  1.895481  2.628  1.06828  2.893842  2.28893  2.689  1.138266  2.920785  2.218522  2.749  0.665133  1.021022  2.880122  2.33814  2.638
H  H2  1  0.26749632  0.97970261  0.19786732  1  0.127566  0.000509  0.971797  0.001  0.133188  0.000492  1.035982  0.001  0.137988  0.000386  1.033206  0.0  0.107531  0.129825  0.000628  1.038425  0.001
H  H3  1  0.06857810  0.52125770  0.80197542  1  0.1283  -0.000548  0.97108  -0.001  0.132989  -0.000528  1.036377  -0.001  0.137452  -0.000414  1.034072  0.0  0.107286  0.129605  -0.000633  1.038619  -0.001
H  H4  1  0.73250743  0.02029586  0.80213532  1  0.127594  0.000508  0.971793  0.001  0.133208  0.000492  1.035978  0.001  0.138012  0.000386  1.0332  0.0  0.107548  0.129847  0.000628  1.038423  0.001
H  H5  1  0.93141871  0.47874472  0.19802375  1  0.128246  -0.000548  0.971088  -0.001  0.132969  -0.000528  1.036359  -0.001  0.137432  -0.000414  1.034055  0.0  0.107267  0.129586  -0.000633  1.038603  -0.001
H  H6  1  0.88484478  0.14217714  0.07214282  1  0.090278  0.000157  0.940566  0.0  0.103304  7.3e-05  0.997651  0.0  0.106641  3.2e-05  0.994885  0.0  0.105861  0.100607  0.000125  1.000003  0.0
H  H7  1  0.81324364  0.35693513  0.92760965  1  0.090746  -0.000171  0.939952  0.0  0.103407  -7.9e-05  0.99736  0.0  0.10671  -3.5e-05  0.994689  0.0  0.105725  0.100494  -0.000126  1.00005  0.0
H  H8  1  0.11516044  0.85782135  0.92785634  1  0.090332  0.000157  0.940543  0.0  0.103356  7.3e-05  0.997622  0.0  0.106694  3.2e-05  0.994855  0.0  0.105885  0.100652  0.000125  0.999976  0.0
H  H9  1  0.18675316  0.64306730  0.07238953  1  0.090741  -0.000171  0.939925  0.0  0.103416  -7.9e-05  0.997319  0.0  0.106716  -3.6e-05  0.994652  0.0  0.105723  0.1005  -0.000126  1.000007  0.0
H  H10  1  0.71855987  0.14956331  0.41707994  1  0.375197  0.00013  0.914559  0.0  0.349174  -0.000255  0.987378  -0.001  0.360396  -0.00015  0.976046  0.0  0.299309  0.341292  -0.000346  0.995114  -0.001
H  H11  1  0.30149430  0.35017957  0.58213851  1  0.375907  -0.000139  0.913614  0.0  0.350315  0.000252  0.985741  0.001  0.361616  0.000159  0.974233  0.0  0.299647  0.342491  0.000354  0.993473  0.001
H  H12  1  0.28143826  0.85043779  0.58292112  1  0.375196  0.00013  0.914529  0.0  0.3492  -0.000255  0.987308  -0.001  0.360425  -0.00015  0.975973  0.0  0.299312  0.341316  -0.000346  0.995047  -0.001
H  H13  1  0.69850345  0.64981893  0.41785895  1  0.375943  -0.000138  0.913564  0.0  0.350336  0.000252  0.985709  0.001  0.361634  0.000159  0.974208  0.0  0.299655  0.342512  0.000354  0.993439  0.001
H  H14  1  0.73521896  0.95097447  0.18842875  1  0.065242  -0.001648  0.951951  -0.003  0.082543  -0.001262  1.019162  -0.002  0.081227  -0.000866  1.020758  -0.001  0.089287  0.08454  -0.001715  1.017009  -0.002
H  H15  1  0.54589668  0.54803743  0.81119406  1  0.065205  0.001621  0.951443  0.003  0.082336  0.001254  1.018941  0.002  0.081235  0.00086  1.020345  0.001  0.088773  0.08444  0.001717  1.016733  0.002
H  H16  1  0.26478348  0.04902531  0.81157392  1  0.065231  -0.001648  0.951922  -0.003  0.082532  -0.001262  1.019142  -0.002  0.081216  -0.000866  1.020737  -0.001  0.089284  0.084529  -0.001716  1.016988  -0.002
H  H17  1  0.45410255  0.45196108  0.18880278  1  0.065224  0.001622  0.951468  0.003  0.082334  0.001253  1.018978  0.002  0.081232  0.000861  1.020384  0.001  0.088765  0.084437  0.001717  1.016772  0.002
H  H18  1  0.86337495  0.88726986  0.34251801  1  0.08406  -0.000264  0.935271  -0.001  0.100457  -0.000232  0.99819  -0.001  0.100576  -0.000107  0.998512  0.0  0.095661  0.100826  -0.000485  0.997783  -0.001
H  H19  1  0.52105352  0.61254917  0.65768733  1  0.082655  0.000319  0.93715  0.001  0.099618  0.000275  0.999412  0.001  0.099641  0.000132  0.99981  0.0  0.095111  0.100054  0.000502  0.998879  0.001
H  H20  1  0.13662637  0.11273253  0.65748602  1  0.084091  -0.000263  0.935284  -0.001  0.100528  -0.000232  0.998152  -0.001  0.10064  -0.000107  0.99848  0.0  0.095674  0.100897  -0.000485  0.997745  -0.001
H  H21  1  0.47894402  0.38744804  0.34230785  1  0.082723  0.000318  0.937144  0.001  0.099691  0.000275  0.999364  0.001  0.099712  0.000132  0.999765  0.0  0.095137  0.100125  0.000502  0.998835  0.001
H  H22  1  0.61544101  0.78590132  0.22506758  1  0.084203  4.3e-05  0.937515  0.0  0.103214  2.2e-05  0.999757  0.0  0.103647  4e-05  0.999157  0.0  0.100483  0.103427  -9e-06  0.999617  -0.001
H  H23  1  0.38979922  0.71363898  0.77443456  1  0.084359  -4.2e-05  0.938445  0.0  0.103554  -2.2e-05  1.000168  0.0  0.103954  -4e-05  0.999525  0.0  0.10015  0.10344  1e-05  1.00033  0.001
H  H24  1  0.38456292  0.21409846  0.77493543  1  0.084206  4.3e-05  0.937501  0.0  0.103226  2.2e-05  0.999736  0.0  0.103659  4e-05  0.999136  0.0  0.100492  0.103442  -9e-06  0.999598  -0.001
H  H25  1  0.61020002  0.28635953  0.22556228  1  0.084352  -4.3e-05  0.938475  0.0  0.103532  -2.2e-05  1.00021  0.0  0.103941  -4e-05  0.999556  0.0  0.100151  0.103418  1e-05  1.000374  0.001
C  C26  1  0.15167624  0.18241591  0.33584673  1  0.69288  -0.003007  3.853665  -0.005  0.653069  -0.001821  4.148305  -0.003  0.693258  -0.001078  4.1355  -0.002  0.213413  0.624171  -0.002277  4.157253  -0.003
C  C27  1  0.81631512  0.31723513  0.66408838  1  0.692511  0.003542  3.850605  0.005  0.652544  0.001985  4.145448  0.003  0.692225  0.001078  4.133799  0.002  0.212409  0.622534  0.00247  4.156854  0.003
C  C28  1  0.84832637  0.81758518  0.66415440  1  0.692825  -0.003007  3.853694  -0.005  0.653052  -0.00182  4.148273  -0.003  0.69324  -0.001078  4.135469  -0.002  0.213395  0.624142  -0.002275  4.157234  -0.003
C  C29  1  0.18368281  0.68276468  0.33591040  1  0.692479  0.00354  3.850568  0.005  0.652486  0.001985  4.145483  0.003  0.692163  0.001077  4.13384  0.002  0.212389  0.622473  0.00247  4.156889  0.003
C  C30  1  0.14750590  0.06315478  0.19540496  1  -0.227818  0.002778  3.648896  0.004  -0.246398  0.001515  3.904709  0.002  -0.256341  0.001431  3.918507  0.002  -0.093107  -0.243049  0.001446  3.899299  0.002
C  C31  1  0.95188758  0.43706174  0.80455162  1  -0.226288  -0.002097  3.645411  -0.003  -0.244742  -0.001186  3.902155  -0.002  -0.25544  -0.001346  3.917584  -0.002  -0.092695  -0.24269  -0.001324  3.898939  -0.002
C  C32  1  0.85249672  0.93684631  0.80459712  1  -0.227807  0.002781  3.648908  0.004  -0.246389  0.001515  3.904699  0.002  -0.256336  0.001431  3.918492  0.002  -0.093121  -0.243039  0.001446  3.899292  0.002
C  C33  1  0.04810922  0.56294068  0.19544756  1  -0.226146  -0.002097  3.645275  -0.003  -0.24462  -0.001186  3.902033  -0.002  -0.255317  -0.001346  3.917463  -0.002  -0.092641  -0.242569  -0.001324  3.898818  -0.002
C  C34  1  0.00323089  0.05673835  0.06913003  1  -0.014655  -0.002111  3.781585  -0.002  -0.029965  -0.001143  4.028153  -0.001  -0.026568  -0.000623  4.044752  -0.001  -0.078622  -0.032755  -0.001944  4.019146  -0.002
C  C35  1  0.93423789  0.44307261  0.93085362  1  -0.013015  0.002416  3.777281  0.003  -0.028303  0.00138  4.02384  0.001  -0.025573  0.000712  4.041768  0.001  -0.077979  -0.032099  0.00207  4.017346  0.002
C  C36  1  0.99677434  0.94326013  0.93087104  1  -0.014696  -0.002112  3.781637  -0.002  -0.029998  -0.001143  4.028201  -0.001  -0.026603  -0.000622  4.044803  -0.001  -0.07861  -0.032782  -0.001944  4.019192  -0.002
C  C37  1  0.06575724  0.55692851  0.06914485  1  -0.01311  0.002416  3.777163  0.003  -0.028405  0.00138  4.023743  0.001  -0.025674  0.000712  4.041673  0.001  -0.078036  -0.032204  0.002071  4.017249  0.002
C  C38  1  0.71626899  0.90900166  0.27400538  1  -0.011132  8.6e-05  3.637914  0.001  -0.101493  -0.000805  3.907829  0.0  -0.093432  -0.000432  3.913768  0.0  -0.151955  -0.107509  -0.001319  3.901375  0.0
C  C39  1  0.44193284  0.59058985  0.72577897  1  -0.009844  -9.1e-05  3.639437  -0.001  -0.100479  0.000834  3.908205  0.0  -0.092344  0.000441  3.914095  0.0  -0.150329  -0.106181  0.001348  3.901911  0.0
C  C40  1  0.28373344  0.09099813  0.72599634  1  -0.011164  8.6e-05  3.637876  0.001  -0.10156  -0.000805  3.907813  0.0  -0.093494  -0.000432  3.913756  0.0  -0.151967  -0.107581  -0.001319  3.901366  0.0
C  C41  1  0.55806639  0.40940866  0.27421787  1  -0.009944  -8.9e-05  3.63961  -0.001  -0.100536  0.000835  3.908391  0.0  -0.092411  0.000441  3.914277  0.0  -0.150348  -0.106229  0.001348  3.902086  0.0
O  O42  1  0.29253152  0.17949649  0.45213043  1  -0.641792  -0.030116  2.11009  -0.051  -0.598003  -0.024595  2.368899  -0.039  -0.628967  -0.019519  2.35308  -0.03  -0.30593  -0.575601  -0.029717  2.379935  -0.047
O  O43  1  0.84104479  0.32008535  0.54784418  1  -0.640625  0.02903  2.106719  0.049  -0.596772  0.024107  2.365288  0.038  -0.628159  0.019375  2.350188  0.03  -0.305914  -0.574839  0.029807  2.377081  0.047
O  O44  1  0.70746775  0.82050199  0.54787120  1  -0.641769  -0.030116  2.110083  -0.051  -0.597989  -0.024595  2.368883  -0.039  -0.62895  -0.019519  2.353064  -0.03  -0.305915  -0.575585  -0.029718  2.379923  -0.047
O  O45  1  0.15895315  0.67991445  0.45215461  1  -0.64064  0.029033  2.106696  0.049  -0.596792  0.024108  2.365287  0.038  -0.628178  0.019375  2.350187  0.03  -0.305915  -0.574859  0.029807  2.377081  0.047
O  O46  1  0.01840015  0.28716706  0.33777502  1  -0.631829  0.034566  2.099122  0.06  -0.594765  0.025495  2.369527  0.041  -0.628641  0.020423  2.356597  0.032  -0.312094  -0.567957  0.031802  2.37526  0.051
O  O47  1  0.68117003  0.21227217  0.66202086  1  -0.629614  -0.034404  2.096309  -0.059  -0.593366  -0.025529  2.367621  -0.041  -0.628175  -0.020526  2.355524  -0.032  -0.311947  -0.567661  -0.032231  2.375604  -0.052
O  O48  1  0.98160244  0.71283405  0.66222419  1  -0.631824  0.034566  2.099128  0.06  -0.594772  0.025494  2.369517  0.041  -0.628647  0.020422  2.356586  0.032  -0.312106  -0.567958  0.031801  2.375251  0.051
O  O49  1  0.31882941  0.78772763  0.33797922  1  -0.629584  -0.034403  2.096296  -0.059  -0.593335  -0.025529  2.367638  -0.041  -0.628144  -0.020525  2.355542  -0.032  -0.311934  -0.567629  -0.03223  2.375618  -0.052
O  O50  1  0.62487425  0.03651831  0.35642652  1  -0.546904  -0.034047  2.278734  -0.056  -0.492014  -0.029609  2.544773  -0.046  -0.520359  -0.023522  2.533815  -0.036  -0.402185  -0.468573  -0.036725  2.549929  -0.057
O  O51  1  0.26822431  0.46321209  0.64274640  1  -0.547702  0.034246  2.279259  0.056  -0.493049  0.029916  2.545607  0.046  -0.521572  0.02378  2.534654  0.036  -0.403177  -0.470355  0.036857  2.55141  0.057
O  O52  1  0.37512668  0.96348149  0.64357390  1  -0.54688  -0.034046  2.278686  -0.056  -0.492018  -0.029609  2.544721  -0.046  -0.520364  -0.023522  2.533759  -0.036  -0.402187  -0.468574  -0.036725  2.549873  -0.057
O  O53  1  0.73177344  0.53678641  0.35725201  1  -0.547701  0.034244  2.279304  0.056  -0.493031  0.029915  2.545654  0.046  -0.521549  0.023778  2.534708  0.036  -0.403162  -0.47034  0.036855  2.551457  0.057
