# generated using pymatgen
data_LaH11(C3O)7
_symmetry_space_group_name_H-M   'P 1'
_cell_length_a   8.08710645
_cell_length_b   11.52128404
_cell_length_c   11.52120552
_cell_angle_alpha   73.54182918
_cell_angle_beta   88.59164561
_cell_angle_gamma   88.59158188
_symmetry_Int_Tables_number   1
_chemical_formula_structural   LaH11(C3O)7
_chemical_formula_sum   'La2 H22 C42 O14'
_cell_volume   1029.00666667
_cell_formula_units_Z   2
loop_
 _symmetry_equiv_pos_site_id
 _symmetry_equiv_pos_as_xyz
  1  'x, y, z'
loop_
 _atom_site_type_symbol
 _atom_site_label
 _atom_site_symmetry_multiplicity
 _atom_site_fract_x
 _atom_site_fract_y
 _atom_site_fract_z
 _atom_site_occupancy
 _atom_site_pbe_bader_charge
 _atom_site_pbe_bader_spin_density
 _atom_site_pbe_cm5_charge
 _atom_site_pbe_ddec_charge
 _atom_site_pbe_ddec_spin_density
 _atom_site_pbe_ddec_sum_bond_order
 _atom_site_pbe_magmom
La  La0  1  0.24925960  0.01018530  0.97057556  1  2.226981  0  1.386055  1.836595  0  2.352975  0
La  La1  1  0.74926458  0.97058008  0.01018039  1  2.226933  0  1.386071  1.836617  0  2.352917  0
H  H2  1  0.32713510  0.09600501  0.16355458  1  0.619668  0  0.295822  0.375432  0  0.96826  0
H  H3  1  0.82713423  0.16355645  0.09600331  1  0.619645  0  0.295829  0.375428  0  0.968264  0
H  H4  1  0.14290902  0.14476575  0.16023552  1  0.620358  0  0.32765  0.409136  0  0.876495  0
H  H5  1  0.64290907  0.16023535  0.14476416  1  0.62036  0  0.327635  0.409139  0  0.876495  0
H  H6  1  0.62618229  0.71277521  0.86134862  1  0.076542  0  0.113351  0.117205  0  1.018714  0
H  H7  1  0.12618581  0.86135004  0.71277123  1  0.07655  0  0.113375  0.117235  0  1.018588  0
H  H8  1  0.68806009  0.54821512  0.91279447  1  0.080125  0  0.108978  0.112698  0  0.999228  0
H  H9  1  0.18806542  0.91279307  0.54821618  1  0.080137  0  0.10896  0.112713  0  0.999294  0
H  H10  1  0.79603982  0.34185013  0.98975844  1  0.059209  0  0.101065  0.089487  0  1.025516  0
H  H11  1  0.29604448  0.98975688  0.34184655  1  0.059234  0  0.101044  0.089477  0  1.025535  0
H  H12  1  0.06533227  0.37452732  0.65815315  1  0.094591  0  0.11027  0.112911  0  1.01504  0
H  H13  1  0.56533580  0.65815160  0.37452302  1  0.094902  0  0.110274  0.112979  0  1.014914  0
H  H14  1  0.10143136  0.46369947  0.49028486  1  0.095168  0  0.103729  0.10595  0  1.008781  0
H  H15  1  0.60143194  0.49027986  0.46369792  1  0.09516  0  0.10375  0.105943  0  1.008776  0
H  H16  1  0.17770770  0.58876880  0.28514761  1  0.077268  0  0.108506  0.112923  0  0.985203  0
H  H17  1  0.67770686  0.28514539  0.58876819  1  0.077258  0  0.108527  0.11296  0  0.985077  0
H  H18  1  0.88670345  0.88413816  0.33852772  1  0.058537  0  0.109032  0.105797  0  1.032772  0
H  H19  1  0.38669737  0.33852754  0.88413777  1  0.058529  0  0.109037  0.105817  0  1.03276  0
H  H20  1  0.74968226  0.95225331  0.43972412  1  0.046763  0  0.102813  0.106045  0  1.015962  0
H  H21  1  0.24968240  0.43972701  0.95225380  1  0.046522  0  0.102804  0.10602  0  1.015878  0
H  H22  1  0.56916978  0.03723186  0.57180471  1  0.099623  0  0.109222  0.111475  0  0.984766  0
H  H23  1  0.06917196  0.57180799  0.03722728  1  0.099675  0  0.109235  0.111462  0  0.984833  0
C  C24  1  0.47983616  0.92708041  0.80587335  1  1.495305  0  0.207437  0.576833  0  4.196563  0
C  C25  1  0.97982791  0.80586970  0.92708309  1  1.495819  0  0.207468  0.576885  0  4.196869  0
C  C26  1  0.58817524  0.87800031  0.72480479  1  -0.01517  0  -0.013936  -0.037343  0  4.008726  0
C  C27  1  0.08817529  0.72481194  0.87799071  1  -0.015667  0  -0.013873  -0.037377  0  4.008477  0
C  C28  1  0.65348013  0.76163535  0.76770907  1  -0.015031  0  -0.072202  -0.129332  0  3.934177  0
C  C29  1  0.15349616  0.76771105  0.76163093  1  -0.015032  0  -0.07228  -0.129325  0  3.934193  0
C  C30  1  0.74982872  0.70804168  0.69274035  1  0.038241  0  -0.004119  0.021096  0  3.972971  0
C  C31  1  0.24983431  0.69273778  0.70804490  1  0.038262  0  -0.004176  0.021096  0  3.972948  0
C  C32  1  0.81116735  0.58382728  0.73708184  1  -0.038272  0  0.007324  0.04843  0  3.94296  0
C  C33  1  0.31117549  0.73708020  0.58382909  1  -0.038183  0  0.007379  0.048343  0  3.94315  0
C  C34  1  0.76967730  0.51184630  0.85474768  1  0.045001  0  -0.081593  -0.112679  0  3.976113  0
C  C35  1  0.26967958  0.85474679  0.51184980  1  0.045019  0  -0.081583  -0.112668  0  3.976207  0
C  C36  1  0.83042349  0.39515290  0.89864705  1  -0.132925  0  -0.085409  -0.092083  0  4.010067  0
C  C37  1  0.33042119  0.89864741  0.39515323  1  -0.132892  0  -0.085429  -0.092125  0  4.009961  0
C  C38  1  0.93946000  0.34671324  0.82694297  1  0.050857  0  -0.019732  -0.046638  0  4.019248  0
C  C39  1  0.43946504  0.82694591  0.34670904  1  0.050098  0  -0.019748  -0.046695  0  4.019175  0
C  C40  1  0.01463072  0.22448293  0.87394511  1  1.502642  0  0.219466  0.600627  0  4.170286  0
C  C41  1  0.51464030  0.87394578  0.22448033  1  1.503425  0  0.219404  0.600618  0  4.170553  0
C  C42  1  0.98016636  0.41553416  0.71022774  1  -0.048582  0  -0.069997  -0.113355  0  3.921705  0
C  C43  1  0.48016855  0.71022874  0.41553110  1  -0.048758  0  -0.069948  -0.113365  0  3.921855  0
C  C44  1  0.91520360  0.53315195  0.66174094  1  0.006983  0  -0.001608  0.020806  0  3.966794  0
C  C45  1  0.41521098  0.66174420  0.53314344  1  0.006312  0  -0.001607  0.020833  0  3.966961  0
C  C46  1  0.95277710  0.60374196  0.53755691  1  -0.009997  0  0.004751  0.042614  0  3.949521  0
C  C47  1  0.45278098  0.53755494  0.60373830  1  -0.009563  0  0.004745  0.042718  0  3.949374  0
C  C48  1  0.05269913  0.55599081  0.45887880  1  -0.100584  0  -0.090557  -0.134064  0  3.986987  0
C  C49  1  0.55269541  0.45887764  0.55599023  1  -0.100655  0  -0.090581  -0.134122  0  3.987152  0
C  C50  1  0.09554940  0.62492101  0.34336381  1  -0.061406  0  -0.077204  -0.077748  0  3.972897  0
C  C51  1  0.59554125  0.34336254  0.62491757  1  -0.061504  0  -0.077208  -0.077735  0  3.972709  0
C  C52  1  0.03497126  0.74460710  0.30060983  1  0.079207  0  -0.013283  -0.030038  0  3.981396  0
C  C53  1  0.53496456  0.30060763  0.74460894  1  0.079642  0  -0.013336  -0.030128  0  3.98135  0
C  C54  1  0.08823353  0.82462975  0.18072906  1  1.546167  0  0.209134  0.579746  0  4.192718  0
C  C55  1  0.58822108  0.18072838  0.82462854  1  1.546116  0  0.209198  0.579874  0  4.192594  0
C  C56  1  0.93134096  0.79147239  0.37485930  1  -0.001032  0  -0.069155  -0.11124  0  3.92587  0
C  C57  1  0.43133664  0.37486085  0.79147108  1  -0.001323  0  -0.069215  -0.111322  0  3.925881  0
C  C58  1  0.88968745  0.72448567  0.49376217  1  -0.032585  0  -0.004037  0.020883  0  3.96256  0
C  C59  1  0.38968799  0.49376169  0.72448419  1  -0.032671  0  -0.003973  0.02087  0  3.962569  0
C  C60  1  0.78790903  0.77781821  0.57240207  1  -0.048732  0  0.003721  0.042561  0  3.952684  0
C  C61  1  0.28791255  0.57239683  0.77782177  1  -0.049206  0  0.003817  0.042677  0  3.952552  0
C  C62  1  0.72302311  0.89729930  0.53163870  1  -0.013871  0  -0.087128  -0.12777  0  3.976537  0
C  C63  1  0.22302176  0.53164511  0.89730051  1  -0.013062  0  -0.087096  -0.127684  0  3.976539  0
C  C64  1  0.62177250  0.94609632  0.60483964  1  -0.018897  0  -0.073145  -0.069138  0  3.970492  0
C  C65  1  0.12178168  0.60484389  0.94609814  1  -0.018932  0  -0.073255  -0.069245  0  3.970538  0
O  O66  1  0.50743991  0.89186682  0.92195007  1  -1.193376  0  -0.423926  -0.664937  0  2.267412  0
O  O67  1  0.00744248  0.92194857  0.89186412  1  -1.193284  0  -0.423973  -0.664999  0  2.267314  0
O  O68  1  0.24838435  0.15803179  0.11628587  1  -1.240829  0  -0.602698  -0.768827  0  1.961351  0
O  O69  1  0.74838590  0.11628698  0.15803168  1  -1.240814  0  -0.602685  -0.768833  0  1.961336  0
O  O70  1  0.36153218  0.99968125  0.76463563  1  -1.163138  0  -0.34455  -0.547692  0  2.156641  0
O  O71  1  0.86153563  0.76463656  0.99967883  1  -1.163229  0  -0.344515  -0.547648  0  2.157119  0
O  O72  1  0.95630376  0.15126598  0.97339303  1  -1.230971  0  -0.384895  -0.684057  0  2.331956  0
O  O73  1  0.45630892  0.97339359  0.15126548  1  -1.230981  0  -0.384857  -0.684044  0  2.331983  0
O  O74  1  0.13838688  0.19348945  0.81948108  1  -1.164436  0  -0.354992  -0.54639  0  2.183652  0
O  O75  1  0.63839341  0.81948219  0.19348726  1  -1.164538  0  -0.354956  -0.546373  0  2.183872  0
O  O76  1  0.20799461  0.79475396  0.12153162  1  -1.170056  0  -0.340739  -0.566037  0  2.161744  0
O  O77  1  0.70798862  0.12153105  0.79475138  1  -1.169988  0  -0.340748  -0.566093  0  2.161708  0
O  O78  1  0.01403726  0.92943250  0.13997131  1  -1.219327  0  -0.413438  -0.689893  0  2.305032  0
O  O79  1  0.51402994  0.13996909  0.92943447  1  -1.219336  0  -0.413491  -0.689912  0  2.304985  0
