# generated using pymatgen
data_ZnH8(C4O3)2
_symmetry_space_group_name_H-M   'P 1'
_cell_length_a   4.97777148
_cell_length_b   7.84969472
_cell_length_c   12.14224257
_cell_angle_alpha   101.68016606
_cell_angle_beta   89.90560477
_cell_angle_gamma   108.66463632
_symmetry_Int_Tables_number   1
_chemical_formula_structural   ZnH8(C4O3)2
_chemical_formula_sum   'Zn2 H16 C16 O12'
_cell_volume   439.16549944
_cell_formula_units_Z   2
loop_
 _symmetry_equiv_pos_site_id
 _symmetry_equiv_pos_as_xyz
  1  'x, y, z'
loop_
 _atom_site_type_symbol
 _atom_site_label
 _atom_site_symmetry_multiplicity
 _atom_site_fract_x
 _atom_site_fract_y
 _atom_site_fract_z
 _atom_site_occupancy
 _atom_site_hle17_bader_spin_density
 _atom_site_hle17_ddec_charge
 _atom_site_hle17_ddec_spin_density
 _atom_site_hle17_ddec_sum_bond_order
 _atom_site_hle17_magmom
 _atom_site_hse06_10hf_bader_spin_density
 _atom_site_hse06_10hf_ddec_charge
 _atom_site_hse06_10hf_ddec_spin_density
 _atom_site_hse06_10hf_ddec_sum_bond_order
 _atom_site_hse06_10hf_magmom
 _atom_site_hse06_bader_spin_density
 _atom_site_hse06_ddec_charge
 _atom_site_hse06_ddec_spin_density
 _atom_site_hse06_ddec_sum_bond_order
 _atom_site_hse06_magmom
 _atom_site_pbe_bader_spin_density
 _atom_site_pbe_cm5_charge
 _atom_site_pbe_ddec_charge
 _atom_site_pbe_ddec_spin_density
 _atom_site_pbe_ddec_sum_bond_order
 _atom_site_pbe_magmom
Zn  Zn0  1  0.95384521  0.00070646  0.25049392  1  0  1.224226  0  1.630712  0  0  1.048889  0  2.096133  0  0  1.100111  0  2.030338  0  0  0.697183  1.012455  0  2.141838  0
Zn  Zn1  1  0.04615303  0.99929384  0.74950598  1  0  1.224277  0  1.630708  0  0  1.048914  0  2.096134  0  0  1.100142  0  2.030339  0  0  0.697192  1.012476  0  2.141841  0
H  H2  1  0.21982193  0.76699169  0.91251267  1  0  0.100756  0  0.976479  0  0  0.110765  0  1.039632  0  0  0.114189  0  1.037376  0  0  0.105996  0.108223  0  1.041485  0
H  H3  1  0.45825011  0.23610211  0.58940027  1  0  0.099114  0  0.977433  0  0  0.109274  0  1.040698  0  0  0.11262  0  1.038518  0  0  0.105766  0.10682  0  1.042467  0
H  H4  1  0.78017293  0.23300587  0.08748602  1  0  0.100741  0  0.976497  0  0  0.110796  0  1.03959  0  0  0.114201  0  1.03736  0  0  0.106027  0.108256  0  1.041441  0
H  H5  1  0.54175679  0.76389945  0.41060474  1  0  0.099166  0  0.977406  0  0  0.109307  0  1.040689  0  0  0.112649  0  1.038506  0  0  0.105762  0.106853  0  1.042455  0
H  H6  1  0.22081843  0.47542664  0.17737875  1  0  0.108631  0  0.943142  0  0  0.117715  0  1.005287  0  0  0.121275  0  1.003208  0  0  0.106587  0.115143  0  1.006883  0
H  H7  1  0.74302738  0.52334715  0.32165908  1  0  0.108473  0  0.943567  0  0  0.118166  0  1.004886  0  0  0.121659  0  1.002896  0  0  0.107063  0.11558  0  1.006486  0
H  H8  1  0.77918178  0.52456958  0.82261893  1  0  0.108606  0  0.943143  0  0  0.117713  0  1.005275  0  0  0.121274  0  1.003195  0  0  0.106596  0.115141  0  1.006874  0
H  H9  1  0.25698019  0.47665575  0.67834776  1  0  0.108448  0  0.943549  0  0  0.118178  0  1.004845  0  0  0.121671  0  1.002854  0  0  0.107063  0.115595  0  1.006441  0
H  H10  1  0.29702781  0.12452947  0.08742162  1  0  0.45137  0  0.846772  0  0  0.416772  0  0.915288  0  0  0.428492  0  0.898534  0  0  0.296392  0.408453  0  0.927142  0
H  H11  1  0.17323368  0.87636930  0.41261767  1  0  0.452775  0  0.844763  0  0  0.417633  0  0.914031  0  0  0.42941  0  0.897207  0  0  0.297118  0.409313  0  0.925896  0
H  H12  1  0.70297308  0.87546809  0.91257707  1  0  0.451381  0  0.846748  0  0  0.416783  0  0.915264  0  0  0.428502  0  0.898511  0  0  0.296397  0.408463  0  0.92712  0
H  H13  1  0.82676451  0.12362690  0.58738082  1  0  0.452797  0  0.844732  0  0  0.417655  0  0.913997  0  0  0.429432  0  0.897174  0  0  0.29714  0.409332  0  0.925864  0
H  H14  1  0.47624152  0.16475740  0.20927270  1  0  0.427794  0  0.877329  0  0  0.394706  0  0.945106  0  0  0.405137  0  0.930041  0  0  0.29545  0.387296  0  0.955807  0
H  H15  1  0.31137552  0.83710435  0.29043326  1  0  0.427562  0  0.877603  0  0  0.394416  0  0.945448  0  0  0.404856  0  0.930373  0  0  0.295358  0.386989  0  0.95619  0
H  H16  1  0.52375603  0.83524152  0.79072700  1  0  0.427794  0  0.877323  0  0  0.394701  0  0.94511  0  0  0.405133  0  0.930042  0  0  0.295469  0.38729  0  0.955811  0
H  H17  1  0.68861935  0.16289323  0.70956461  1  0  0.427527  0  0.877659  0  0  0.394368  0  0.945527  0  0  0.404809  0  0.93045  0  0  0.295326  0.386944  0  0.956252  0
C  C18  1  0.52245273  0.77886214  0.10089210  1  0  0.651813  0  3.885535  0  0  0.595849  0  4.178437  0  0  0.630478  0  4.17118  0  0  0.215495  0.572368  0  4.182546  0
C  C19  1  0.74403760  0.22209770  0.39943179  1  0  0.651208  0  3.882874  0  0  0.596127  0  4.174979  0  0  0.630707  0  4.167742  0  0  0.215348  0.5727  0  4.179081  0
C  C20  1  0.47754150  0.22113817  0.89910697  1  0  0.651801  0  3.885706  0  0  0.595828  0  4.178601  0  0  0.630468  0  4.171324  0  0  0.215466  0.57233  0  4.182737  0
C  C21  1  0.25596532  0.77790392  0.60057076  1  0  0.651105  0  3.882938  0  0  0.595982  0  4.175058  0  0  0.630564  0  4.16782  0  0  0.215313  0.572558  0  4.179156  0
C  C22  1  0.25222097  0.63557411  0.04927710  1  0  -0.071447  0  3.76397  0  0  -0.047502  0  3.99741  0  0  -0.055282  0  4.020902  0  0  -0.01748  -0.042379  0  3.981498  0
C  C23  1  0.61734049  0.36507815  0.45099396  1  0  -0.069694  0  3.759869  0  0  -0.046521  0  3.994004  0  0  -0.054203  0  4.017297  0  0  -0.016276  -0.041474  0  3.978241  0
C  C24  1  0.74777256  0.36442480  0.95072260  1  0  -0.071447  0  3.764016  0  0  -0.047487  0  3.997457  0  0  -0.055269  0  4.020939  0  0  -0.01749  -0.042364  0  3.981552  0
C  C25  1  0.38266169  0.63492201  0.54901167  1  0  -0.069551  0  3.759804  0  0  -0.046269  0  3.993798  0  0  -0.053946  0  4.017085  0  0  -0.016233  -0.041221  0  3.97803  0
C  C26  1  0.12681067  0.64783105  0.94920486  1  0  -0.055902  0  3.703196  0  0  -0.079881  0  3.949733  0  0  -0.080485  0  3.969694  0  0  -0.079924  -0.07937  0  3.936251  0
C  C27  1  0.48152083  0.35379433  0.55174083  1  0  -0.054407  0  3.701063  0  0  -0.0784  0  3.947771  0  0  -0.078947  0  3.967699  0  0  -0.080025  -0.077926  0  3.934269  0
C  C28  1  0.87318488  0.35216789  0.05079402  1  0  -0.055931  0  3.703296  0  0  -0.079961  0  3.949843  0  0  -0.080555  0  3.969817  0  0  -0.079962  -0.07945  0  3.93636  0
C  C29  1  0.51848413  0.64621138  0.44826393  1  0  -0.054697  0  3.700992  0  0  -0.078712  0  3.947696  0  0  -0.079254  0  3.967618  0  0  -0.080112  -0.078226  0  3.934175  0
C  C30  1  0.12285080  0.48706660  0.10035649  1  0  -0.057318  0  3.699017  0  0  -0.08163  0  3.948262  0  0  -0.082183  0  3.967796  0  0  -0.080742  -0.081206  0  3.93506  0
C  C31  1  0.63417272  0.51209550  0.39904387  1  0  -0.057499  0  3.699607  0  0  -0.082145  0  3.948981  0  0  -0.082678  0  3.968489  0  0  -0.081096  -0.081681  0  3.935822  0
C  C32  1  0.87714337  0.51292958  0.89964200  1  0  -0.057294  0  3.698977  0  0  -0.081648  0  3.948216  0  0  -0.082201  0  3.967752  0  0  -0.080749  -0.081221  0  3.935017  0
C  C33  1  0.36583893  0.48790750  0.60095886  1  0  -0.05759  0  3.699831  0  0  -0.082314  0  3.949203  0  0  -0.082846  0  3.968712  0  0  -0.081129  -0.081853  0  3.936039  0
O  O34  1  0.57949126  0.79498275  0.20776818  1  0  -0.682114  0  2.085176  0  0  -0.597492  0  2.341383  0  0  -0.628578  0  2.327606  0  0  -0.315419  -0.57574  0  2.350243  0
O  O35  1  0.78650042  0.20635518  0.29266557  1  0  -0.682488  0  2.083661  0  0  -0.59892  0  2.340515  0  0  -0.629957  0  2.326671  0  0  -0.315954  -0.577095  0  2.34919  0
O  O36  1  0.42050172  0.20502307  0.79223166  1  0  -0.682128  0  2.085284  0  0  -0.597472  0  2.341463  0  0  -0.628565  0  2.327682  0  0  -0.3154  -0.575712  0  2.350331  0
O  O37  1  0.21349648  0.79364645  0.70733615  1  0  -0.682396  0  2.083649  0  0  -0.598815  0  2.340509  0  0  -0.629875  0  2.326701  0  0  -0.315885  -0.576991  0  2.349181  0
O  O38  1  0.69087515  0.88115000  0.04539701  1  0  -0.610441  0  1.999552  0  0  -0.547307  0  2.227108  0  0  -0.573207  0  2.217915  0  0  -0.294339  -0.529288  0  2.232988  0
O  O39  1  0.80818779  0.11941418  0.45481556  1  0  -0.612031  0  1.996633  0  0  -0.548675  0  2.224126  0  0  -0.574623  0  2.214912  0  0  -0.295233  -0.530646  0  2.230007  0
O  O40  1  0.30912575  0.11884759  0.95460086  1  0  -0.610454  0  1.999611  0  0  -0.54731  0  2.227153  0  0  -0.573213  0  2.217952  0  0  -0.294335  -0.529284  0  2.233038  0
O  O41  1  0.19181649  0.88058614  0.54518351  1  0  -0.61203  0  1.996675  0  0  -0.548673  0  2.22419  0  0  -0.574621  0  2.214975  0  0  -0.295252  -0.530627  0  2.230029  0
O  O42  1  0.28415444  0.12694816  0.17079030  1  0  -0.874957  0  1.934093  0  0  -0.806016  0  2.173088  0  0  -0.829446  0  2.133611  0  0  -0.580408  -0.78939  0  2.200524  0
O  O43  1  0.15693235  0.87414100  0.32933746  1  0  -0.875277  0  1.9323  0  0  -0.805681  0  2.171944  0  0  -0.829196  0  2.132341  0  0  -0.580822  -0.789019  0  2.199419  0
O  O44  1  0.71584444  0.87304941  0.82920839  1  0  -0.875001  0  1.934095  0  0  -0.806033  0  2.173064  0  0  -0.82947  0  2.133602  0  0  -0.58043  -0.789408  0  2.200504  0
O  O45  1  0.84306451  0.12585654  0.67066204  1  0  -0.875271  0  1.932323  0  0  -0.805671  0  2.172001  0  0  -0.829181  0  2.132378  0  0  -0.580812  -0.789008  0  2.199488  0
