# generated using pymatgen
data_HgH24C19(SBr)2
_symmetry_space_group_name_H-M   'P 1'
_cell_length_a   7.43848950
_cell_length_b   9.32861063
_cell_length_c   16.04755613
_cell_angle_alpha   104.00205911
_cell_angle_beta   96.97255807
_cell_angle_gamma   100.10401416
_symmetry_Int_Tables_number   1
_chemical_formula_structural   HgH24C19(SBr)2
_chemical_formula_sum   'Hg2 H48 C38 S4 Br4'
_cell_volume   1047.94497940
_cell_formula_units_Z   2
loop_
 _symmetry_equiv_pos_site_id
 _symmetry_equiv_pos_as_xyz
  1  'x, y, z'
loop_
 _atom_site_type_symbol
 _atom_site_label
 _atom_site_symmetry_multiplicity
 _atom_site_fract_x
 _atom_site_fract_y
 _atom_site_fract_z
 _atom_site_occupancy
 _atom_site_hle17_bader_spin_density
 _atom_site_hle17_ddec_charge
 _atom_site_hle17_ddec_spin_density
 _atom_site_hle17_ddec_sum_bond_order
 _atom_site_hle17_magmom
 _atom_site_hse06_10hf_bader_spin_density
 _atom_site_hse06_10hf_ddec_charge
 _atom_site_hse06_10hf_ddec_spin_density
 _atom_site_hse06_10hf_ddec_sum_bond_order
 _atom_site_hse06_10hf_magmom
 _atom_site_hse06_bader_spin_density
 _atom_site_hse06_ddec_charge
 _atom_site_hse06_ddec_spin_density
 _atom_site_hse06_ddec_sum_bond_order
 _atom_site_hse06_magmom
 _atom_site_pbe_bader_spin_density
 _atom_site_pbe_cm5_charge
 _atom_site_pbe_ddec_charge
 _atom_site_pbe_ddec_spin_density
 _atom_site_pbe_ddec_sum_bond_order
 _atom_site_pbe_magmom
Hg  Hg0  1  0.84551601  0.69197622  0.73804696  1  0  0.457085  0  2.231762  0  0  0.32388  0  2.749039  0  0  0.361898  0  2.724318  0  0  0.371817  0.298874  0  2.765106  0
Hg  Hg1  1  0.15448392  0.30802111  0.26195315  1  0  0.457061  0  2.23173  0  0  0.32385  0  2.74902  0  0  0.36187  0  2.724298  0  0  0.371801  0.298848  0  2.765075  0
H  H2  1  0.19837387  0.18274188  0.01654179  1  0  0.082427  0  0.970437  0  0  0.08913  0  1.041931  0  0  0.09237  0  1.040072  0  0  0.086524  0.086723  0  1.04345  0
H  H3  1  0.80162360  0.81726114  0.98345710  1  0  0.082419  0  0.970436  0  0  0.089121  0  1.041926  0  0  0.09236  0  1.040068  0  0  0.086525  0.086707  0  1.043448  0
H  H4  1  0.44462191  0.41131362  0.07812382  1  0  0.081381  0  0.989981  0  0  0.088101  0  1.059693  0  0  0.09074  0  1.05896  0  0  0.087295  0.086199  0  1.060276  0
H  H5  1  0.55537420  0.58868944  0.92187811  1  0  0.081371  0  0.989989  0  0  0.088102  0  1.059679  0  0  0.09074  0  1.058951  0  0  0.087314  0.086197  0  1.060261  0
H  H6  1  0.74809441  0.43200662  0.02507596  1  0  0.091249  0  0.957487  0  0  0.100699  0  1.019326  0  0  0.103824  0  1.017825  0  0  0.091403  0.098333  0  1.020597  0
H  H7  1  0.25190708  0.56799640  0.97493063  1  0  0.091117  0  0.957557  0  0  0.100595  0  1.019369  0  0  0.103718  0  1.017871  0  0  0.09135  0.098229  0  1.020636  0
H  H8  1  0.80143800  0.21856960  0.91028382  1  0  0.078817  0  0.972078  0  0  0.083001  0  1.044479  0  0  0.086024  0  1.043098  0  0  0.087196  0.079969  0  1.046986  0
H  H9  1  0.19856516  0.78143451  0.08972052  1  0  0.078825  0  0.9721  0  0  0.083026  0  1.044485  0  0  0.086051  0  1.043103  0  0  0.087182  0.079994  0  1.046993  0
H  H10  1  0.55407391  0.98537638  0.85011422  1  0  0.072233  0  0.991687  0  0  0.078007  0  1.068407  0  0  0.08029  0  1.068007  0  0  0.086113  0.076583  0  1.068275  0
H  H11  1  0.44592689  0.01462888  0.14988766  1  0  0.072214  0  0.991697  0  0  0.078016  0  1.06839  0  0  0.080304  0  1.06799  0  0  0.086088  0.076589  0  1.068269  0
H  H12  1  0.14867209  0.88124824  0.93621323  1  0  0.10822  0  0.943496  0  0  0.124112  0  1.004327  0  0  0.12498  0  1.004698  0  0  0.099812  0.123469  0  1.004132  0
H  H13  1  0.85132601  0.11875706  0.06378788  1  0  0.108218  0  0.943521  0  0  0.124112  0  1.004348  0  0  0.124979  0  1.004722  0  0  0.09982  0.123475  0  1.00415  0
H  H14  1  0.25755060  0.84303446  0.84339579  1  0  0.097508  0  0.94898  0  0  0.108029  0  1.021029  0  0  0.109263  0  1.020734  0  0  0.093656  0.107193  0  1.02112  0
H  H15  1  0.74244520  0.15696746  0.15660472  1  0  0.097458  0  0.948995  0  0  0.107996  0  1.021016  0  0  0.10923  0  1.020721  0  0  0.093655  0.107163  0  1.021109  0
H  H16  1  0.21181086  0.98550276  0.72314049  1  0  0.088901  0  0.942555  0  0  0.103771  0  1.008806  0  0  0.104581  0  1.008919  0  0  0.09406  0.103175  0  1.008757  0
H  H17  1  0.78818670  0.01449573  0.27685777  1  0  0.088905  0  0.942558  0  0  0.103764  0  1.008811  0  0  0.104573  0  1.008925  0  0  0.094052  0.103167  0  1.00876  0
H  H18  1  0.99199054  0.01920113  0.68822675  1  0  0.091372  0  0.964733  0  0  0.105347  0  1.032099  0  0  0.104954  0  1.035326  0  0  0.093978  0.105496  0  1.029847  0
H  H19  1  0.00800796  0.98080075  0.31177266  1  0  0.091424  0  0.964712  0  0  0.105389  0  1.032076  0  0  0.104997  0  1.035302  0  0  0.093985  0.105541  0  1.02982  0
H  H20  1  0.29460467  0.24726117  0.83043970  1  0  0.070413  0  0.957025  0  0  0.091185  0  1.011768  0  0  0.090916  0  1.014949  0  0  0.087645  0.091284  0  1.009552  0
H  H21  1  0.70539661  0.75273614  0.16955986  1  0  0.070419  0  0.957049  0  0  0.091175  0  1.011779  0  0  0.090907  0  1.014959  0  0  0.087648  0.09127  0  1.009569  0
H  H22  1  0.07120297  0.27579010  0.79760779  1  0  0.068933  0  0.95176  0  0  0.083621  0  1.019593  0  0  0.084717  0  1.019572  0  0  0.07976  0.081932  0  1.021233  0
H  H23  1  0.92879958  0.72421172  0.20239184  1  0  0.068959  0  0.951793  0  0  0.083628  0  1.019619  0  0  0.084725  0  1.019595  0  0  0.079783  0.08194  0  1.021253  0
H  H24  1  0.13245940  0.26070659  0.64817976  1  0  0.062043  0  0.959364  0  0  0.083175  0  1.01692  0  0  0.083243  0  1.018644  0  0  0.08536  0.082945  0  1.016068  0
H  H25  1  0.86754728  0.73929063  0.35181948  1  0  0.062001  0  0.959387  0  0  0.083177  0  1.016906  0  0  0.083246  0  1.018629  0  0  0.08536  0.082947  0  1.016052  0
H  H26  1  0.35039866  0.21726181  0.67403771  1  0  0.057655  0  0.967308  0  0  0.077727  0  1.028236  0  0  0.077751  0  1.030097  0  0  0.084202  0.077836  0  1.02672  0
H  H27  1  0.64960730  0.78273770  0.32596366  1  0  0.057572  0  0.967337  0  0  0.077665  0  1.028256  0  0  0.077688  0  1.030117  0  0  0.08419  0.07777  0  1.026744  0
H  H28  1  0.24321632  0.51118695  0.76587598  1  0  0.069408  0  0.944521  0  0  0.084185  0  1.011685  0  0  0.085344  0  1.011811  0  0  0.080528  0.083209  0  1.011802  0
H  H29  1  0.75678797  0.48881145  0.23412452  1  0  0.069376  0  0.944511  0  0  0.084149  0  1.011678  0  0  0.085311  0  1.011811  0  0  0.080522  0.083172  0  1.011789  0
H  H30  1  0.46539420  0.46692468  0.78053551  1  0  0.060888  0  0.957821  0  0  0.076719  0  1.025845  0  0  0.077744  0  1.025787  0  0  0.079685  0.075845  0  1.026094  0
H  H31  1  0.53461073  0.53307598  0.21946410  1  0  0.060895  0  0.957851  0  0  0.076707  0  1.025873  0  0  0.077739  0  1.025816  0  0  0.079689  0.07583  0  1.026124  0
H  H32  1  0.25854816  0.49982004  0.60991409  1  0  0.098399  0  0.962114  0  0  0.108741  0  1.032349  0  0  0.110792  0  1.031229  0  0  0.085515  0.10731  0  1.033207  0
H  H33  1  0.74145002  0.50018072  0.39008639  1  0  0.098413  0  0.962109  0  0  0.108758  0  1.032348  0  0  0.11081  0  1.031226  0  0  0.085518  0.107328  0  1.033201  0
H  H34  1  0.48015489  0.44917586  0.62123888  1  0  0.089446  0  0.93113  0  0  0.10713  0  0.990545  0  0  0.107699  0  0.991157  0  0  0.093588  0.106844  0  0.989865  0
H  H35  1  0.51984362  0.55082601  0.37875928  1  0  0.089405  0  0.931169  0  0  0.107098  0  0.99058  0  0  0.10767  0  0.991188  0  0  0.093584  0.106812  0  0.989902  0
H  H36  1  0.56696665  0.66488538  0.54983538  1  0  0.096344  0  0.957884  0  0  0.110147  0  1.024123  0  0  0.111645  0  1.023457  0  0  0.090197  0.108972  0  1.02491  0
H  H37  1  0.43302820  0.33511314  0.45016335  1  0  0.096341  0  0.957843  0  0  0.110138  0  1.024098  0  0  0.111637  0  1.023431  0  0  0.090181  0.108959  0  1.024892  0
H  H38  1  0.35574834  0.73043001  0.55783597  1  0  0.109213  0  0.946532  0  0  0.12335  0  1.012082  0  0  0.1244  0  1.012092  0  0  0.097448  0.122591  0  1.012059  0
H  H39  1  0.64424921  0.26956848  0.44216354  1  0  0.109219  0  0.946524  0  0  0.123363  0  1.012081  0  0  0.124412  0  1.012092  0  0  0.097453  0.122601  0  1.012053  0
H  H40  1  0.52388325  0.01504532  0.71597316  1  0  0.079953  0  0.991617  0  0  0.090959  0  1.058189  0  0  0.093453  0  1.057396  0  0  0.089864  0.089118  0  1.058776  0
H  H41  1  0.47611359  0.98495544  0.28402538  1  0  0.079974  0  0.99163  0  0  0.090984  0  1.058192  0  0  0.093481  0  1.057393  0  0  0.089877  0.089149  0  1.058778  0
H  H42  1  0.68706998  0.27235884  0.71955537  1  0  0.08384  0  0.981311  0  0  0.092603  0  1.04719  0  0  0.095403  0  1.046055  0  0  0.088008  0.090523  0  1.048137  0
H  H43  1  0.31292457  0.72763853  0.28044007  1  0  0.083848  0  0.981237  0  0  0.092595  0  1.047143  0  0  0.095396  0  1.046005  0  0  0.088009  0.090519  0  1.048082  0
H  H44  1  0.85079269  0.31355712  0.59824052  1  0  0.081437  0  0.976553  0  0  0.086288  0  1.050944  0  0  0.089393  0  1.049161  0  0  0.086109  0.083607  0  1.052817  0
H  H45  1  0.14920796  0.68643791  0.40175682  1  0  0.081458  0  0.976478  0  0  0.08632  0  1.05086  0  0  0.089409  0  1.049099  0  0  0.086104  0.083646  0  1.052721  0
H  H46  1  0.87090388  0.09221275  0.47904315  1  0  0.087727  0  0.962009  0  0  0.096898  0  1.026373  0  0  0.099743  0  1.025308  0  0  0.092849  0.094839  0  1.027184  0
H  H47  1  0.12909986  0.90777885  0.52095638  1  0  0.087682  0  0.962034  0  0  0.096864  0  1.026397  0  0  0.099709  0  1.025332  0  0  0.092851  0.094809  0  1.027207  0
H  H48  1  0.71751804  0.83295152  0.47864783  1  0  0.089275  0  0.968596  0  0  0.099125  0  1.035453  0  0  0.101662  0  1.034693  0  0  0.095692  0.097233  0  1.036557  0
H  H49  1  0.28247753  0.16704473  0.52135188  1  0  0.089241  0  0.968455  0  0  0.099076  0  1.035359  0  0  0.101603  0  1.034608  0  0  0.095666  0.097204  0  1.03643  0
C  C50  1  0.33119190  0.18872012  0.99363546  1  0  -0.125817  0  3.75429  0  0  -0.145363  0  3.99722  0  0  -0.148651  0  4.019285  0  0  -0.099572  -0.143815  0  3.98325  0
C  C51  1  0.66880494  0.81128065  0.00636432  1  0  -0.125831  0  3.75437  0  0  -0.145336  0  3.997346  0  0  -0.148623  0  4.019411  0  0  -0.099555  -0.143782  0  3.983366  0
C  C52  1  0.47043684  0.31840487  0.02836722  1  0  -0.070333  0  3.778338  0  0  -0.078225  0  4.021144  0  0  -0.080795  0  4.044655  0  0  -0.096306  -0.077066  0  4.005035  0
C  C53  1  0.52956228  0.68159930  0.97163690  1  0  -0.070173  0  3.778389  0  0  -0.078055  0  4.021164  0  0  -0.080625  0  4.044674  0  0  -0.096275  -0.076895  0  4.005039  0
C  C54  1  0.63955056  0.33028827  0.99815488  1  0  -0.06879  0  3.762599  0  0  -0.084126  0  4.00918  0  0  -0.086276  0  4.030883  0  0  -0.094094  -0.081777  0  3.992962  0
C  C55  1  0.36045198  0.66971357  0.00184912  1  0  -0.068769  0  3.762497  0  0  -0.084143  0  4.009117  0  0  -0.086295  0  4.030829  0  0  -0.094067  -0.081789  0  3.992894  0
C  C56  1  0.66944107  0.21050808  0.93378608  1  0  -0.073879  0  3.790297  0  0  -0.084498  0  4.040165  0  0  -0.086369  0  4.061738  0  0  -0.098902  -0.082484  0  4.02462  0
C  C57  1  0.33056075  0.78949605  0.06621882  1  0  -0.073877  0  3.790174  0  0  -0.084517  0  4.040053  0  0  -0.086388  0  4.061622  0  0  -0.098884  -0.082508  0  4.024517  0
C  C58  1  0.53001670  0.08020807  0.89936478  1  0  -0.123756  0  3.745636  0  0  -0.141315  0  3.98594  0  0  -0.144791  0  4.009343  0  0  -0.097836  -0.138576  0  3.969018  0
C  C59  1  0.46998410  0.91979719  0.10063710  1  0  -0.123751  0  3.745564  0  0  -0.141285  0  3.985893  0  0  -0.144767  0  4.009303  0  0  -0.097829  -0.138546  0  3.968976  0
C  C60  1  0.35907394  0.06867381  0.92824535  1  0  0.094658  0  3.778283  0  0  0.122974  0  4.001225  0  0  0.122284  0  4.026786  0  0  -0.019831  0.123187  0  3.984254  0
C  C61  1  0.64092686  0.93133145  0.07175528  1  0  0.094671  0  3.778225  0  0  0.122842  0  4.00137  0  0  0.12215  0  4.026934  0  0  -0.019846  0.123061  0  3.984392  0
C  C62  1  0.20787732  0.93123743  0.88759334  1  0  -0.193318  0  3.663182  0  0  -0.238325  0  3.911818  0  0  -0.237041  0  3.923392  0  0  -0.145888  -0.239018  0  3.903404  0
C  C63  1  0.79212046  0.06876673  0.11240697  1  0  -0.193283  0  3.663136  0  0  -0.238221  0  3.911751  0  0  -0.236935  0  3.923325  0  0  -0.145886  -0.238925  0  3.903346  0
C  C64  1  0.10614274  0.04886331  0.74388283  1  0  -0.142866  0  3.6337  0  0  -0.181224  0  3.894396  0  0  -0.179738  0  3.906421  0  0  -0.149773  -0.181886  0  3.885342  0
C  C65  1  0.89385545  0.95113743  0.25611578  1  0  -0.142927  0  3.633805  0  0  -0.181277  0  3.894449  0  0  -0.17979  0  3.906472  0  0  -0.149784  -0.18194  0  3.885394  0
C  C66  1  0.18117095  0.21934379  0.77467429  1  0  -0.106198  0  3.694369  0  0  -0.143134  0  3.946211  0  0  -0.144727  0  3.960845  0  0  -0.172925  -0.141671  0  3.935982  0
C  C67  1  0.81882993  0.78065692  0.22532509  1  0  -0.106228  0  3.694423  0  0  -0.143095  0  3.946164  0  0  -0.144684  0  3.960789  0  0  -0.172924  -0.141636  0  3.935938  0
C  C68  1  0.24956076  0.28025426  0.70143576  1  0  -0.100573  0  3.665731  0  0  -0.133918  0  3.911186  0  0  -0.13544  0  3.926531  0  0  -0.169769  -0.133325  0  3.900732  0
C  C69  1  0.75044385  0.71974527  0.29856430  1  0  -0.100514  0  3.665548  0  0  -0.133931  0  3.910998  0  0  -0.135447  0  3.926347  0  0  -0.169801  -0.133333  0  3.900544  0
C  C70  1  0.33858577  0.44874719  0.73261943  1  0  -0.099725  0  3.696643  0  0  -0.136187  0  3.948246  0  0  -0.137814  0  3.963103  0  0  -0.170394  -0.134769  0  3.937934  0
C  C71  1  0.66141718  0.55125122  0.26738038  1  0  -0.099643  0  3.696556  0  0  -0.136044  0  3.948087  0  0  -0.1377  0  3.962983  0  0  -0.170372  -0.134624  0  3.937769  0
C  C72  1  0.38486385  0.50905625  0.65607302  1  0  -0.152594  0  3.645295  0  0  -0.188483  0  3.90613  0  0  -0.187897  0  3.918342  0  0  -0.153264  -0.188914  0  3.897457  0
C  C73  1  0.61513568  0.49094448  0.34392628  1  0  -0.1526  0  3.645301  0  0  -0.188531  0  3.906181  0  0  -0.187937  0  3.918396  0  0  -0.153269  -0.188965  0  3.897509  0
C  C74  1  0.50160974  0.74885748  0.58856407  1  0  -0.195423  0  3.670649  0  0  -0.237831  0  3.916954  0  0  -0.236985  0  3.92861  0  0  -0.146233  -0.238245  0  3.908882  0
C  C75  1  0.49838749  0.25113988  0.41143589  1  0  -0.195445  0  3.670661  0  0  -0.237881  0  3.916992  0  0  -0.237035  0  3.92865  0  0  -0.146253  -0.23829  0  3.908915  0
C  C76  1  0.60571627  0.90607321  0.59578711  1  0  0.090343  0  3.781161  0  0  0.113887  0  4.014935  0  0  0.113047  0  4.041093  0  0  -0.020297  0.114416  0  3.997164  0
C  C77  1  0.39427993  0.09392530  0.40421295  1  0  0.090491  0  3.781183  0  0  0.114052  0  4.01493  0  0  0.113213  0  4.041086  0  0  -0.020201  0.114577  0  3.997165  0
C  C78  1  0.59982209  0.03087183  0.66371162  1  0  -0.137642  0  3.748427  0  0  -0.155322  0  3.98961  0  0  -0.15877  0  4.011679  0  0  -0.102336  -0.152926  0  3.974465  0
C  C79  1  0.40017483  0.96912439  0.33628567  1  0  -0.1378  0  3.748475  0  0  -0.155489  0  3.989672  0  0  -0.158937  0  4.011741  0  0  -0.102409  -0.153097  0  3.974531  0
C  C80  1  0.68939128  0.17652816  0.66527845  1  0  -0.064783  0  3.775855  0  0  -0.072966  0  4.017087  0  0  -0.074677  0  4.038932  0  0  -0.096833  -0.071608  0  4.001754  0
C  C81  1  0.31060660  0.82347144  0.33471937  1  0  -0.064733  0  3.775855  0  0  -0.0729  0  4.017079  0  0  -0.074621  0  4.038946  0  0  -0.096838  -0.071541  0  4.001743  0
C  C82  1  0.78394228  0.19941426  0.59801512  1  0  -0.078551  0  3.76827  0  0  -0.090657  0  4.013358  0  0  -0.09302  0  4.034845  0  0  -0.096456  -0.088613  0  3.998473  0
C  C83  1  0.21605972  0.80058075  0.40198167  1  0  -0.078512  0  3.768101  0  0  -0.090619  0  4.013193  0  0  -0.092974  0  4.034685  0  0  -0.096388  -0.088576  0  3.998314  0
C  C84  1  0.79392556  0.07515746  0.53083070  1  0  -0.067302  0  3.771366  0  0  -0.077689  0  4.017472  0  0  -0.079213  0  4.038466  0  0  -0.093511  -0.076498  0  4.003049  0
C  C85  1  0.20607707  0.92483982  0.46916893  1  0  -0.067247  0  3.771486  0  0  -0.077654  0  4.017611  0  0  -0.079175  0  4.0386  0  0  -0.093492  -0.076475  0  4.003204  0
C  C86  1  0.70721292  0.92967362  0.53038627  1  0  -0.117828  0  3.735981  0  0  -0.138296  0  3.981951  0  0  -0.141183  0  4.004447  0  0  -0.09289  -0.136477  0  3.967221  0
C  C87  1  0.29278575  0.07031918  0.46961189  1  0  -0.117878  0  3.736092  0  0  -0.138347  0  3.982086  0  0  -0.141224  0  4.004585  0  0  -0.092948  -0.136535  0  3.967355  0
S  S88  1  0.00744013  0.97394377  0.82691945  1  0  0.068599  0  2.514886  0  0  0.107506  0  2.89289  0  0  0.099468  0  2.893336  0  0  0.033236  0.114237  0  2.892253  0
S  S89  1  0.99255568  0.02605814  0.17307981  1  0  0.068586  0  2.51497  0  0  0.107491  0  2.892938  0  0  0.09945  0  2.893384  0  0  0.033238  0.114219  0  2.892308  0
S  S90  1  0.49338416  0.70898413  0.69375094  1  0  0.065109  0  2.572342  0  0  0.100693  0  2.961816  0  0  0.092588  0  2.961606  0  0  0.030944  0.105773  0  2.961949  0
S  S91  1  0.50661609  0.29101431  0.30624809  1  0  0.065115  0  2.572264  0  0  0.100705  0  2.961765  0  0  0.092599  0  2.961554  0  0  0.030943  0.105777  0  2.961904  0
Br  Br92  1  0.94894673  0.63627159  0.58649724  1  0  -0.431223  0  1.016753  0  0  -0.372514  0  1.322799  0  0  -0.389516  0  1.305288  0  0  -0.236745  -0.360767  0  1.335404  0
Br  Br93  1  0.05105612  0.36373138  0.41350568  1  0  -0.4312  0  1.01671  0  0  -0.3725  0  1.322772  0  0  -0.3895  0  1.305255  0  0  -0.236726  -0.360758  0  1.335371  0
Br  Br94  1  0.89098152  0.53701944  0.84940567  1  0  -0.422265  0  0.987493  0  0  -0.360907  0  1.272115  0  0  -0.377299  0  1.255276  0  0  -0.218623  -0.349262  0  1.284233  0
Br  Br95  1  0.10901833  0.46298243  0.15059506  1  0  -0.422279  0  0.987472  0  0  -0.360941  0  1.272117  0  0  -0.377332  0  1.255277  0  0  -0.218644  -0.3493  0  1.284233  0
