# generated using pymatgen
data_Zn2H12C27BrN2O8F5
_symmetry_space_group_name_H-M   'P 1'
_cell_length_a   9.97702560
_cell_length_b   11.13995417
_cell_length_c   24.36471679
_cell_angle_alpha   90.02433721
_cell_angle_beta   87.97520105
_cell_angle_gamma   90.14411994
_symmetry_Int_Tables_number   1
_chemical_formula_structural   Zn2H12C27BrN2O8F5
_chemical_formula_sum   'Zn4 H24 C54 Br2 N4 O16 F10'
_cell_volume   2706.28302877
_cell_formula_units_Z   2
loop_
 _symmetry_equiv_pos_site_id
 _symmetry_equiv_pos_as_xyz
  1  'x, y, z'
loop_
 _atom_site_type_symbol
 _atom_site_label
 _atom_site_symmetry_multiplicity
 _atom_site_fract_x
 _atom_site_fract_y
 _atom_site_fract_z
 _atom_site_occupancy
 _atom_site_pbe_bader_charge
 _atom_site_pbe_bader_spin_density
 _atom_site_pbe_cm5_charge
 _atom_site_pbe_ddec_charge
 _atom_site_pbe_ddec_spin_density
 _atom_site_pbe_ddec_sum_bond_order
 _atom_site_pbe_magmom
Zn  Zn0  1  0.63376252  0.50046322  0.49924883  1  1.306493  0  0.669803  0.847512  0  2.373363  0
Zn  Zn1  1  0.35079572  0.49857999  0.50134482  1  1.295711  0  0.668426  0.844088  0  2.373291  0
Zn  Zn2  1  0.36557341  0.50222775  0.04245749  1  1.312368  0  0.672797  0.854216  0  2.393079  0
Zn  Zn3  1  0.64798752  0.50199288  0.04660498  1  1.307058  0  0.665659  0.839771  0  2.350262  0
H  H4  1  0.10577289  0.61600230  0.61919336  1  0.092055  0  0.109081  0.130494  0  0.984259  0
H  H5  1  0.11835317  0.73468692  0.56997811  1  0.088496  0  0.110278  0.130199  0  0.999039  0
H  H6  1  0.86460183  0.74191283  0.56682212  1  0.111788  0  0.112124  0.142729  0  0.980751  0
H  H7  1  0.85280145  0.62373868  0.61664621  1  0.092829  0  0.108563  0.132258  0  0.98172  0
H  H8  1  0.19686095  0.88834937  0.46121755  1  0.081299  0  0.099729  0.11153  0  0.975291  0
H  H9  1  0.18488616  0.89481680  0.53441816  1  0.042694  0  0.091268  0.093958  0  1.014503  0
H  H10  1  0.18832099  0.11914199  0.53128300  1  0.060395  0  0.095359  0.106042  0  0.981017  0
H  H11  1  0.20289290  0.11496881  0.45815096  1  0.05552  0  0.096536  0.110473  0  0.987  0
H  H12  1  0.33100332  0.50532542  0.86537027  1  0.105443  0  0.094637  0.102505  0  1.059019  0
H  H13  1  0.75880236  0.49222101  0.87382815  1  0.093699  0  0.103161  0.117245  0  1.019857  0
H  H14  1  0.67647642  0.49774898  0.67962782  1  0.129893  0  0.094278  0.101286  0  1.058597  0
H  H15  1  0.24835383  0.50137984  0.67155614  1  0.105173  0  0.103159  0.11721  0  1.023341  0
H  H16  1  0.80796279  0.42425438  0.21983231  1  0.044345  0  0.092817  0.104943  0  0.994094  0
H  H17  1  0.81005347  0.58436837  0.21991355  1  0.020285  0  0.095317  0.106026  0  0.981234  0
H  H18  1  0.80264996  0.58382116  0.32342164  1  0.053265  0  0.096295  0.106797  0  0.979181  0
H  H19  1  0.80096383  0.42373323  0.32317886  1  0.069599  0  0.094083  0.107144  0  0.990648  0
H  H20  1  0.88662936  0.62039827  0.92705629  1  0.079787  0  0.108911  0.130938  0  0.985081  0
H  H21  1  0.88040321  0.73887492  0.97647094  1  0.102143  0  0.109855  0.129342  0  1.000635  0
H  H22  1  0.13443094  0.74320477  0.97659729  1  0.13843  0  0.112777  0.143052  0  0.977301  0
H  H23  1  0.14033677  0.62567222  0.92630441  1  0.096864  0  0.108016  0.130971  0  0.983246  0
H  H24  1  0.80323367  0.89163275  0.08353940  1  0.063556  0  0.098935  0.110926  0  0.976262  0
H  H25  1  0.81319059  0.89855760  0.01034507  1  0.018432  0  0.091307  0.094104  0  1.015042  0
H  H26  1  0.81052951  0.12269443  0.01378953  1  0.036975  0  0.095322  0.104939  0  0.980061  0
H  H27  1  0.79737621  0.11820071  0.08693656  1  0.068028  0  0.096122  0.109218  0  0.987043  0
C  C28  1  0.49828475  0.73448709  0.50310404  1  1.611485  0  0.216096  0.616981  0  4.17148  0
C  C29  1  0.47565855  0.49979296  0.60821719  1  1.568883  0  0.216154  0.594444  0  4.161659  0
C  C30  1  0.50435561  0.26659714  0.50060587  1  1.584721  0  0.217679  0.620463  0  4.16426  0
C  C31  1  0.48879749  0.50504859  0.39400311  1  1.585714  0  0.217442  0.62108  0  4.165204  0
C  C32  1  0.49976250  0.73689635  0.04240117  1  1.54659  0  0.216332  0.616834  0  4.168571  0
C  C33  1  0.52881435  0.50152819  0.93699209  1  1.549124  0  0.217297  0.595592  0  4.160832  0
C  C34  1  0.49481489  0.26912618  0.04459302  1  1.534343  0  0.21754  0.621528  0  4.163926  0
C  C35  1  0.50464292  0.50657770  0.15093610  1  1.610362  0  0.216355  0.620066  0  4.161329  0
C  C36  1  0.05904727  0.56087965  0.53496881  1  0.558332  0  0.136691  0.190314  0  3.878507  0
C  C37  1  0.92411607  0.42938029  0.46577385  1  1.184436  0  0.254392  0.289256  0  4.052098  0
C  C38  1  0.92018819  0.56424917  0.53374218  1  0.527185  0  0.139021  0.196792  0  3.869232  0
C  C39  1  0.06578409  0.42628951  0.46690928  1  1.240357  0  0.253248  0.28854  0  4.054358  0
C  C40  1  0.06584947  0.65105836  0.58102757  1  -0.051845  0  -0.134763  -0.217  0  3.81556  0
C  C41  1  0.90655473  0.65564691  0.57936487  1  -0.021777  0  -0.134673  -0.22062  0  3.802032  0
C  C42  1  0.50285961  0.86888594  0.50250108  1  0.049911  0  -0.018182  -0.161048  0  3.975777  0
C  C43  1  0.50672522  0.13244784  0.50063881  1  0.068211  0  -0.017325  -0.15647  0  3.968191  0
C  C44  1  0.38726178  0.93912168  0.50007740  1  -0.079017  0  -0.010442  0.057933  0  3.914376  0
C  C45  1  0.62421240  0.06291593  0.50299015  1  0.412383  0  0.09572  0.157053  0  4.043742  0
C  C46  1  0.38931420  0.06421993  0.49896165  1  0.01922  0  -0.00785  0.065388  0  3.912884  0
C  C47  1  0.62215230  0.93685420  0.50382413  1  0.587093  0  0.093135  0.150498  0  4.040036  0
C  C48  1  0.23579141  0.93269131  0.49764168  1  -0.02414  0  -0.149958  -0.188758  0  3.883524  0
C  C49  1  0.23840348  0.07445314  0.49602115  1  -0.011572  0  -0.151681  -0.194122  0  3.880349  0
C  C50  1  0.42898197  0.50351561  0.84438550  1  -0.054688  0  -0.085957  -0.136471  0  3.943791  0
C  C51  1  0.67061221  0.49642968  0.84891956  1  -0.03873  0  -0.093702  -0.155201  0  3.985734  0
C  C52  1  0.68164782  0.49666994  0.79251496  1  -0.087635  0  -0.017533  0.0648  0  3.96171  0
C  C53  1  0.56865766  0.49996273  0.75868075  1  -0.035564  0  -0.007576  0.045227  0  3.987865  0
C  C54  1  0.57857156  0.49976072  0.70067742  1  0.038068  0  -0.085561  -0.136704  0  3.941013  0
C  C55  1  0.33666397  0.50243618  0.69646358  1  0.063881  0  -0.09435  -0.156512  0  3.987968  0
C  C56  1  0.32586804  0.50482212  0.75278721  1  -0.13036  0  -0.017305  0.067577  0  3.962872  0
C  C57  1  0.43908400  0.50304438  0.78645772  1  -0.007356  0  -0.007757  0.043799  0  3.992601  0
C  C58  1  0.54214849  0.50055179  0.87535707  1  0.114467  0  -0.013176  -0.001742  0  3.96528  0
C  C59  1  0.46503771  0.50070566  0.66988549  1  -0.049672  0  -0.01211  0.000232  0  3.963236  0
C  C60  1  0.49689200  0.50662878  0.21228868  1  -0.001727  0  -0.018232  -0.159484  0  3.97207  0
C  C61  1  0.48892347  0.50562614  0.33269396  1  0.026236  0  -0.018265  -0.16064  0  3.973844  0
C  C62  1  0.61187280  0.50583569  0.24349650  1  -0.008484  0  -0.008928  0.062457  0  3.90857  0
C  C63  1  0.37212874  0.50654010  0.30172306  1  0.45715  0  0.09503  0.156491  0  4.040078  0
C  C64  1  0.60799932  0.50512580  0.30072089  1  0.030052  0  -0.009154  0.063073  0  3.912875  0
C  C65  1  0.37597016  0.50684528  0.24401715  1  0.56188  0  0.094909  0.154636  0  4.044243  0
C  C66  1  0.76384966  0.50462564  0.23923318  1  0.028194  0  -0.152295  -0.192389  0  3.878737  0
C  C67  1  0.75934289  0.50414974  0.30416044  1  -0.013644  0  -0.151873  -0.191957  0  3.876558  0
C  C68  1  0.93891626  0.56421021  0.01043650  1  0.475484  0  0.136911  0.192191  0  3.874772  0
C  C69  1  0.07678339  0.43109228  0.07783359  1  1.15261  0  0.254803  0.292756  0  4.051775  0
C  C70  1  0.07801362  0.56591870  0.00987368  1  0.557672  0  0.139418  0.19626  0  3.869958  0
C  C71  1  0.93490406  0.42987895  0.07846122  1  1.260798  0  0.252816  0.2844  0  4.055325  0
C  C72  1  0.93033855  0.65472428  0.96465335  1  0.010995  0  -0.135186  -0.216943  0  3.81428  0
C  C73  1  0.08993832  0.65757701  0.96430230  1  -0.071099  0  -0.13478  -0.220454  0  3.801342  0
C  C74  1  0.49600909  0.87131623  0.04335108  1  0.059342  0  -0.019047  -0.162194  0  3.974777  0
C  C75  1  0.49266156  0.13496114  0.04528794  1  0.168482  0  -0.017314  -0.157265  0  3.969903  0
C  C76  1  0.61174673  0.94195705  0.04561819  1  0.051866  0  -0.010108  0.059079  0  3.913101  0
C  C77  1  0.37496392  0.06502512  0.04336516  1  0.537037  0  0.096054  0.156754  0  4.044027  0
C  C78  1  0.60992400  0.06705914  0.04682029  1  -0.131377  0  -0.008318  0.064323  0  3.914212  0
C  C79  1  0.37674568  0.93897437  0.04245666  1  0.472664  0  0.093678  0.151793  0  4.040826  0
C  C80  1  0.76331391  0.93603889  0.04738948  1  -0.019247  0  -0.150187  -0.190353  0  3.884187  0
C  C81  1  0.76092794  0.07777997  0.04915364  1  0.049985  0  -0.151384  -0.191413  0  3.878238  0
Br  Br82  1  0.15183897  0.51014703  0.78667801  1  -0.065579  0  0.020371  -0.080152  0  1.68307  0
Br  Br83  1  0.85575528  0.49189797  0.75868344  1  -0.06609  0  0.019547  -0.079789  0  1.680222  0
N  N84  1  0.13604095  0.49244974  0.50143918  1  -1.207965  0  -0.276427  -0.251155  0  3.431768  0
N  N85  1  0.84853675  0.49867715  0.49905756  1  -1.21595  0  -0.2749  -0.248288  0  3.423519  0
N  N86  1  0.86308213  0.49673474  0.04496939  1  -1.208942  0  -0.276933  -0.252832  0  3.434323  0
N  N87  1  0.15111689  0.49962788  0.04359904  1  -1.222872  0  -0.274296  -0.247406  0  3.420174  0
O  O88  1  0.61037392  0.67974578  0.49954801  1  -1.154738  0  -0.320673  -0.547978  0  2.355564  0
O  O89  1  0.38255898  0.68633729  0.50686323  1  -1.160249  0  -0.311924  -0.540689  0  2.265851  0
O  O90  1  0.36423214  0.49361729  0.58399308  1  -1.164027  0  -0.320251  -0.548367  0  2.336406  0
O  O91  1  0.59182184  0.50529319  0.58537957  1  -1.166141  0  -0.313356  -0.542929  0  2.284378  0
O  O92  1  0.38930414  0.31501468  0.49824611  1  -1.152295  0  -0.312677  -0.544772  0  2.301058  0
O  O93  1  0.61619469  0.32115469  0.50316204  1  -1.148206  0  -0.321015  -0.54921  0  2.374568  0
O  O94  1  0.60292244  0.49722783  0.41545603  1  -1.157517  0  -0.312008  -0.542247  0  2.303463  0
O  O95  1  0.37577659  0.51242936  0.41979371  1  -1.150807  0  -0.322517  -0.552096  0  2.380801  0
O  O96  1  0.38737193  0.68234446  0.04336588  1  -1.154547  0  -0.319979  -0.545779  0  2.353379  0
O  O97  1  0.61538697  0.68840044  0.04085522  1  -1.157343  0  -0.313155  -0.543155  0  2.267778  0
O  O98  1  0.63783156  0.49522385  0.96279784  1  -1.171357  0  -0.319511  -0.551639  0  2.323496  0
O  O99  1  0.41099428  0.50880323  0.95820441  1  -1.166208  0  -0.314653  -0.540453  0  2.304228  0
O  O100  1  0.60877595  0.31871132  0.05012000  1  -1.157161  0  -0.314183  -0.54751  0  2.3007  0
O  O101  1  0.38401583  0.32245044  0.03803163  1  -1.145577  0  -0.320489  -0.548011  0  2.368421  0
O  O102  1  0.39652688  0.49746440  0.12534149  1  -1.157533  0  -0.317152  -0.552768  0  2.360741  0
O  O103  1  0.62276430  0.51515631  0.12916503  1  -1.141352  0  -0.31603  -0.541428  0  2.315749  0
F  F104  1  0.86354749  0.36016491  0.42971845  1  -0.602279  0  -0.043654  -0.079369  0  1.412104  0
F  F105  1  0.13174632  0.35382941  0.43211212  1  -0.6007  0  -0.04393  -0.079247  0  1.412012  0
F  F106  1  0.74723345  0.11412876  0.50475622  1  -0.615819  0  -0.103745  -0.121718  0  1.390608  0
F  F107  1  0.74412326  0.88367423  0.50651875  1  -0.622552  0  -0.099548  -0.125531  0  1.406165  0
F  F108  1  0.24800411  0.50686213  0.32611866  1  -0.611377  0  -0.103992  -0.122064  0  1.392972  0
F  F109  1  0.25522648  0.50813510  0.22031865  1  -0.61424  0  -0.103291  -0.120129  0  1.390645  0
F  F110  1  0.13846955  0.36105740  0.11294220  1  -0.592422  0  -0.043653  -0.073059  0  1.407946  0
F  F111  1  0.86991276  0.35827551  0.11419737  1  -0.604983  0  -0.043523  -0.085161  0  1.417344  0
F  F112  1  0.25191151  0.11579483  0.04240911  1  -0.612202  0  -0.103337  -0.120978  0  1.392472  0
F  F113  1  0.25451592  0.88562518  0.04032844  1  -0.620872  0  -0.099478  -0.124876  0  1.406745  0
