# generated using pymatgen
data_NaH20C13SNO10
_symmetry_space_group_name_H-M   'P 1'
_cell_length_a   8.30852520
_cell_length_b   8.98454274
_cell_length_c   12.17609659
_cell_angle_alpha   89.99998713
_cell_angle_beta   89.99999782
_cell_angle_gamma   116.67300219
_symmetry_Int_Tables_number   1
_chemical_formula_structural   NaH20C13SNO10
_chemical_formula_sum   'Na2 H40 C26 S2 N2 O20'
_cell_volume   812.19985352
_cell_formula_units_Z   2
loop_
 _symmetry_equiv_pos_site_id
 _symmetry_equiv_pos_as_xyz
  1  'x, y, z'
loop_
 _atom_site_type_symbol
 _atom_site_label
 _atom_site_symmetry_multiplicity
 _atom_site_fract_x
 _atom_site_fract_y
 _atom_site_fract_z
 _atom_site_occupancy
 _atom_site_hle17_bader_spin_density
 _atom_site_hle17_ddec_charge
 _atom_site_hle17_ddec_spin_density
 _atom_site_hle17_ddec_sum_bond_order
 _atom_site_hle17_magmom
 _atom_site_hse06_10hf_bader_spin_density
 _atom_site_hse06_10hf_ddec_charge
 _atom_site_hse06_10hf_ddec_spin_density
 _atom_site_hse06_10hf_ddec_sum_bond_order
 _atom_site_hse06_10hf_magmom
 _atom_site_hse06_bader_spin_density
 _atom_site_hse06_ddec_charge
 _atom_site_hse06_ddec_spin_density
 _atom_site_hse06_ddec_sum_bond_order
 _atom_site_hse06_magmom
 _atom_site_pbe_bader_spin_density
 _atom_site_pbe_cm5_charge
 _atom_site_pbe_ddec_charge
 _atom_site_pbe_ddec_spin_density
 _atom_site_pbe_ddec_sum_bond_order
 _atom_site_pbe_magmom
Na  Na0  1  0.88398253  0.54373201  0.87876186  1  0  0.886332  0  0.376653  0  0  0.816398  0  0.547838  0  0  0.82991  0  0.525756  0  0  0.630236  0.806666  0  0.563395  0
Na  Na1  1  0.11601661  0.45626696  0.37876174  1  0  0.88633  0  0.376654  0  0  0.816393  0  0.547844  0  0  0.829904  0  0.525764  0  0  0.630226  0.806659  0  0.563402  0
H  H2  1  0.61346697  0.77460294  0.67206178  1  0  0.046504  0  0.91012  0  0  0.05723  0  0.970977  0  0  0.058119  0  0.970251  0  0  0.105485  0.056807  0  0.971177  0
H  H3  1  0.38653341  0.22539860  0.17206169  1  0  0.04653  0  0.910086  0  0  0.057258  0  0.970937  0  0  0.058148  0  0.970211  0  0  0.105503  0.056837  0  0.971138  0
H  H4  1  0.98722252  0.06766795  0.88533626  1  0  0.054221  0  0.907567  0  0  0.064027  0  0.970174  0  0  0.064882  0  0.968972  0  0  0.109061  0.063203  0  0.971252  0
H  H5  1  0.01277842  0.93233226  0.38533688  1  0  0.054188  0  0.907562  0  0  0.064012  0  0.970166  0  0  0.064866  0  0.968966  0  0  0.109039  0.063185  0  0.971247  0
H  H6  1  0.63691426  0.74362122  0.88418230  1  0  0.047548  0  0.930664  0  0  0.054489  0  1.002599  0  0  0.055385  0  1.001774  0  0  0.104997  0.053881  0  1.002978  0
H  H7  1  0.36308607  0.25638024  0.38418139  1  0  0.047558  0  0.930733  0  0  0.054496  0  1.002654  0  0  0.055394  0  1.001827  0  0  0.104985  0.053887  0  1.003032  0
H  H8  1  0.65404271  0.12242575  0.61424938  1  0  0.078865  0  0.951458  0  0  0.087969  0  1.022245  0  0  0.088884  0  1.021649  0  0  0.111045  0.087226  0  1.022697  0
H  H9  1  0.34595950  0.87757458  0.11425000  1  0  0.0789  0  0.951414  0  0  0.087975  0  1.022233  0  0  0.088891  0  1.021637  0  0  0.111051  0.087234  0  1.022684  0
H  H10  1  0.45990198  0.93081154  0.59743851  1  0  0.064286  0  0.966803  0  0  0.074182  0  1.037858  0  0  0.074656  0  1.037374  0  0  0.101833  0.073743  0  1.038359  0
H  H11  1  0.54009903  0.06918880  0.09743844  1  0  0.064269  0  0.966817  0  0  0.074187  0  1.037849  0  0  0.074664  0  1.037359  0  0  0.101837  0.073749  0  1.038349  0
H  H12  1  0.09098658  0.97477581  0.72658417  1  0  0.044443  0  0.935369  0  0  0.049935  0  1.001325  0  0  0.050161  0  1.000186  0  0  0.115095  0.0496  0  1.002485  0
H  H13  1  0.90901320  0.02522198  0.22658409  1  0  0.044423  0  0.935376  0  0  0.049929  0  1.001327  0  0  0.050148  0  1.000185  0  0  0.115094  0.049596  0  1.002486  0
H  H14  1  0.68801979  0.08687022  0.80692772  1  0  0.054101  0  0.905046  0  0  0.065383  0  0.965366  0  0  0.066154  0  0.964821  0  0  0.11425  0.065091  0  0.965241  0
H  H15  1  0.31198116  0.91313252  0.30692833  1  0  0.054079  0  0.905113  0  0  0.065381  0  0.965405  0  0  0.066152  0  0.964859  0  0  0.114258  0.065089  0  0.965279  0
H  H16  1  0.80213217  0.50222628  0.43947084  1  0  0.081831  0  0.977904  0  0  0.088619  0  1.051516  0  0  0.089991  0  1.050213  0  0  0.104398  0.087361  0  1.052709  0
H  H17  1  0.19786815  0.49777267  0.93947099  1  0  0.081829  0  0.977908  0  0  0.088621  0  1.051514  0  0  0.089992  0  1.050212  0  0  0.104397  0.087363  0  1.052707  0
H  H18  1  0.64025356  0.30733969  0.49518411  1  0  0.078194  0  0.943583  0  0  0.084559  0  1.016699  0  0  0.08615  0  1.015027  0  0  0.10387  0.083316  0  1.017964  0
H  H19  1  0.35974735  0.69266048  0.99518505  1  0  0.078199  0  0.94358  0  0  0.084566  0  1.016692  0  0  0.086157  0  1.01502  0  0  0.103877  0.083324  0  1.017958  0
H  H20  1  0.62791066  0.48699687  0.63854449  1  0  0.075011  0  0.930278  0  0  0.083162  0  0.992414  0  0  0.083657  0  0.992364  0  0  0.117024  0.082911  0  0.992087  0
H  H21  1  0.37208794  0.51300095  0.13854435  1  0  0.075013  0  0.930318  0  0  0.083165  0  0.992417  0  0  0.083659  0  0.992366  0  0  0.117034  0.082916  0  0.992089  0
H  H22  1  0.87431801  0.75526238  0.55995278  1  0  0.065193  0  0.920514  0  0  0.068442  0  0.992109  0  0  0.070414  0  0.990002  0  0  0.108641  0.066966  0  0.993728  0
H  H23  1  0.12568060  0.24473547  0.05995351  1  0  0.065233  0  0.920525  0  0  0.068489  0  0.992114  0  0  0.070461  0  0.990011  0  0  0.108679  0.067015  0  0.993734  0
H  H24  1  0.23969777  0.55483555  0.61637482  1  0  0.05112  0  0.905152  0  0  0.059856  0  0.966213  0  0  0.061584  0  0.964364  0  0  0.108209  0.058485  0  0.967704  0
H  H25  1  0.76030203  0.44516477  0.11637469  1  0  0.051088  0  0.905185  0  0  0.059828  0  0.966243  0  0  0.061556  0  0.964394  0  0  0.10821  0.058456  0  0.967735  0
H  H26  1  0.18837142  0.81992316  0.65094746  1  0  0.049141  0  0.937681  0  0  0.056584  0  1.006536  0  0  0.057952  0  1.004751  0  0  0.109974  0.055484  0  1.008068  0
H  H27  1  0.81162657  0.18007589  0.15094736  1  0  0.049131  0  0.937689  0  0  0.056578  0  1.006555  0  0  0.057945  0  1.004772  0  0  0.109967  0.055479  0  1.008088  0
H  H28  1  0.97334918  0.28958265  0.67628156  1  0  0.065095  0  0.899388  0  0  0.068248  0  0.964167  0  0  0.069505  0  0.962107  0  0  0.127615  0.067689  0  0.965195  0
H  H29  1  0.02665000  0.71041640  0.17628057  1  0  0.065124  0  0.899371  0  0  0.068273  0  0.964154  0  0  0.069531  0  0.962093  0  0  0.127621  0.067715  0  0.965182  0
H  H30  1  0.40910680  0.93053166  0.87814423  1  0  0.378362  0  0.890805  0  0  0.349717  0  0.966785  0  0  0.36079  0  0.953715  0  0  0.302516  0.341856  0  0.976012  0
H  H31  1  0.59089293  0.06946856  0.37814416  1  0  0.378381  0  0.89078  0  0  0.349734  0  0.966765  0  0  0.360806  0  0.953697  0  0  0.302519  0.341871  0  0.975994  0
H  H32  1  0.62079079  0.86342581  0.46262848  1  0  0.32111  0  0.966899  0  0  0.290804  0  1.058074  0  0  0.2998  0  1.049489  0  0  0.262553  0.284644  0  1.063776  0
H  H33  1  0.37921013  0.13657438  0.96262868  1  0  0.321102  0  0.966902  0  0  0.290795  0  1.058079  0  0  0.299791  0  1.049493  0  0  0.262551  0.284636  0  1.063782  0
H  H34  1  0.69032705  0.87136277  0.05279434  1  0  0.390379  0  0.892343  0  0  0.357729  0  0.97819  0  0  0.368777  0  0.964745  0  0  0.295949  0.349894  0  0.987713  0
H  H35  1  0.30967518  0.12863759  0.55279373  1  0  0.390398  0  0.892327  0  0  0.357744  0  0.978181  0  0  0.368792  0  0.964733  0  0  0.29595  0.349906  0  0.987703  0
H  H36  1  0.20782304  0.84317837  0.48120176  1  0  0.364422  0  0.928097  0  0  0.337871  0  1.007358  0  0  0.347967  0  0.995627  0  0  0.292124  0.330833  0  1.015396  0
H  H37  1  0.79217607  0.15681808  0.98120195  1  0  0.364387  0  0.928138  0  0  0.337838  0  1.007398  0  0  0.347933  0  0.995668  0  0  0.292102  0.330799  0  1.015437  0
H  H38  1  0.26657210  0.68583087  0.78706416  1  0  0.373237  0  0.912801  0  0  0.350148  0  0.982936  0  0  0.359864  0  0.97194  0  0  0.299451  0.34323  0  0.990776  0
H  H39  1  0.73342706  0.31416814  0.28706405  1  0  0.373233  0  0.912806  0  0  0.350141  0  0.982947  0  0  0.359858  0  0.971951  0  0  0.299444  0.343224  0  0.990788  0
H  H40  1  0.08606670  0.90025012  0.96287993  1  0  0.379203  0  0.896556  0  0  0.350588  0  0.977331  0  0  0.361294  0  0.964192  0  0  0.299504  0.342948  0  0.986726  0
H  H41  1  0.91393422  0.09975006  0.46288067  1  0  0.379193  0  0.89657  0  0  0.350579  0  0.977343  0  0  0.361285  0  0.964206  0  0  0.299498  0.34294  0  0.986737  0
C  C42  1  0.76753555  0.41876062  0.51029321  1  0  0.013002  0  3.592607  0  0  -0.050158  0  3.857319  0  0  -0.044244  0  3.861299  0  0  -0.084725  -0.054009  0  3.854529  0
C  C43  1  0.23246488  0.58123850  0.01029307  1  0  0.013007  0  3.592591  0  0  -0.0502  0  3.8573  0  0  -0.044282  0  3.861272  0  0  -0.084751  -0.05405  0  3.854514  0
C  C44  1  0.67385854  0.91112322  0.68379705  1  0  0.117461  0  3.605316  0  0  0.088053  0  3.867251  0  0  0.092668  0  3.87685  0  0  -0.006984  0.084674  0  3.860794  0
C  C45  1  0.32614245  0.08887708  0.18379699  1  0  0.117418  0  3.605233  0  0  0.088017  0  3.867176  0  0  0.092629  0  3.876774  0  0  -0.006987  0.084631  0  3.860737  0
C  C46  1  0.91024941  0.93354730  0.86678837  1  0  0.110203  0  3.644422  0  0  0.080069  0  3.902958  0  0  0.084396  0  3.91075  0  0  -0.013359  0.077021  0  3.898068  0
C  C47  1  0.08975213  0.06645417  0.36678831  1  0  0.110256  0  3.644264  0  0  0.080086  0  3.902843  0  0  0.084405  0  3.910631  0  0  -0.01334  0.077037  0  3.897953  0
C  C48  1  0.70984593  0.88101172  0.88627081  1  0  0.135759  0  3.624129  0  0  0.102029  0  3.881275  0  0  0.107602  0  3.889856  0  0  -0.013519  0.097931  0  3.875846  0
C  C49  1  0.29015681  0.11899223  0.38627074  1  0  0.13574  0  3.624196  0  0  0.102068  0  3.881234  0  0  0.107633  0  3.889833  0  0  -0.013476  0.097969  0  3.875805  0
C  C50  1  0.60719644  0.99017305  0.59593474  1  0  0.08039  0  3.597562  0  0  0.012467  0  3.871897  0  0  0.020036  0  3.875668  0  0  -0.080943  0.007321  0  3.869489  0
C  C51  1  0.39280457  0.00982728  0.09593468  1  0  0.080425  0  3.597491  0  0  0.012507  0  3.871842  0  0  0.020073  0  3.875613  0  0  -0.080932  0.007362  0  3.869437  0
C  C52  1  0.76202872  0.50157158  0.61709426  1  0  0.115917  0  3.608  0  0  0.087765  0  3.862818  0  0  0.092229  0  3.872382  0  0  -0.009514  0.084845  0  3.855859  0
C  C53  1  0.23796987  0.49842625  0.11709413  1  0  0.115841  0  3.60805  0  0  0.08779  0  3.862705  0  0  0.09226  0  3.872252  0  0  -0.009514  0.084866  0  3.855753  0
C  C54  1  0.90213956  0.68261293  0.62352159  1  0  0.088416  0  3.584319  0  0  0.059482  0  3.837259  0  0  0.064368  0  3.845408  0  0  -0.009102  0.056122  0  3.831489  0
C  C55  1  0.09785964  0.31738614  0.12352150  1  0  0.088463  0  3.584212  0  0  0.059475  0  3.837195  0  0  0.064354  0  3.845348  0  0  -0.009106  0.056115  0  3.831431  0
C  C56  1  0.12489702  0.56129821  0.65815505  1  0  0.10569  0  3.642092  0  0  0.075824  0  3.89739  0  0  0.080298  0  3.905081  0  0  -0.014245  0.072624  0  3.892453  0
C  C57  1  0.87510277  0.43870209  0.15815408  1  0  0.105737  0  3.642119  0  0  0.075874  0  3.897429  0  0  0.080348  0  3.90512  0  0  -0.014267  0.072676  0  3.892495  0
C  C58  1  0.09692662  0.70514296  0.60757314  1  0  0.13507  0  3.591663  0  0  0.108003  0  3.84439  0  0  0.113028  0  3.852937  0  0  -0.012224  0.104527  0  3.838769  0
C  C59  1  0.90307258  0.29485612  0.10757303  1  0  0.135118  0  3.591538  0  0  0.108014  0  3.844353  0  0  0.113036  0  3.852906  0  0  -0.012209  0.104537  0  3.838736  0
C  C60  1  0.95665463  0.39548738  0.64295806  1  0  0.313763  0  3.574507  0  0  0.271002  0  3.840876  0  0  0.283302  0  3.842994  0  0  0.085876  0.262022  0  3.839873  0
C  C61  1  0.04334577  0.60451169  0.14295791  1  0  0.313676  0  3.574622  0  0  0.270895  0  3.841011  0  0  0.283195  0  3.843129  0  0  0.085829  0.261914  0  3.84001  0
C  C62  1  0.94650214  0.90912048  0.74615940  1  0  0.304933  0  3.640922  0  0  0.2543  0  3.921192  0  0  0.268042  0  3.922777  0  0  0.078869  0.244656  0  3.92029  0
C  C63  1  0.05349702  0.09087855  0.24615934  1  0  0.304978  0  3.640822  0  0  0.254315  0  3.921164  0  0  0.268086  0  3.92269  0  0  0.078865  0.244673  0  3.920263  0
C  C64  1  0.39188597  0.29298622  0.76676212  1  0  0.300413  0  3.990998  0  0  0.283552  0  4.298626  0  0  0.302647  0  4.311296  0  0  0.139458  0.270474  0  4.289788  0
C  C65  1  0.60811620  0.70701405  0.26676194  1  0  0.300467  0  3.991063  0  0  0.283607  0  4.298688  0  0  0.3027  0  4.311364  0  0  0.139502  0.270527  0  4.28986  0
C  C66  1  0.62845743  0.94980427  0.79912711  1  0  0.146452  0  3.592936  0  0  0.114745  0  3.852707  0  0  0.119459  0  3.861968  0  0  -0.002492  0.111458  0  3.846208  0
C  C67  1  0.37154413  0.05019723  0.29912705  1  0  0.146464  0  3.592987  0  0  0.114745  0  3.852719  0  0  0.11946  0  3.861982  0  0  -0.002496  0.11146  0  3.84622  0
S  S68  1  0.46711921  0.37494272  0.88810560  1  0  -0.42943  0  2.00845  0  0  -0.397565  0  2.313709  0  0  -0.411559  0  2.302978  0  0  -0.159909  -0.387571  0  2.320002  0
S  S69  1  0.53288173  0.62505750  0.38810626  1  0  -0.429431  0  2.008469  0  0  -0.397562  0  2.313726  0  0  -0.411558  0  2.302996  0  0  -0.159915  -0.387567  0  2.320021  0
N  N70  1  0.33839137  0.23586130  0.67876020  1  0  -0.514582  0  2.692764  0  0  -0.475602  0  2.929449  0  0  -0.490487  0  2.93552  0  0  -0.359018  -0.465508  0  2.925467  0
N  N71  1  0.66160963  0.76413652  0.17876001  1  0  -0.51462  0  2.692812  0  0  -0.475651  0  2.929503  0  0  -0.490533  0  2.935578  0  0  -0.359055  -0.465555  0  2.925522  0
O  O72  1  0.87661100  0.73460978  0.73103059  1  0  -0.40422  0  2.331126  0  0  -0.347457  0  2.591538  0  0  -0.362764  0  2.590465  0  0  -0.253572  -0.336869  0  2.59175  0
O  O73  1  0.12338696  0.26538924  0.23103132  1  0  -0.404275  0  2.331036  0  0  -0.347491  0  2.591484  0  0  -0.362797  0  2.590397  0  0  -0.253575  -0.336901  0  2.591696  0
O  O74  1  0.14414809  0.72068190  0.49348075  1  0  -0.609126  0  2.046445  0  0  -0.573478  0  2.287456  0  0  -0.587474  0  2.274227  0  0  -0.432571  -0.56348  0  2.296041  0
O  O75  1  0.85585162  0.27931578  0.99348091  1  0  -0.609111  0  2.046437  0  0  -0.573441  0  2.287438  0  0  -0.587437  0  2.274211  0  0  -0.432544  -0.563449  0  2.29604  0
O  O76  1  0.67030280  0.98244712  0.48684641  1  0  -0.527725  0  2.17032  0  0  -0.456637  0  2.385676  0  0  -0.475674  0  2.375596  0  0  -0.378835  -0.443334  0  2.392313  0
O  O77  1  0.32969811  0.01755305  0.98684581  1  0  -0.52773  0  2.170308  0  0  -0.456642  0  2.385669  0  0  -0.475688  0  2.375611  0  0  -0.378844  -0.443338  0  2.392307  0
O  O78  1  0.86644292  0.98085091  0.67376263  1  0  -0.344536  0  2.204523  0  0  -0.288217  0  2.454445  0  0  -0.303517  0  2.453146  0  0  -0.210442  -0.277007  0  2.453964  0
O  O79  1  0.13355506  0.01914814  0.17376340  1  0  -0.344529  0  2.204411  0  0  -0.288231  0  2.454359  0  0  -0.303529  0  2.453042  0  0  -0.210459  -0.277019  0  2.453881  0
O  O80  1  0.80813956  0.40438568  0.69599394  1  0  -0.391383  0  2.157853  0  0  -0.334915  0  2.402195  0  0  -0.350441  0  2.401245  0  0  -0.248452  -0.324266  0  2.402509  0
O  O81  1  0.19185962  0.59561336  0.19599462  1  0  -0.391361  0  2.157881  0  0  -0.334902  0  2.402182  0  0  -0.350429  0  2.40123  0  0  -0.248432  -0.324248  0  2.402497  0
O  O82  1  0.96017055  0.83587302  0.93785056  1  0  -0.58573  0  2.104579  0  0  -0.54804  0  2.347146  0  0  -0.56144  0  2.332838  0  0  -0.440051  -0.538479  0  2.356828  0
O  O83  1  0.03982856  0.16412841  0.43785131  1  0  -0.585764  0  2.104561  0  0  -0.548063  0  2.347131  0  0  -0.561462  0  2.33282  0  0  -0.440066  -0.538502  0  2.356812  0
O  O84  1  0.68366321  0.94093227  0.99005119  1  0  -0.581868  0  2.135021  0  0  -0.522176  0  2.367777  0  0  -0.540205  0  2.355886  0  0  -0.390512  -0.509648  0  2.376024  0
O  O85  1  0.31633589  0.05906666  0.49005031  1  0  -0.58186  0  2.135042  0  0  -0.522184  0  2.367789  0  0  -0.540211  0  2.355898  0  0  -0.390519  -0.509658  0  2.376034  0
O  O86  1  0.43684560  0.88232059  0.81130015  1  0  -0.561605  0  2.08556  0  0  -0.50507  0  2.30924  0  0  -0.521942  0  2.297212  0  0  -0.387901  -0.492961  0  2.317424  0
O  O87  1  0.56315475  0.11768090  0.31130008  1  0  -0.56162  0  2.085555  0  0  -0.505091  0  2.309233  0  0  -0.521963  0  2.297207  0  0  -0.387909  -0.492981  0  2.317419  0
O  O88  1  0.15382756  0.58179297  0.77352124  1  0  -0.591855  0  2.101617  0  0  -0.549044  0  2.335081  0  0  -0.563724  0  2.322855  0  0  -0.443843  -0.538649  0  2.343486  0
O  O89  1  0.84617219  0.41820729  0.27352029  1  0  -0.591879  0  2.101667  0  0  -0.54906  0  2.335117  0  0  -0.56374  0  2.322892  0  0  -0.443836  -0.538665  0  2.343526  0
O  O90  1  0.90900805  0.36821311  0.52892152  1  0  -0.374017  0  2.192093  0  0  -0.304888  0  2.435207  0  0  -0.320513  0  2.433966  0  0  -0.275825  -0.293744  0  2.435635  0
O  O91  1  0.09099238  0.63178601  0.02892137  1  0  -0.373991  0  2.192104  0  0  -0.304843  0  2.43521  0  0  -0.320469  0  2.433967  0  0  -0.275801  -0.293699  0  2.435639  0
