# generated using pymatgen
data_FeH12C18(S3N5)2
_symmetry_space_group_name_H-M   'P 1'
_cell_length_a   7.96298667
_cell_length_b   10.23441622
_cell_length_c   15.74025106
_cell_angle_alpha   88.81554400
_cell_angle_beta   89.98140030
_cell_angle_gamma   114.10435420
_symmetry_Int_Tables_number   1
_chemical_formula_structural   FeH12C18(S3N5)2
_chemical_formula_sum   'Fe2 H24 C36 S12 N20'
_cell_volume   1170.61746731
_cell_formula_units_Z   2
loop_
 _symmetry_equiv_pos_site_id
 _symmetry_equiv_pos_as_xyz
  1  'x, y, z'
loop_
 _atom_site_type_symbol
 _atom_site_label
 _atom_site_symmetry_multiplicity
 _atom_site_fract_x
 _atom_site_fract_y
 _atom_site_fract_z
 _atom_site_occupancy
 _atom_site_hle17_ddec_charge
 _atom_site_hle17_ddec_spin_density
 _atom_site_hle17_ddec_sum_bond_order
 _atom_site_hle17_magmom
 _atom_site_hse06_10hf_ddec_charge
 _atom_site_hse06_10hf_ddec_spin_density
 _atom_site_hse06_10hf_ddec_sum_bond_order
 _atom_site_hse06_10hf_magmom
 _atom_site_hse06_ddec_charge
 _atom_site_hse06_ddec_spin_density
 _atom_site_hse06_ddec_sum_bond_order
 _atom_site_hse06_magmom
 _atom_site_pbe_cm5_charge
 _atom_site_pbe_ddec_charge
 _atom_site_pbe_ddec_spin_density
 _atom_site_pbe_ddec_sum_bond_order
 _atom_site_pbe_magmom
Fe  Fe0  1  0.49996583  0.99975471  0.50026803  1  0.676711  2.330373  2.863886  2.099  0.602967  2.131452  3.349952  1.95  0.644913  2.10245  3.295184  1.941  0.772277  0.570762  2.1158  3.386424  1.908
Fe  Fe1  1  0.00596388  0.01737632  0.99843480  1  0.535911  -0.001314  3.020362  0.0  0.491076  -0.000556  3.500598  0.0  0.53792  -0.000179  3.444154  0.0  0.737558  0.469447  -0.000779  3.529117  0.0
H  H2  1  0.33897564  0.24011798  0.47937122  1  0.092674  0.000284  0.969397  0.001  0.095688  0.000332  1.041048  0.001  0.098392  0.000206  1.039665  0.001  0.110619  0.093582  0.000502  1.042484  0.001
H  H3  1  0.17077974  0.77772753  0.97850992  1  0.098671  1e-06  0.970858  0.0  0.101349  1e-06  1.041981  0.0  0.102947  0.0  1.041372  0.0  0.115048  0.100267  1e-06  1.042575  0.0
H  H4  1  0.88172519  0.22919685  0.52841583  1  0.098449  -0.000226  0.979035  0.001  0.100826  -0.00065  1.050426  0.0  0.103694  -0.000497  1.047944  0.0  0.114868  0.098844  -0.000696  1.052169  0.0
H  H5  1  0.60496234  0.77767185  0.02182603  1  0.099652  1e-06  0.973344  0.0  0.102568  3e-06  1.044257  0.0  0.104497  2e-06  1.04312  0.0  0.115895  0.101427  4e-06  1.044863  0.0
H  H6  1  0.66170998  0.75926450  0.52110799  1  0.09215  0.000283  0.969618  0.001  0.095012  0.00033  1.041479  0.001  0.097813  0.000205  1.040004  0.001  0.110716  0.092845  0.000499  1.042985  0.001
H  H7  1  0.85047661  0.23607654  0.02666958  1  0.102433  1e-06  0.972919  0.0  0.105079  2e-06  1.043349  0.0  0.107155  1e-06  1.041576  0.0  0.116816  0.103562  3e-06  1.044938  0.0
H  H8  1  0.11894753  0.76986099  0.47182094  1  0.098807  -0.000221  0.977803  0.001  0.101069  -0.000655  1.049319  0.0  0.104079  -0.0005  1.046674  0.0  0.114751  0.098973  -0.000701  1.0512  0.0
H  H9  1  0.39020573  0.24008986  0.97182102  1  0.101571  2e-06  0.974454  0.0  0.104261  5e-06  1.044941  0.0  0.106517  3e-06  1.043025  0.0  0.116936  0.102818  7e-06  1.046307  0.0
H  H10  1  0.49257860  0.28849266  0.77987128  1  0.085319  0.000175  0.939021  0.0  0.090151  0.000329  1.006247  0.0  0.092762  0.000236  1.004622  0.0  0.110315  0.088307  0.00043  1.007388  0.001
H  H11  1  0.99676862  0.70568493  0.27825144  1  0.085161  -2.3e-05  0.945791  0.0  0.087679  -1.5e-05  1.01628  0.0  0.089902  -2.3e-05  1.015085  0.0  0.110295  0.086337  -1.5e-05  1.016891  0.0
H  H12  1  0.78029679  0.27599408  0.22673426  1  0.087664  -0.000791  0.940603  -0.001  0.09011  -0.00013  1.009723  0.0  0.093015  -0.000112  1.007783  0.0  0.109593  0.088097  -0.000161  1.011173  0.0
H  H13  1  0.72116001  0.71147601  0.72545821  1  0.08875  -0.000163  0.939396  0.0  0.09153  -0.000158  1.007629  0.0  0.09398  -0.000109  1.006179  0.0  0.111835  0.090036  -0.000186  1.008506  0.0
H  H14  1  0.50879649  0.71246913  0.22052875  1  0.08549  0.000174  0.940231  0.0  0.089407  0.000328  1.008079  0.0  0.09237  0.000235  1.006121  0.0  0.109749  0.087246  0.000429  1.009564  0.001
H  H15  1  0.99684602  0.28135062  0.72433675  1  0.087794  -1.2e-05  0.941248  0.0  0.090232  -3e-06  1.010586  0.0  0.092901  -1.7e-05  1.008816  0.0  0.111092  0.08848  5e-06  1.011827  0.0
H  H16  1  0.21878970  0.72426323  0.77379586  1  0.087618  -0.000789  0.939243  -0.001  0.090042  -0.000125  1.008141  0.0  0.09312  -0.00011  1.006061  0.0  0.109406  0.087863  -0.000156  1.009761  0.0
H  H17  1  0.27162077  0.27400451  0.27200220  1  0.090279  -0.000172  0.939716  0.0  0.093437  -0.000168  1.006803  0.0  0.096146  -0.000118  1.004971  0.0  0.111699  0.091641  -0.000196  1.008165  0.0
H  H18  1  0.58483049  0.13223537  0.68646439  1  0.083877  0.000274  0.977978  0.001  0.088398  0.000353  1.048355  0.001  0.090676  0.00021  1.047316  0.0  0.109788  0.086607  0.000531  1.049473  0.001
H  H19  1  0.91650901  0.87379287  0.18430719  1  0.088726  0.000176  0.975851  0.0  0.093069  0.000232  1.046185  0.0  0.09455  0.000173  1.045586  0.0  0.114156  0.091996  0.00031  1.047006  0.0
H  H20  1  0.53285813  0.10424072  0.31996447  1  0.089646  -0.000168  0.992407  0.001  0.094905  -0.000524  1.059768  0.0  0.097539  -0.000417  1.057286  0.0  0.113818  0.092988  -0.000541  1.061676  0.0
H  H21  1  0.96777694  0.88492943  0.81603417  1  0.088225  -7.5e-05  0.98338  0.0  0.093395  -3.5e-05  1.051856  0.0  0.095036  -2.2e-05  1.050859  0.0  0.113783  0.092228  -4.3e-05  1.052993  0.0
H  H22  1  0.41579321  0.86784565  0.31433359  1  0.082628  0.000273  0.978531  0.001  0.087646  0.000355  1.048496  0.001  0.09011  0.000212  1.047084  0.0  0.108944  0.085587  0.000533  1.05012  0.001
H  H23  1  0.07831115  0.11765471  0.81871594  1  0.094169  0.000167  0.983  0.0  0.097869  0.000224  1.052203  0.0  0.100067  0.000167  1.050139  0.0  0.116514  0.096195  0.000298  1.054304  0.0
H  H24  1  0.46658554  0.89602502  0.68063163  1  0.089754  -0.000162  0.992094  0.001  0.094453  -0.000528  1.060152  0.0  0.097202  -0.000419  1.057477  0.0  0.113598  0.092463  -0.000546  1.062206  0.0
H  H25  1  0.02632907  0.11132259  0.17826990  1  0.092812  -6.1e-05  0.984443  0.0  0.097941  -2.9e-05  1.051668  0.0  0.100146  -1.7e-05  1.049421  0.0  0.116316  0.096224  -3.6e-05  1.053921  0.0
C  C26  1  0.17762226  0.00313233  0.39407985  1  0.269594  -0.002004  4.017767  0.003  0.261384  0.004144  4.320187  0.01  0.287366  0.004916  4.335388  0.011  0.146907  0.242228  0.003771  4.307733  0.01
C  C27  1  0.32489629  0.00599049  0.89362928  1  0.256356  -1e-05  4.033268  0.0  0.249002  -3.5e-05  4.336122  0.0  0.27475  -1.5e-05  4.345869  0.0  0.134358  0.232027  -5.1e-05  4.328137  0.0
C  C28  1  0.82272593  0.99635102  0.60592349  1  0.270834  -0.00184  4.018729  0.003  0.262739  0.004225  4.320982  0.01  0.288717  0.004983  4.336182  0.011  0.147475  0.243583  0.003859  4.30853  0.01
C  C29  1  0.67632569  0.00254862  0.10569201  1  0.256107  -3e-06  4.029869  0.0  0.248926  -3.5e-05  4.333745  0.0  0.274645  -1.2e-05  4.343709  0.0  0.13467  0.231972  -5.4e-05  4.325635  0.0
C  C30  1  0.37593010  0.25277062  0.54618571  1  0.024371  -0.01411  3.704609  -0.009  -0.012342  -0.005583  3.968797  -0.003  -0.008495  -0.005231  3.982311  -0.003  0.037786  -0.015875  -0.004843  3.96166  -0.003
C  C31  1  0.12865893  0.75927022  0.04495142  1  0.026344  -2e-05  3.689271  0.0  -0.011156  -1.5e-05  3.954354  0.0  -0.007463  -2.4e-05  3.970855  0.0  0.044536  -0.014072  -1.8e-05  3.944496  0.0
C  C32  1  0.85840083  0.23872444  0.46116286  1  0.020295  -0.041509  3.663292  -0.027  -0.020155  -0.020199  3.928719  -0.012  -0.012131  -0.016058  3.939149  -0.01  0.033481  -0.026182  -0.020219  3.921926  -0.012
C  C33  1  0.63129208  0.76105212  0.95608935  1  0.030322  -2e-06  3.679565  0.0  -0.009337  -1e-05  3.944339  0.0  -0.004787  -1.7e-05  3.95953  0.0  0.043714  -0.013194  -1.8e-05  3.935005  0.0
C  C34  1  0.62459291  0.74672841  0.45430355  1  0.026142  -0.014147  3.704653  -0.009  -0.009725  -0.005628  3.967819  -0.003  -0.006251  -0.005237  3.981689  -0.003  0.038741  -0.013018  -0.004922  3.960436  -0.003
C  C35  1  0.88355022  0.24594705  0.95930634  1  0.019149  -2e-06  3.64521  0.0  -0.022115  -7e-06  3.911098  0.0  -0.013378  -1.6e-05  3.922288  0.0  0.03593  -0.028872  -8e-06  3.905717  0.0
C  C36  1  0.14192011  0.76050488  0.53912808  1  0.020908  -0.042154  3.662047  -0.027  -0.019727  -0.020556  3.928879  -0.012  -0.011566  -0.016273  3.938916  -0.01  0.034095  -0.025793  -0.020612  3.92224  -0.012
C  C37  1  0.36351867  0.24745851  0.03874187  1  0.022309  -8e-06  3.64915  0.0  -0.019262  -8e-06  3.915926  0.0  -0.011411  -1.1e-05  3.927673  0.0  0.036128  -0.025895  -1e-05  3.909452  0.0
C  C38  1  0.33218292  0.34342507  0.59853851  1  0.119551  0.003612  3.844191  0.006  0.128424  0.001313  4.114277  0.003  0.133713  0.00138  4.130945  0.002  0.108559  0.123856  0.00128  4.104641  0.003
C  C39  1  0.16390471  0.66146307  0.09749790  1  0.122992  1e-05  3.837852  0.0  0.13107  1.9e-05  4.109246  0.0  0.135607  1.1e-05  4.127501  0.0  0.112794  0.127174  3.9e-05  4.097774  0.0
C  C40  1  0.99415372  0.33464898  0.40735710  1  0.12145  0.005895  3.845988  0.013  0.129855  2.4e-05  4.11893  0.003  0.134918  0.001374  4.132611  0.004  0.108298  0.125803  -0.001432  4.110314  0.002
C  C41  1  0.49802788  0.66200265  0.90504058  1  0.121367  -4.6e-05  3.844904  0.0  0.129561  -1.3e-05  4.117128  0.0  0.134253  2e-06  4.134611  0.0  0.11139  0.126093  -3.2e-05  4.105724  0.0
C  C42  1  0.66822733  0.65617246  0.40181604  1  0.119489  0.003631  3.84255  0.006  0.127576  0.001323  4.113886  0.003  0.132816  0.00139  4.130694  0.002  0.109258  0.123127  0.00128  4.104035  0.003
C  C43  1  0.84175774  0.33759205  0.90483568  1  0.126126  -1e-06  3.841536  0.0  0.134649  9e-06  4.113349  0.0  0.139131  6e-06  4.127912  0.0  0.111351  0.130595  2.4e-05  4.105111  0.0
C  C44  1  0.00607648  0.66462626  0.59288461  1  0.120591  0.005984  3.84675  0.013  0.128569  1.4e-05  4.120191  0.003  0.133724  0.001391  4.133835  0.004  0.108103  0.12447  -0.001476  4.111594  0.002
C  C45  1  0.49789302  0.33702943  0.09297818  1  0.125613  -3.8e-05  3.844742  0.0  0.133084  -1.3e-05  4.118866  0.0  0.137493  -2e-06  4.133989  0.0  0.110639  0.129756  -2.3e-05  4.109362  0.0
C  C46  1  0.45935843  0.27959038  0.71240567  1  0.096343  0.004028  3.697709  0.006  0.074737  0.001421  3.959337  0.002  0.07708  0.001525  3.974499  0.002  0.053775  0.072772  0.001202  3.950114  0.002
C  C47  1  0.03429575  0.71988451  0.21099415  1  0.097871  -1.7e-05  3.696725  0.0  0.07699  -1.9e-05  3.958797  0.0  0.078877  -2.4e-05  3.97496  0.0  0.057008  0.075729  -1.5e-05  3.948024  0.0
C  C48  1  0.80561126  0.26586736  0.29419114  1  0.09408  0.006065  3.705135  0.012  0.074089  -0.000348  3.967227  0.002  0.076852  0.001371  3.97793  0.003  0.051587  0.0715  -0.002152  3.960937  0.001
C  C49  1  0.69378110  0.72464942  0.79190481  1  0.096368  -0.000157  3.696543  0.0  0.076323  -0.00016  3.956952  0.0  0.077741  -0.000101  3.973003  0.0  0.056395  0.075181  -0.000198  3.946644  0.0
C  C50  1  0.54138854  0.72067707  0.28806512  1  0.093005  0.004015  3.700495  0.006  0.072182  0.001405  3.962341  0.002  0.074753  0.001517  3.976801  0.002  0.052415  0.070019  0.001169  3.953724  0.002
C  C51  1  0.96226114  0.27154791  0.79188214  1  0.098963  -2.8e-05  3.703262  0.0  0.077115  -1.7e-05  3.968649  0.0  0.080015  -2.1e-05  3.979385  0.0  0.054511  0.074575  -3e-06  3.962685  0.0
C  C52  1  0.19399898  0.73393132  0.70623142  1  0.094431  0.006147  3.7048  0.012  0.074473  -0.000363  3.966809  0.002  0.077434  0.001386  3.977115  0.004  0.051202  0.071729  -0.002209  3.96085  0.001
C  C53  1  0.30078761  0.26674027  0.20499771  1  0.095793  -0.000133  3.704429  0.0  0.074951  -0.000143  3.967176  0.0  0.077479  -9.2e-05  3.978657  0.0  0.05353  0.072503  -0.000169  3.960718  0.0
C  C54  1  0.50977191  0.19198533  0.66086360  1  0.054874  -0.01192  3.677067  -0.008  0.023097  -0.004161  3.938242  -0.002  0.026556  -0.00439  3.953836  -0.003  0.039862  0.019673  -0.004184  3.929812  -0.002
C  C55  1  0.99103467  0.81428343  0.15953224  1  0.057336  0.000109  3.662746  0.0  0.024583  0.000181  3.923348  0.0  0.028918  0.000125  3.94032  0.0  0.045998  0.020667  0.000253  3.913653  0.0
C  C56  1  0.66643319  0.16923123  0.34585066  1  0.054172  -0.038445  3.638413  -0.025  0.018635  -0.018411  3.8981  -0.011  0.027173  -0.014995  3.908307  -0.009  0.0356  0.012305  -0.017778  3.892529  -0.01
C  C57  1  0.83121045  0.82194536  0.84169473  1  0.054663  -0.000146  3.660693  0.0  0.021235  -9.2e-05  3.919491  0.0  0.026197  -5.7e-05  3.936142  0.0  0.043744  0.016678  -0.000117  3.910766  0.0
C  C58  1  0.49083128  0.80796720  0.33979228  1  0.057509  -0.011936  3.678903  -0.008  0.025283  -0.004176  3.939743  -0.002  0.029022  -0.004391  3.954758  -0.003  0.040934  0.021678  -0.00421  3.931799  -0.002
C  C59  1  0.00763772  0.17948300  0.84387346  1  0.052911  0.000111  3.624572  0.0  0.016541  0.00018  3.888389  0.0  0.02557  0.000121  3.898789  0.0  0.038742  0.008922  0.000248  3.884258  0.0
C  C60  1  0.33324725  0.83062857  0.65464010  1  0.054634  -0.039047  3.636537  -0.025  0.019478  -0.018713  3.896617  -0.011  0.028192  -0.015191  3.906349  -0.009  0.036214  0.012956  -0.018116  3.89144  -0.01
C  C61  1  0.16285298  0.17546014  0.15321162  1  0.053086  -0.00012  3.629858  0.0  0.016353  -7.5e-05  3.892691  0.0  0.025094  -5.7e-05  3.903837  0.0  0.038374  0.009137  -9.5e-05  3.888107  0.0
S  S62  1  0.99330197  0.00283769  0.35293611  1  -0.290809  0.005635  2.099329  0.016  -0.283201  0.010199  2.403393  0.019  -0.310771  0.006219  2.408845  0.013  -0.130008  -0.259549  0.016403  2.397945  0.028
S  S63  1  0.50415075  0.99591673  0.85213289  1  -0.33272  -0.000446  2.091551  0.0  -0.32107  -0.000402  2.39686  0.0  -0.339049  -0.000205  2.396908  0.0  -0.162966  -0.30677  -0.0006  2.396548  0.0
S  S64  1  0.00801515  0.99699922  0.64615939  1  -0.291051  0.005223  2.103174  0.016  -0.28354  0.010099  2.407966  0.019  -0.311263  0.00615  2.41356  0.013  -0.129872  -0.259714  0.016227  2.402348  0.027
S  S65  1  0.49271668  0.00226644  0.14892650  1  -0.328661  -0.000361  2.091243  0.0  -0.318645  -0.000383  2.396737  0.0  -0.33684  -0.0002  2.39719  0.0  -0.161662  -0.304199  -0.000577  2.396101  0.0
S  S66  1  0.22097854  0.45560164  0.56692196  1  0.023225  0.000212  2.492126  0.001  0.017566  0.000241  2.863252  0.001  0.013131  0.000339  2.865654  0.001  0.056416  0.020499  0.000541  2.862835  0.002
S  S67  1  0.26924325  0.54619402  0.06676398  1  0.020845  1.7e-05  2.486095  0.0  0.01573  3.4e-05  2.858  0.0  0.01011  2.2e-05  2.861667  0.0  0.058727  0.020291  5.4e-05  2.856033  0.0
S  S68  1  0.21745798  0.45632887  0.43776678  1  0.025007  -0.001092  2.491792  0.0  0.018378  -0.00039  2.863166  0.0  0.01452  -0.000179  2.865423  0.0  0.056322  0.021132  -0.000652  2.862006  0.0
S  S69  1  0.27142556  0.54656516  0.93755095  1  0.022428  -2.2e-05  2.500233  0.0  0.016191  6e-06  2.873681  0.0  0.010278  2e-06  2.877529  0.0  0.058717  0.020819  1.4e-05  2.871234  0.0
S  S70  1  0.77904202  0.54366636  0.43326264  1  0.023143  0.000235  2.494973  0.001  0.017827  0.000262  2.86696  0.001  0.013533  0.000349  2.869303  0.001  0.057186  0.020606  0.000569  2.866554  0.002
S  S71  1  0.73865270  0.45517123  0.93430110  1  0.026331  1.7e-05  2.476208  0.0  0.018414  3e-05  2.848486  0.0  0.014617  2.1e-05  2.850236  0.0  0.058068  0.020934  4.8e-05  2.849005  0.0
S  S72  1  0.78298740  0.54262585  0.56240461  1  0.024816  -0.001075  2.49419  0.0  0.018368  -0.000381  2.866823  0.0  0.014191  -0.000175  2.869282  0.0  0.056871  0.021356  -0.000637  2.865516  0.0
S  S73  1  0.72693597  0.45242634  0.06330152  1  0.026964  -2.3e-05  2.487521  0.0  0.018486  6e-06  2.861443  0.0  0.014969  0.0  2.863368  0.0  0.057052  0.020815  1.4e-05  2.860834  0.0
N  N74  1  0.31405502  0.00243034  0.42500977  1  -0.504083  -0.009218  3.184001  -0.01  -0.467772  -0.003537  3.490216  -0.008  -0.496308  -0.008739  3.495692  -0.014  -0.430733  -0.445441  0.00311  3.484686  -0.001
N  N75  1  0.19263568  0.01278783  0.92502815  1  -0.496622  -6.4e-05  3.252307  0.0  -0.464207  -3.4e-05  3.558525  0.0  -0.486553  -1.7e-05  3.559066  0.0  -0.437562  -0.450233  -6.2e-05  3.555823  0.0
N  N76  1  0.68578877  0.99697598  0.57554117  1  -0.505126  -0.009289  3.184585  -0.01  -0.468925  -0.003475  3.490737  -0.008  -0.497379  -0.008664  3.496119  -0.013  -0.430823  -0.446615  0.003142  3.485202  -0.001
N  N77  1  0.81168797  0.00278100  0.07327275  1  -0.495497  -3.8e-05  3.247067  0.0  -0.463881  -3.3e-05  3.554297  0.0  -0.486385  -1.8e-05  3.554871  0.0  -0.437478  -0.449833  -5.7e-05  3.551595  0.0
N  N78  1  0.46540855  0.17699172  0.57819678  1  -0.223496  0.025678  3.23319  0.046  -0.169394  0.026166  3.50155  0.045  -0.18179  0.02225  3.516248  0.038  -0.293925  -0.1605  0.030088  3.492532  0.05
N  N79  1  0.04184283  0.83525741  0.07729899  1  -0.182718  -1.4e-05  3.212564  0.0  -0.131695  1e-05  3.476883  0.0  -0.150687  1.1e-05  3.496964  0.0  -0.272611  -0.119236  1.8e-05  3.463878  0.0
N  N80  1  0.69256279  0.15230228  0.42976262  1  -0.186808  -0.041096  3.338294  -0.028  -0.132188  -0.028612  3.615271  -0.02  -0.148696  -0.020684  3.629988  -0.013  -0.316756  -0.120237  -0.032165  3.603968  -0.023
N  N81  1  0.79817719  0.84153848  0.92320993  1  -0.177179  -6.6e-05  3.236115  0.0  -0.124733  -4.5e-05  3.500375  0.0  -0.144212  -1.4e-05  3.520202  0.0  -0.278274  -0.111485  -6.9e-05  3.487356  0.0
N  N82  1  0.53513013  0.82262882  0.42246259  1  -0.224192  0.025619  3.234358  0.046  -0.170315  0.026108  3.502967  0.044  -0.182796  0.022224  3.517852  0.038  -0.294484  -0.161404  0.029971  3.493844  0.05
N  N83  1  0.96526340  0.16365980  0.92801645  1  -0.157568  -1.4e-05  3.341167  0.0  -0.105321  1.2e-05  3.616324  0.0  -0.126473  1e-05  3.633905  0.0  -0.312391  -0.092623  2e-05  3.604337  0.0
N  N84  1  0.30747840  0.84723432  0.57064639  1  -0.186514  -0.041214  3.338472  -0.028  -0.131767  -0.028799  3.615475  -0.02  -0.148359  -0.020744  3.630227  -0.013  -0.317506  -0.119773  -0.032465  3.604178  -0.024
N  N85  1  0.19398164  0.16326304  0.06966072  1  -0.16126  -5.2e-05  3.331261  0.0  -0.108558  -3.6e-05  3.605786  0.0  -0.12919  -1e-05  3.623302  0.0  -0.310534  -0.095564  -4.8e-05  3.593574  0.0
N  N86  1  0.37031451  0.35581415  0.68139991  1  -0.288382  -0.011365  3.081986  -0.009  -0.260887  -0.004854  3.350632  -0.004  -0.268019  -0.00408  3.363154  -0.003  -0.306691  -0.256129  -0.00597  3.342815  -0.005
N  N87  1  0.12086939  0.64333695  0.18013071  1  -0.282843  -4.9e-05  3.085564  0.0  -0.255827  -4.3e-05  3.35416  0.0  -0.264538  -3.1e-05  3.368672  0.0  -0.303088  -0.249452  -5.6e-05  3.34419  0.0
N  N88  1  0.97162461  0.34853704  0.32397961  1  -0.287075  -0.042288  3.073778  -0.035  -0.262762  -0.021243  3.345175  -0.016  -0.26504  -0.015115  3.353118  -0.012  -0.310084  -0.260437  -0.022703  3.339944  -0.017
N  N89  1  0.52632675  0.64448227  0.82326177  1  -0.281279  -2.6e-05  3.07526  0.0  -0.255182  -5.7e-05  3.342795  0.0  -0.26262  -2.2e-05  3.356306  0.0  -0.304701  -0.249463  -0.000121  3.333213  0.0
N  N90  1  0.63021268  0.64416868  0.31891903  1  -0.286827  -0.011427  3.079996  -0.009  -0.258928  -0.004899  3.347862  -0.004  -0.266059  -0.004103  3.360252  -0.003  -0.306109  -0.254247  -0.006072  3.340187  -0.005
N  N91  1  0.87770922  0.35057569  0.82144992  1  -0.282312  -2.8e-05  3.072307  0.0  -0.258325  -3.2e-05  3.343682  0.0  -0.26164  -3.5e-05  3.352674  0.0  -0.307785  -0.256113  -3.8e-05  3.338304  0.0
N  N92  1  0.02821370  0.65095397  0.67632043  1  -0.288845  -0.043115  3.075066  -0.035  -0.263667  -0.021717  3.345911  -0.017  -0.266139  -0.015389  3.353871  -0.012  -0.310386  -0.261227  -0.023272  3.340731  -0.018
N  N93  1  0.47007513  0.34743597  0.17578519  1  -0.281784  -3e-05  3.06731  0.0  -0.257416  -4.9e-05  3.337379  0.0  -0.260593  -1.8e-05  3.346381  0.0  -0.307415  -0.254834  -0.000109  3.331451  0.0
