# generated using pymatgen
data_Cu3H12C15N7
_symmetry_space_group_name_H-M   'P 1'
_cell_length_a   20.75573279
_cell_length_b   23.54301004
_cell_length_c   24.00818174
_cell_angle_alpha   79.10116947
_cell_angle_beta   84.94676911
_cell_angle_gamma   87.50178240
_symmetry_Int_Tables_number   1
_chemical_formula_structural   Cu3H12C15N7
_chemical_formula_sum   'Cu12 H48 C60 N28'
_cell_volume   11470.92100767
_cell_formula_units_Z   4
loop_
 _symmetry_equiv_pos_site_id
 _symmetry_equiv_pos_as_xyz
  1  'x, y, z'
loop_
 _atom_site_type_symbol
 _atom_site_label
 _atom_site_symmetry_multiplicity
 _atom_site_fract_x
 _atom_site_fract_y
 _atom_site_fract_z
 _atom_site_occupancy
 _atom_site_pbe_bader_charge
 _atom_site_pbe_bader_spin_density
 _atom_site_pbe_cm5_charge
 _atom_site_pbe_ddec_charge
 _atom_site_pbe_ddec_spin_density
 _atom_site_pbe_ddec_sum_bond_order
 _atom_site_pbe_magmom
Cu  Cu0  1  0.66907277  0.30799325  0.31639942  1  0.539175  0  0.483851  0.206373  0  2.141402  0
Cu  Cu1  1  0.69040016  0.27731667  0.44390733  1  0.53921  0  0.48148  0.198142  0  2.145027  0
Cu  Cu2  1  0.71485995  0.40620196  0.37668641  1  0.538875  0  0.476842  0.199628  0  2.107771  0
Cu  Cu3  1  0.90180425  0.65096721  0.83525660  1  0.536689  0  0.478854  0.199246  0  2.122004  0
Cu  Cu4  1  0.80848505  0.65793610  0.94811373  1  0.544249  0  0.483172  0.206722  0  2.103224  0
Cu  Cu5  1  0.78141622  0.57063884  0.86888821  1  0.540043  0  0.482144  0.200701  0  2.130562  0
Cu  Cu6  1  0.41675115  0.86980330  0.16564334  1  0.539599  0  0.477266  0.199639  0  2.111113  0
Cu  Cu7  1  0.33580950  0.84696427  0.06744103  1  0.534675  0  0.479883  0.200107  0  2.142775  0
Cu  Cu8  1  0.27913533  0.93712129  0.13982762  1  0.539146  0  0.477628  0.198341  0  2.117631  0
Cu  Cu9  1  0.10702293  0.17283619  0.67474065  1  0.543036  0  0.485026  0.206411  0  2.110411  0
Cu  Cu10  1  0.17207954  0.21775277  0.55095600  1  0.539108  0  0.483789  0.200354  0  2.132487  0
Cu  Cu11  1  0.19459435  0.08747330  0.60998070  1  0.544537  0  0.485112  0.202528  0  2.124318  0
H  H12  1  0.58336255  0.20605756  0.30051283  1  0.094426  0  0.115686  0.106822  0  0.998497  0
H  H13  1  0.59043934  0.17377244  0.48368660  1  0.092085  0  0.118332  0.112172  0  0.989788  0
H  H14  1  0.68007980  0.51725350  0.28244083  1  0.056003  0  0.114489  0.105474  0  0.999017  0
H  H15  1  0.65193337  0.37711091  0.19412295  1  0.092292  0  0.116603  0.109808  0  0.992619  0
H  H16  1  0.77446428  0.27473347  0.54759948  1  0.089501  0  0.118733  0.112065  0  0.988335  0
H  H17  1  0.79050461  0.45496682  0.46690500  1  0.112516  0  0.116875  0.108391  0  0.997618  0
H  H18  1  0.99131693  0.75716665  0.83337563  1  0.078188  0  0.114369  0.10554  0  0.999292  0
H  H19  1  0.87968737  0.75306761  0.99509509  1  0.107433  0  0.116789  0.110675  0  0.991218  0
H  H20  1  0.80343664  0.48936568  0.77765128  1  0.080118  0  0.114978  0.10651  0  0.999123  0
H  H21  1  0.97534813  0.59183417  0.73682409  1  0.08937  0  0.11759  0.11121  0  0.990477  0
H  H22  1  0.68776560  0.63425788  0.04183652  1  0.135258  0  0.119638  0.110042  0  1.003907  0
H  H23  1  0.64796868  0.52023121  0.92763230  1  0.095528  0  0.120593  0.112122  0  0.988109  0
H  H24  1  0.52172436  0.76458815  0.16900362  1  0.069135  0  0.113952  0.105134  0  0.999116  0
H  H25  1  0.41802668  0.74642906  0.02473610  1  0.08065  0  0.116131  0.109707  0  0.991469  0
H  H26  1  0.26706299  0.01116277  0.23639748  1  0.094197  0  0.116943  0.110368  0  0.990624  0
H  H27  1  0.45929737  0.93591890  0.25897934  1  0.084209  0  0.114972  0.105928  0  0.999913  0
H  H28  1  0.23019802  0.85325241  0.97910828  1  0.107056  0  0.114333  0.10531  0  0.99901  0
H  H29  1  0.15408506  0.98553713  0.07193544  1  0.07947  0  0.115834  0.109535  0  0.993159  0
H  H30  1  0.01608269  0.28006663  0.69286509  1  0.104215  0  0.116539  0.107435  0  0.998175  0
H  H31  1  0.08764860  0.33300854  0.51634921  1  0.089455  0  0.119876  0.113111  0  0.987383  0
H  H32  1  0.17318458  0.96889053  0.69654313  1  0.091824  0  0.12117  0.113796  0  0.986891  0
H  H33  1  0.06243866  0.08697329  0.78871119  1  0.087849  0  0.120872  0.111709  0  0.990671  0
H  H34  1  0.27863646  0.22736837  0.44654774  1  0.102  0  0.120279  0.113851  0  0.987457  0
H  H35  1  0.30085366  0.04582313  0.52143962  1  0.080525  0  0.118542  0.11002  0  0.994281  0
H  H36  1  0.99434133  0.82303543  0.97566250  1  0.049856  0  0.096995  0.107969  0  1.014457  0
H  H37  1  0.00499223  0.86897674  0.84587130  1  0.103558  0  0.108837  0.08731  0  1.008433  0
H  H38  1  0.48630462  0.12269633  0.44381507  1  0.065682  0  0.100683  0.11231  0  1.006798  0
H  H39  1  0.51863807  0.11377257  0.31771239  1  0.030774  0  0.111473  0.08956  0  0.999715  0
H  H40  1  0.97334077  0.39149558  0.55064348  1  0.080124  0  0.103083  0.113738  0  0.995825  0
H  H41  1  0.96075147  0.38441342  0.68104464  1  0.063821  0  0.107529  0.081456  0  1.007806  0
H  H42  1  0.50769434  0.66088955  0.05031796  1  0.058618  0  0.094195  0.102504  0  1.029535  0
H  H43  1  0.57642558  0.66374124  0.15868731  1  0.023322  0  0.111997  0.09069  0  0.997337  0
H  H44  1  0.11648867  0.91565236  0.79884495  1  0.081309  0  0.10872  0.114209  0  0.978907  0
H  H45  1  0.04728624  0.99785795  0.87221551  1  0.075108  0  0.107498  0.085956  0  0.994249  0
H  H46  1  0.61941545  0.48086019  0.13411887  1  0.059646  0  0.093491  0.101899  0  1.032588  0
H  H47  1  0.62925767  0.58484576  0.19398600  1  0.064146  0  0.112373  0.091914  0  0.997912  0
H  H48  1  0.32813323  0.04212904  0.32705594  1  0.080088  0  0.09815  0.106248  0  1.019371  0
H  H49  1  0.47595976  0.03033184  0.30023966  1  0.075595  0  0.111692  0.092316  0  0.998084  0
H  H50  1  0.97218222  0.48412272  0.68688654  1  0.029104  0  0.098395  0.108188  0  1.013987  0
H  H51  1  0.82673284  0.48326928  0.66823201  1  0.062797  0  0.109897  0.087675  0  1.001909  0
H  H52  1  0.10987070  0.98385454  0.95224287  1  0.021085  0  0.094194  0.103169  0  1.021431  0
H  H53  1  0.09776268  0.85101850  0.96699962  1  0.064973  0  0.108931  0.084676  0  1.012016  0
H  H54  1  0.86409833  0.33672914  0.59172925  1  0.062794  0  0.103208  0.113849  0  0.997339  0
H  H55  1  0.82415603  0.46629119  0.57189960  1  0.086046  0  0.110509  0.089835  0  0.99696  0
H  H56  1  0.55131953  0.52670263  0.00957196  1  0.027184  0  0.104819  0.106471  0  0.987598  0
H  H57  1  0.50753470  0.54679795  0.09823672  1  0.08374  0  0.106856  0.0769  0  1.001634  0
H  H58  1  0.38420118  0.16906581  0.39843579  1  0.067325  0  0.105215  0.115755  0  0.99244  0
H  H59  1  0.36015059  0.03786510  0.41969030  1  0.087942  0  0.108412  0.082023  0  1.00609  0
C  C60  1  0.59412407  0.20380687  0.34432144  1  0.435822  0  -0.002528  -0.068577  0  3.956483  0
C  C61  1  0.56560902  0.17055108  0.39467990  1  -0.022591  0  -0.04197  0.027487  0  4.146605  0
C  C62  1  0.59715320  0.18810475  0.43788844  1  0.378983  0  -0.000602  -0.067161  0  3.954683  0
C  C63  1  0.67619608  0.47649311  0.26830948  1  0.399779  0  -0.003837  -0.070912  0  3.947171  0
C  C64  1  0.65719369  0.46538767  0.21655447  1  0.091728  0  -0.042336  0.036574  0  4.140484  0
C  C65  1  0.66236124  0.40477467  0.22343907  1  0.332149  0  -0.003237  -0.068856  0  3.964432  0
C  C66  1  0.77174744  0.31734890  0.52086433  1  0.40923  0  0.00054  -0.066866  0  3.959846  0
C  C67  1  0.79861627  0.36931212  0.52733801  1  -0.038137  0  -0.041559  0.024971  0  4.146081  0
C  C68  1  0.77904776  0.40963485  0.48031392  1  0.396209  0  -0.001115  -0.0688  0  3.955073  0
C  C69  1  0.95709545  0.74948937  0.87072959  1  0.421514  0  -0.002785  -0.070251  0  3.957096  0
C  C70  1  0.95157070  0.77602069  0.91881695  1  -0.003152  0  -0.043425  0.033775  0  4.13866  0
C  C71  1  0.90089957  0.74659884  0.95370696  1  0.353166  0  -0.002194  -0.069486  0  3.956818  0
C  C72  1  0.84114689  0.52075279  0.77369041  1  0.360643  0  -0.003138  -0.073766  0  3.966007  0
C  C73  1  0.89873255  0.52636870  0.73781878  1  0.02983  0  -0.04309  0.030777  0  4.140132  0
C  C74  1  0.92960499  0.57221505  0.75365191  1  0.383222  0  -0.000221  -0.065818  0  3.951521  0
C  C75  1  0.68796765  0.60877393  0.00866082  1  0.388151  0  0.015342  -0.035319  0  3.91436  0
C  C76  1  0.64202551  0.56973553  0.99976206  1  0.008273  0  -0.040304  0.016668  0  4.114939  0
C  C77  1  0.66746393  0.55084228  0.94992250  1  0.43009  0  0.006709  -0.060308  0  3.963177  0
C  C78  1  0.49028785  0.76812833  0.13462400  1  0.404191  0  -0.004448  -0.071632  0  3.948941  0
C  C79  1  0.48720933  0.73290566  0.09360708  1  0.014632  0  -0.0434  0.034481  0  4.145833  0
C  C80  1  0.43729526  0.75925761  0.06096355  1  0.43217  0  -0.002712  -0.068847  0  3.963162  0
C  C81  1  0.31293808  0.98729453  0.23490250  1  0.369162  0  -0.001127  -0.067027  0  3.958433  0
C  C82  1  0.36666245  0.98906732  0.26628768  1  0.007689  0  -0.044157  0.027932  0  4.151013  0
C  C83  1  0.41144598  0.94966076  0.24590513  1  0.397679  0  -0.003521  -0.070985  0  3.957883  0
C  C84  1  0.21915306  0.88242124  0.00887013  1  0.378661  0  -0.001682  -0.068197  0  3.964097  0
C  C85  1  0.16899488  0.92444111  0.00956199  1  -0.003088  0  -0.041844  0.033381  0  4.131299  0
C  C86  1  0.18095501  0.95091803  0.05532971  1  0.394749  0  -0.003452  -0.071865  0  3.957943  0
C  C87  1  0.04181790  0.28596577  0.65090808  1  0.362052  0  0.000633  -0.06391  0  3.953039  0
C  C88  1  0.03287462  0.32879830  0.60246406  1  0.011373  0  -0.042184  0.023129  0  4.144932  0
C  C89  1  0.07786908  0.31246558  0.56059289  1  0.407893  0  0.003077  -0.061404  0  3.950036  0
C  C90  1  0.14861177  0.00548614  0.71153982  1  0.42109  0  0.007264  -0.058722  0  3.957378  0
C  C91  1  0.11072301  0.00681053  0.76276679  1  0.036324  0  -0.04064  0.016711  0  4.135919  0
C  C92  1  0.09229832  0.06556732  0.75901664  1  0.402781  0  0.007771  -0.054176  0  3.938623  0
C  C93  1  0.27570336  0.18401129  0.47182422  1  0.357889  0  0.003098  -0.063155  0  3.956579  0
C  C94  1  0.31114104  0.13341550  0.46401867  1  0.055109  0  -0.041055  0.021606  0  4.149908  0
C  C95  1  0.28644091  0.09105083  0.50942452  1  0.408836  0  0.00129  -0.063207  0  3.949755  0
C  C96  1  0.98879757  0.82236912  0.93096256  1  0.040085  0  -0.131416  -0.229158  0  4.113918  0
C  C97  1  0.01543529  0.86464787  0.89028715  1  0.241444  0  -0.001388  -0.033464  0  4.057654  0
C  C98  1  0.51276921  0.13109390  0.40188428  1  0.051478  0  -0.120511  -0.203731  0  4.102911  0
C  C99  1  0.49187573  0.10788634  0.35954624  1  0.290612  0  0.00065  -0.036063  0  4.023267  0
C  C100  1  0.98484623  0.37527567  0.59444972  1  0.012505  0  -0.11352  -0.194104  0  4.090891  0
C  C101  1  0.94911469  0.39564166  0.63664252  1  0.303662  0  0.002452  -0.024534  0  4.006077  0
C  C102  1  0.52047934  0.67918608  0.08629006  1  0.06233  0  -0.132584  -0.227176  0  4.128884  0
C  C103  1  0.56149066  0.64803776  0.12195708  1  0.274306  0  -0.000339  -0.032987  0  4.041626  0
C  C104  1  0.09765793  0.95745008  0.80773740  1  -0.017903  0  -0.090231  -0.151739  0  4.08209  0
C  C105  1  0.06622011  0.95791577  0.85898561  1  0.279145  0  0.001328  -0.031772  0  3.989145  0
C  C106  1  0.63193260  0.50268387  0.16780975  1  0.018674  0  -0.132865  -0.225526  0  4.129624  0
C  C107  1  0.61803652  0.56005808  0.16211397  1  0.294873  0  -0.000211  -0.03322  0  4.03963  0
C  C108  1  0.37287992  0.02541497  0.30776879  1  -0.049975  0  -0.123807  -0.211648  0  4.113837  0
C  C109  1  0.43010544  0.04204547  0.32168714  1  0.343045  0  -0.004892  -0.048289  0  4.048184  0
C  C110  1  0.92029174  0.49245522  0.69473765  1  0.082955  0  -0.124005  -0.215535  0  4.098664  0
C  C111  1  0.87807410  0.47098371  0.66457806  1  0.289885  0  -0.000801  -0.038459  0  4.051365  0
C  C112  1  0.12001207  0.93818861  0.96888929  1  0.115937  0  -0.129602  -0.225816  0  4.100471  0
C  C113  1  0.09184826  0.89677791  0.94791999  1  0.265167  0  0.001903  -0.021871  0  4.039714  0
C  C114  1  0.83907946  0.37602642  0.57153182  1  0.073033  0  -0.111076  -0.183424  0  4.097982  0
C  C115  1  0.85011167  0.42608391  0.58829951  1  0.221308  0  -0.002052  -0.043227  0  4.014758  0
C  C116  1  0.58107217  0.55206856  0.03068566  1  0.125051  0  -0.087546  -0.14635  0  4.079265  0
C  C117  1  0.55555858  0.56245384  0.08127782  1  0.171638  0  0.002663  -0.025568  0  4.003615  0
C  C118  1  0.36158857  0.12875564  0.41957981  1  0.05434  0  -0.106079  -0.180612  0  4.083548  0
C  C119  1  0.38362449  0.07908545  0.40338848  1  0.237766  0  0.00292  -0.025011  0  4.002298  0
N  N120  1  0.64099625  0.22842490  0.41488580  1  -0.791795  0  -0.343328  -0.144722  0  3.784006  0
N  N121  1  0.63900033  0.23825311  0.35678838  1  -0.757392  0  -0.342917  -0.145599  0  3.766855  0
N  N122  1  0.68204388  0.38160311  0.27520233  1  -0.767619  0  -0.347485  -0.153218  0  3.779582  0
N  N123  1  0.69067336  0.42619876  0.30310216  1  -0.773546  0  -0.337786  -0.139648  0  3.773372  0
N  N124  1  0.74322899  0.38350439  0.44867630  1  -0.7775  0  -0.337032  -0.139358  0  3.764545  0
N  N125  1  0.73839110  0.32625638  0.47415052  1  -0.766992  0  -0.33973  -0.139095  0  3.785832  0
N  N126  1  0.87784630  0.70616895  0.92814580  1  -0.771359  0  -0.339338  -0.142467  0  3.782766  0
N  N127  1  0.91289775  0.70783250  0.87663760  1  -0.756598  0  -0.340629  -0.142944  0  3.780464  0
N  N128  1  0.89270959  0.59259846  0.79516641  1  -0.765128  0  -0.339596  -0.142224  0  3.782169  0
N  N129  1  0.83793276  0.56047377  0.80773301  1  -0.764335  0  -0.341905  -0.140273  0  3.785433  0
N  N130  1  0.72389689  0.57640858  0.93073662  1  -0.774983  0  -0.340817  -0.142418  0  3.777217  0
N  N131  1  0.73650689  0.61254733  0.96714887  1  -0.78806  0  -0.330946  -0.1332  0  3.746785  0
N  N132  1  0.41213915  0.80582442  0.08131541  1  -0.781918  0  -0.345715  -0.147987  0  3.788842  0
N  N133  1  0.44519999  0.81150981  0.12690467  1  -0.785355  0  -0.337939  -0.140981  0  3.77788  0
N  N134  1  0.38631372  0.92685654  0.20524524  1  -0.776092  0  -0.336812  -0.137531  0  3.774367  0
N  N135  1  0.32519316  0.95043975  0.19824177  1  -0.753906  0  -0.339898  -0.142314  0  3.778518  0
N  N136  1  0.23388427  0.92609254  0.08002029  1  -0.777837  0  -0.339102  -0.140421  0  3.778441  0
N  N137  1  0.25772452  0.88378967  0.05093597  1  -0.781773  0  -0.343497  -0.14322  0  3.78767  0
N  N138  1  0.11093772  0.26398325  0.58250856  1  -0.761769  0  -0.340669  -0.141588  0  3.783761  0
N  N139  1  0.08837559  0.24737753  0.63856147  1  -0.784562  0  -0.339704  -0.143297  0  3.770011  0
N  N140  1  0.11754144  0.09642625  0.70943673  1  -0.773799  0  -0.333596  -0.134415  0  3.766146  0
N  N141  1  0.15253413  0.05911820  0.67989834  1  -0.774766  0  -0.33857  -0.139177  0  3.775731  0
N  N142  1  0.23980666  0.11483735  0.54131456  1  -0.771293  0  -0.339855  -0.141572  0  3.781207  0
N  N143  1  0.23294392  0.17245753  0.51784139  1  -0.773812  0  -0.341133  -0.141036  0  3.787312  0
N  N144  1  0.05730477  0.90579349  0.89975325  1  -1.257891  0  -0.265581  0.001733  0  3.819276  0
N  N145  1  0.43628085  0.07531720  0.36309348  1  -1.267008  0  -0.258979  0.020272  0  3.827676  0
N  N146  1  0.89371971  0.43153732  0.62873144  1  -1.247956  0  -0.261073  0.015225  0  3.825213  0
N  N147  1  0.58630140  0.59292301  0.11733027  1  -1.246696  0  -0.264835  0.000973  0  3.772562  0
