# generated using pymatgen
data_ZnMo4H14C16N6O13
_symmetry_space_group_name_H-M   'P 1'
_cell_length_a   10.07339112
_cell_length_b   11.53737398
_cell_length_c   11.57140000
_cell_angle_alpha   89.00708243
_cell_angle_beta   74.65594860
_cell_angle_gamma   74.65417222
_symmetry_Int_Tables_number   1
_chemical_formula_structural   ZnMo4H14C16N6O13
_chemical_formula_sum   'Zn2 Mo8 H28 C32 N12 O26'
_cell_volume   1248.64687295
_cell_formula_units_Z   2
loop_
 _symmetry_equiv_pos_site_id
 _symmetry_equiv_pos_as_xyz
  1  'x, y, z'
loop_
 _atom_site_type_symbol
 _atom_site_label
 _atom_site_symmetry_multiplicity
 _atom_site_fract_x
 _atom_site_fract_y
 _atom_site_fract_z
 _atom_site_occupancy
 _atom_site_hle17_bader_spin_density
 _atom_site_hle17_ddec_charge
 _atom_site_hle17_ddec_spin_density
 _atom_site_hle17_ddec_sum_bond_order
 _atom_site_hle17_magmom
 _atom_site_hse06_10hf_bader_spin_density
 _atom_site_hse06_10hf_ddec_charge
 _atom_site_hse06_10hf_ddec_spin_density
 _atom_site_hse06_10hf_ddec_sum_bond_order
 _atom_site_hse06_10hf_magmom
 _atom_site_hse06_bader_spin_density
 _atom_site_hse06_ddec_charge
 _atom_site_hse06_ddec_spin_density
 _atom_site_hse06_ddec_sum_bond_order
 _atom_site_hse06_magmom
 _atom_site_pbe_bader_charge
 _atom_site_pbe_bader_spin_density
 _atom_site_pbe_cm5_charge
 _atom_site_pbe_ddec_charge
 _atom_site_pbe_ddec_spin_density
 _atom_site_pbe_ddec_sum_bond_order
 _atom_site_pbe_magmom
Zn  Zn0  1  0.86359306  0.78322908  0.74747356  1  0  0.979575  0  1.940746  0  0  0.802024  0  2.396537  0  0  0.847083  0  2.346836  0  1.303321  0  0.715785  0.770639  0  2.43058  0
Zn  Zn1  1  0.13640594  0.21677072  0.25252538  1  0  0.979565  0  1.94077  0  0  0.802023  0  2.396554  0  0  0.847082  0  2.346855  0  1.303351  0  0.71578  0.770636  0  2.4306  0
Mo  Mo2  1  0.39562332  0.68766675  0.68751970  1  0  2.186147  0  4.069583  0  0  2.183535  0  4.608074  0  0  2.282936  0  4.572048  0  2.588755  0  1.499308  2.110763  0  4.638712  0
Mo  Mo3  1  0.60437803  0.31233216  0.31248217  1  0  2.186196  0  4.069492  0  0  2.18358  0  4.607987  0  0  2.282982  0  4.571955  0  2.588742  0  1.499352  2.11081  0  4.638624  0
Mo  Mo4  1  0.49470616  0.37425070  0.59777853  1  0  2.226713  0  4.077006  0  0  2.223923  0  4.60313  0  0  2.326603  0  4.564639  0  2.598774  0  1.497712  2.148032  0  4.636795  0
Mo  Mo5  1  0.50529547  0.62574730  0.40222242  1  0  2.226778  0  4.07694  0  0  2.223992  0  4.603061  0  0  2.326664  0  4.564584  0  2.598737  0  1.497754  2.148104  0  4.636728  0
Mo  Mo6  1  0.19544973  0.54090503  0.56954848  1  0  2.208804  0  4.053432  0  0  2.204742  0  4.587434  0  0  2.303436  0  4.554464  0  2.614301  0  1.513221  2.13066  0  4.6193  0
Mo  Mo7  1  0.80455133  0.45909477  0.43045258  1  0  2.208787  0  4.053449  0  0  2.204705  0  4.587457  0  0  2.303399  0  4.554494  0  2.614347  0  1.513205  2.130619  0  4.619328  0
Mo  Mo8  1  0.70121347  0.51422820  0.72745563  1  0  2.212486  0  4.04847  0  0  2.211174  0  4.595256  0  0  2.309596  0  4.560825  0  2.608767  0  1.533134  2.137666  0  4.627742  0
Mo  Mo9  1  0.29878845  0.48576890  0.27254441  1  0  2.212452  0  4.048298  0  0  2.211148  0  4.59507  0  0  2.309571  0  4.560633  0  2.608929  0  1.533151  2.13764  0  4.627556  0
H  H10  1  0.64742275  0.93324247  0.38993032  1  0  0.123009  0  0.931752  0  0  0.136663  0  0.984471  0  0  0.139411  0  0.981786  0  0.168896  0  0.130541  0.134597  0  0.986469  0
H  H11  1  0.35257831  0.06675734  0.61006814  1  0  0.122978  0  0.931829  0  0  0.136633  0  0.984548  0  0  0.139381  0  0.981863  0  0.168875  0  0.130527  0.134564  0  0.986544  0
H  H12  1  0.72477138  0.12184306  0.47473893  1  0  0.144168  0  0.995304  0  0  0.148982  0  1.060199  0  0  0.152967  0  1.058583  0  0.159479  0  0.107191  0.145958  0  1.06164  0
H  H13  1  0.27523100  0.87815585  0.52526011  1  0  0.144186  0  0.995284  0  0  0.149006  0  1.060166  0  0  0.152991  0  1.058551  0  0.159473  0  0.10719  0.145981  0  1.061607  0
H  H14  1  0.86461932  0.20149544  0.59165143  1  0  0.138123  0  0.932067  0  0  0.148354  0  0.988012  0  0  0.152212  0  0.986311  0  0.145231  0  0.115561  0.145491  0  0.989444  0
H  H15  1  0.13537836  0.79850527  0.40834866  1  0  0.138116  0  0.932049  0  0  0.14835  0  0.987984  0  0  0.15221  0  0.98628  0  0.145256  0  0.115555  0.145485  0  0.989418  0
H  H16  1  0.99117600  0.26623624  0.72561372  1  0  0.107758  0  0.9409  0  0  0.118457  0  1.001304  0  0  0.121153  0  0.999176  0  0.122951  0  0.112201  0.116499  0  1.002883  0
H  H17  1  0.00882168  0.73376447  0.27438550  1  0  0.107781  0  0.940855  0  0  0.118482  0  1.001257  0  0  0.121177  0  0.999132  0  0.122995  0  0.112228  0.116523  0  1.002837  0
H  H18  1  0.07435990  0.12352201  0.87525219  1  0  0.097452  0  0.971082  0  0  0.105073  0  1.035453  0  0  0.107819  0  1.035925  0  0.081287  0  0.102594  0.103241  0  1.035023  0
H  H19  1  0.92564013  0.87647780  0.12474565  1  0  0.097415  0  0.971079  0  0  0.10505  0  1.035435  0  0  0.107796  0  1.035906  0  0.081279  0  0.102585  0.103218  0  1.035006  0
H  H20  1  0.02751600  0.91936436  0.88144362  1  0  0.082096  0  0.941291  0  0  0.08979  0  1.006492  0  0  0.092775  0  1.003651  0  0.102059  0  0.114647  0.087622  0  1.008605  0
H  H21  1  0.97248506  0.08063545  0.11855398  1  0  0.082053  0  0.941355  0  0  0.089751  0  1.006549  0  0  0.092731  0  1.003722  0  0.102036  0  0.114632  0.087583  0  1.008661  0
H  H22  1  0.54078681  0.94827649  0.77047973  1  0  0.086451  0  0.92226  0  0  0.097919  0  0.978936  0  0  0.100033  0  0.977278  0  0.085317  0  0.11948  0.09626  0  0.980419  0
H  H23  1  0.45921265  0.05172512  0.22951994  1  0  0.086441  0  0.922292  0  0  0.097918  0  0.978958  0  0  0.100029  0  0.977301  0  0.085332  0  0.11949  0.09626  0  0.980439  0
H  H24  1  0.29989999  0.96180170  0.90979438  1  0  0.099776  0  0.940817  0  0  0.113585  0  0.995768  0  0  0.116188  0  0.995645  0  0.072073  0  0.107555  0.111658  0  0.996116  0
H  H25  1  0.70009798  0.03819811  0.09020566  1  0  0.099744  0  0.940847  0  0  0.11359  0  0.995756  0  0  0.116193  0  0.995632  0  0.072101  0  0.107548  0.111661  0  0.996106  0
H  H26  1  0.28593364  0.84638816  0.09787731  1  0  0.088577  0  0.96384  0  0  0.100144  0  1.023439  0  0  0.101348  0  1.024258  0  0.097153  0  0.104437  0.099251  0  1.022775  0
H  H27  1  0.71406593  0.15360985  0.90211894  1  0  0.088576  0  0.963802  0  0  0.100179  0  1.02337  0  0  0.101383  0  1.024188  0  0.097108  0  0.104456  0.099283  0  1.022706  0
H  H28  1  0.51144377  0.73283542  0.14341115  1  0  0.125388  0  0.964363  0  0  0.135137  0  1.023062  0  0  0.138574  0  1.02161  0  0.152251  0  0.109252  0.132667  0  1.024112  0
H  H29  1  0.48855495  0.26716529  0.85658870  1  0  0.125366  0  0.964409  0  0  0.135142  0  1.023077  0  0  0.138579  0  1.021624  0  0.152234  0  0.109253  0.13267  0  1.024128  0
H  H30  1  0.76113797  0.64875205  0.18335052  1  0  0.145484  0  0.972563  0  0  0.15009  0  1.037742  0  0  0.153697  0  1.036346  0  0.136274  0  0.108585  0.147352  0  1.03914  0
H  H31  1  0.23885971  0.35124866  0.81664871  1  0  0.145473  0  0.97257  0  0  0.150096  0  1.037732  0  0  0.153687  0  1.036355  0  0.136392  0  0.108579  0.147357  0  1.039132  0
H  H32  1  0.05659674  0.58387802  0.10366537  1  0  0.124828  0  0.973981  0  0  0.13746  0  1.030131  0  0  0.140567  0  1.027426  0  0.215217  0  0.126776  0.135132  0  1.032132  0
H  H33  1  0.94340242  0.41612449  0.89633521  1  0  0.124838  0  0.974019  0  0  0.137494  0  1.030137  0  0  0.140579  0  1.027464  0  0.215187  0  0.126779  0.135163  0  1.03214  0
H  H34  1  0.74465691  0.75185750  0.50108541  1  0  0.311704  0  0.868553  0  0  0.290057  0  0.932968  0  0  0.297161  0  0.927158  0  0.54982  0  0.335724  0.284697  0  0.937701  0
H  H35  1  0.25534341  0.24814140  0.49891410  1  0  0.311706  0  0.868561  0  0  0.290056  0  0.932964  0  0  0.297159  0  0.927159  0  0.549828  0  0.335732  0.284696  0  0.937698  0
H  H36  1  0.11436570  0.66483575  0.89198202  1  0  0.314508  0  0.89314  0  0  0.298468  0  0.948018  0  0  0.306998  0  0.940999  0  0.553117  0  0.33003  0.292241  0  0.953324  0
H  H37  1  0.88563318  0.33516766  0.10801861  1  0  0.314436  0  0.893247  0  0  0.298516  0  0.947954  0  0  0.307003  0  0.941013  0  0.553114  0  0.330015  0.292288  0  0.953267  0
C  C38  1  0.70423363  0.93661117  0.45666584  1  0  0.077951  0  3.633998  0  0  0.029017  0  3.898578  0  0  0.037329  0  3.913146  0  0.362588  0  0.035799  0.023788  0  3.888452  0
C  C39  1  0.29576743  0.06338864  0.54333522  1  0  0.077993  0  3.633991  0  0  0.029038  0  3.898579  0  0  0.037346  0  3.913149  0  0.362558  0  0.035801  0.023812  0  3.888451  0
C  C40  1  0.74417918  0.02962332  0.50069989  1  0  -0.216436  0  3.697566  0  0  -0.23828  0  3.961206  0  0  -0.24799  0  3.982272  0  -0.005995  0  -0.105841  -0.232182  0  3.947477  0
C  C41  1  0.25582188  0.97037649  0.49930030  1  0  -0.216489  0  3.697532  0  0  -0.238337  0  3.961156  0  0  -0.248048  0  3.982223  0  -0.006344  0  -0.105869  -0.232239  0  3.947429  0
C  C42  1  0.81334331  0.97795201  0.58758048  1  0  0.109149  0  3.822893  0  0  0.096753  0  4.081854  0  0  0.102002  0  4.103287  0  0.432818  0  0.094916  0.093521  0  4.067252  0
C  C43  1  0.18665569  0.02204779  0.41241846  1  0  0.109138  0  3.822921  0  0  0.096767  0  4.081861  0  0  0.10202  0  4.103298  0  0.433153  0  0.094953  0.093535  0  4.067262  0
C  C44  1  0.88047814  0.02628342  0.66579347  1  0  0.195744  0  3.782559  0  0  0.195315  0  4.022274  0  0  0.202401  0  4.041981  0  0.476101  0  0.12519  0.190397  0  4.008902  0
C  C45  1  0.11952160  0.97371728  0.33420614  1  0  0.195776  0  3.782546  0  0  0.195296  0  4.022306  0  0  0.202383  0  4.042023  0  0.476101  0  0.125194  0.190378  0  4.008937  0
C  C46  1  0.90150477  0.14153762  0.65709526  1  0  -0.125027  0  3.637154  0  0  -0.146321  0  3.887746  0  0  -0.152608  0  3.906075  0  -0.006472  0  -0.074392  -0.142049  0  3.875468  0
C  C47  1  0.09849423  0.85846219  0.34290368  1  0  -0.124971  0  3.637075  0  0  -0.146242  0  3.887666  0  0  -0.152534  0  3.905999  0  -0.006448  0  -0.074356  -0.141975  0  3.875394  0
C  C48  1  0.97180042  0.17758865  0.73270795  1  0  0.015524  0  3.701216  0  0  -0.007861  0  3.958539  0  0  -0.002864  0  3.97528  0  -0.060657  0  -0.060039  -0.011002  0  3.946939  0
C  C49  1  0.02819932  0.82241205  0.26729081  1  0  0.015468  0  3.701232  0  0  -0.00793  0  3.958577  0  0  -0.002936  0  3.975324  0  -0.060745  0  -0.060089  -0.011071  0  3.94698  0
C  C50  1  0.01817490  0.09821714  0.81544559  1  0  -0.143864  0  3.753738  0  0  -0.155496  0  4.00782  0  0  -0.163092  0  4.029348  0  -0.049951  0  -0.089378  -0.150382  0  3.992904  0
C  C51  1  0.98182484  0.90178356  0.18455316  1  0  -0.143799  0  3.753687  0  0  -0.155439  0  4.007775  0  0  -0.16303  0  4.0293  0  -0.049876  0  -0.089345  -0.150326  0  3.992858  0
C  C52  1  0.99211577  0.98531148  0.81969749  1  0  0.137971  0  3.72295  0  0  0.106379  0  3.979648  0  0  0.113997  0  3.996085  0  0.513433  0  0.04833  0.101366  0  3.96862  0
C  C53  1  0.00788603  0.01468923  0.18030078  1  0  0.137994  0  3.722965  0  0  0.106405  0  3.97966  0  0  0.114021  0  3.996092  0  0.513535  0  0.048325  0.101393  0  3.96863  0
C  C54  1  0.52986585  0.90331127  0.85471503  1  0  0.154241  0  3.705347  0  0  0.120764  0  3.967288  0  0  0.128924  0  3.983736  0  0.521805  0  0.052964  0.115299  0  3.956472  0
C  C55  1  0.47013418  0.09668854  0.14528454  1  0  0.154204  0  3.705302  0  0  0.12072  0  3.967287  0  0  0.128881  0  3.983729  0  0.521761  0  0.052933  0.115254  0  3.956472  0
C  C56  1  0.39582788  0.91023682  0.93278704  1  0  -0.116138  0  3.723218  0  0  -0.135002  0  3.985746  0  0  -0.141391  0  4.005767  0  -0.019447  0  -0.082139  -0.131023  0  3.972159  0
C  C57  1  0.60416906  0.08976299  0.06721324  1  0  -0.116089  0  3.723242  0  0  -0.134993  0  3.985784  0  0  -0.141377  0  4.005802  0  -0.019435  0  -0.082101  -0.131013  0  3.972196  0
C  C58  1  0.38863532  0.84683918  0.03680619  1  0  0.019635  0  3.696884  0  0  0.000479  0  3.9474  0  0  0.005314  0  3.964809  0  -0.018983  0  -0.060519  -0.002245  0  3.934831  0
C  C59  1  0.61136294  0.15315973  0.96319293  1  0  0.019653  0  3.696852  0  0  0.000471  0  3.947377  0  0  0.005301  0  3.964793  0  -0.018897  0  -0.060528  -0.002253  0  3.934807  0
C  C60  1  0.51476677  0.78259892  0.06233308  1  0  -0.129362  0  3.651187  0  0  -0.14617  0  3.889412  0  0  -0.152876  0  3.908409  0  -0.005259  0  -0.074456  -0.141224  0  3.876016  0
C  C61  1  0.48523091  0.21740179  0.93766528  1  0  -0.129364  0  3.651281  0  0  -0.146225  0  3.889475  0  0  -0.152936  0  3.908476  0  -0.005168  0  -0.074478  -0.14128  0  3.876082  0
C  C62  1  0.64494245  0.78153573  0.98067837  1  0  0.190885  0  3.789591  0  0  0.187973  0  4.03159  0  0  0.194303  0  4.052161  0  0.49704  0  0.122536  0.18362  0  4.017484  0
C  C63  1  0.35505552  0.21846407  0.01932080  1  0  0.19085  0  3.789644  0  0  0.188027  0  4.031515  0  0  0.194361  0  4.052091  0  0.496905  0  0.122524  0.183674  0  4.017411  0
C  C64  1  0.78424550  0.72084601  0.99918021  1  0  0.120133  0  3.807411  0  0  0.108397  0  4.064138  0  0  0.115231  0  4.083986  0  0.436147  0  0.097055  0.103998  0  4.050505  0
C  C65  1  0.21575190  0.27915559  0.00081907  1  0  0.120115  0  3.807488  0  0  0.108407  0  4.064137  0  0  0.11524  0  4.083988  0  0.436208  0  0.097063  0.10401  0  4.050504  0
C  C66  1  0.82740597  0.66325132  0.09699618  1  0  -0.221055  0  3.67912  0  0  -0.238814  0  3.938005  0  0  -0.248336  0  3.957279  0  0.005967  0  -0.103842  -0.232687  0  3.925268  0
C  C67  1  0.17259246  0.33675028  0.90300199  1  0  -0.221005  0  3.679204  0  0  -0.238801  0  3.938069  0  0  -0.248304  0  3.957351  0  0.005809  0  -0.103821  -0.232674  0  3.92533  0
C  C68  1  0.97598648  0.62891255  0.05934595  1  0  0.061297  0  3.659721  0  0  0.010227  0  3.930252  0  0  0.018564  0  3.945022  0  0.293093  0  0.029801  0.005112  0  3.919903  0
C  C69  1  0.02401342  0.37109086  0.94065271  1  0  0.061287  0  3.659749  0  0  0.010194  0  3.930307  0  0  0.018547  0  3.945073  0  0.293034  0  0.029797  0.005082  0  3.919954  0
N  N70  1  0.74879917  0.83785388  0.51563122  1  0  -0.100359  0  3.470295  0  0  -0.0354  0  3.69792  0  0  -0.046344  0  3.716294  0  -0.806012  0  -0.257267  -0.028005  0  3.685689  0
N  N71  1  0.25120189  0.16214593  0.48436897  1  0  -0.100366  0  3.470263  0  0  -0.035364  0  3.69784  0  0  -0.046305  0  3.716213  0  -0.806013  0  -0.257262  -0.027968  0  3.685606  0
N  N72  1  0.81522265  0.86054894  0.59507852  1  0  -0.262611  0  3.160883  0  0  -0.210438  0  3.437521  0  0  -0.223881  0  3.452162  0  -0.711025  0  -0.243658  -0.201273  0  3.427555  0
N  N73  1  0.18477812  0.13945176  0.40492173  1  0  -0.262632  0  3.160954  0  0  -0.210466  0  3.437564  0  0  -0.223912  0  3.452204  0  -0.711005  0  -0.243685  -0.201302  0  3.427598  0
N  N74  1  0.92470090  0.94997884  0.74691052  1  0  -0.362483  0  3.249716  0  0  -0.295032  0  3.518346  0  0  -0.312497  0  3.533152  0  -1.253689  0  -0.319222  -0.283075  0  3.508305  0
N  N75  1  0.07529810  0.05002097  0.25308928  1  0  -0.36246  0  3.249714  0  0  -0.294998  0  3.518355  0  0  -0.312464  0  3.533165  0  -1.253864  0  -0.3192  -0.283042  0  3.508316  0
N  N76  1  0.65117088  0.83925915  0.87695515  1  0  -0.36576  0  3.253555  0  0  -0.299047  0  3.520992  0  0  -0.317187  0  3.537813  0  -1.243182  0  -0.316751  -0.286757  0  3.509791  0
N  N77  1  0.34882915  0.16074065  0.12304355  1  0  -0.365695  0  3.25347  0  0  -0.299042  0  3.520917  0  0  -0.317184  0  3.537739  0  -1.243169  0  -0.316751  -0.286753  0  3.509717  0
N  N78  1  0.90053807  0.72068757  0.90852792  1  0  -0.274415  0  3.190777  0  0  -0.223261  0  3.474308  0  0  -0.237302  0  3.489529  0  -0.751971  0  -0.247232  -0.213734  0  3.463968  0
N  N79  1  0.09946167  0.27931313  0.09147169  1  0  -0.274368  0  3.190812  0  0  -0.223269  0  3.474402  0  0  -0.237307  0  3.48961  0  -0.751981  0  -0.247233  -0.213742  0  3.464059  0
N  N80  1  0.01482529  0.66437843  0.94617883  1  0  -0.125706  0  3.462906  0  0  -0.065126  0  3.696487  0  0  -0.077509  0  3.714799  0  -0.8143  0  -0.263703  -0.056739  0  3.684072  0
N  N81  1  0.98517490  0.33562408  0.05382152  1  0  -0.125715  0  3.462962  0  0  -0.065198  0  3.696491  0  0  -0.077554  0  3.71483  0  -0.814258  0  -0.263716  -0.056811  0  3.684072  0
O  O82  1  0.77327585  0.63660240  0.70276604  1  0  -0.742802  0  1.598114  0  0  -0.739936  0  1.902282  0  0  -0.770371  0  1.891082  0  -0.880599  0  -0.519312  -0.717669  0  1.910559  0
O  O83  1  0.22672578  0.36339560  0.29723665  1  0  -0.742766  0  1.598105  0  0  -0.739886  0  1.902248  0  0  -0.770324  0  1.89105  0  -0.880599  0  -0.519288  -0.717623  0  1.910521  0
O  O84  1  0.13737043  0.41329954  0.59233969  1  0  -0.663683  0  1.429795  0  0  -0.663014  0  1.674874  0  0  -0.687008  0  1.665373  0  -0.815559  0  -0.502723  -0.64592  0  1.683036  0
O  O85  1  0.86263062  0.58670027  0.40766396  1  0  -0.663675  0  1.429767  0  0  -0.662974  0  1.674821  0  0  -0.686966  0  1.665318  0  -0.815544  0  -0.502712  -0.645876  0  1.682977  0
O  O86  1  0.05969560  0.65657964  0.65585652  1  0  -0.712997  0  1.621013  0  0  -0.693056  0  1.918631  0  0  -0.722002  0  1.902837  0  -0.878896  0  -0.5165  -0.67253  0  1.930625  0
O  O87  1  0.94030752  0.34342016  0.34414406  1  0  -0.713004  0  1.621084  0  0  -0.693064  0  1.918719  0  0  -0.721999  0  1.902906  0  -0.878905  0  -0.516494  -0.672534  0  1.930713  0
O  O88  1  0.42954983  0.25119592  0.62639657  1  0  -0.670847  0  1.42557  0  0  -0.661971  0  1.666124  0  0  -0.684462  0  1.655802  0  -0.813564  0  -0.504258  -0.645466  0  1.674411  0
O  O89  1  0.57045049  0.74880298  0.37360467  1  0  -0.670869  0  1.425563  0  0  -0.662  0  1.666108  0  0  -0.684487  0  1.655782  0  -0.813534  0  -0.504261  -0.645496  0  1.674396  0
O  O90  1  0.32694286  0.50483780  0.67530208  1  0  -0.966717  0  1.807363  0  0  -0.95823  0  2.093232  0  0  -1.001252  0  2.090142  0  -1.08537  0  -0.598896  -0.925693  0  2.095543  0
O  O91  1  0.67305894  0.49516291  0.32469965  1  0  -0.966734  0  1.807393  0  0  -0.958238  0  2.093247  0  0  -1.001262  0  2.090164  0  -1.085401  0  -0.598904  -0.925705  0  2.095558  0
O  O92  1  0.58704040  0.37731242  0.70800157  1  0  -0.7833  0  1.642295  0  0  -0.778297  0  1.914618  0  0  -0.81069  0  1.905386  0  -0.924279  0  -0.543345  -0.754589  0  1.921702  0
O  O93  1  0.41296108  0.62268288  0.29200033  1  0  -0.783298  0  1.642319  0  0  -0.778298  0  1.914635  0  0  -0.810693  0  1.905413  0  -0.924238  0  -0.543355  -0.754594  0  1.921726  0
O  O94  1  0.66504963  0.31702691  0.46382144  1  0  -0.964359  0  1.832962  0  0  -0.953033  0  2.122629  0  0  -0.994976  0  2.117092  0  -1.082409  0  -0.596211  -0.920444  0  2.125224  0
O  O95  1  0.33495040  0.68297289  0.53618071  1  0  -0.964326  0  1.832933  0  0  -0.953005  0  2.122608  0  0  -0.994942  0  2.117063  0  -1.082467  0  -0.596194  -0.920417  0  2.125197  0
O  O96  1  0.41889617  0.44226478  0.45175113  1  0  -1.219648  0  1.888229  0  0  -1.20356  0  2.171683  0  0  -1.249778  0  2.169094  0  -1.23246  0  -0.622362  -1.167635  0  2.172178  0
O  O97  1  0.58110650  0.55773323  0.54824958  1  0  -1.219696  0  1.888264  0  0  -1.203609  0  2.171707  0  0  -1.24983  0  2.16913  0  -1.232431  0  -0.622384  -1.167676  0  2.172199  0
O  O98  1  0.45843670  0.81167939  0.65592050  1  0  -0.666723  0  1.465818  0  0  -0.668744  0  1.72193  0  0  -0.695701  0  1.716267  0  -0.800375  0  -0.502079  -0.64932  0  1.726394  0
O  O99  1  0.54156860  0.18831682  0.34407878  1  0  -0.666727  0  1.465761  0  0  -0.668719  0  1.721848  0  0  -0.695677  0  1.716197  0  -0.800387  0  -0.502073  -0.649289  0  1.726305  0
O  O100  1  0.50602291  0.60375443  0.78824468  1  0  -0.846881  0  1.696563  0  0  -0.842481  0  1.969749  0  0  -0.883268  0  1.963175  0  -0.983554  0  -0.584355  -0.812019  0  1.974715  0
O  O101  1  0.49397976  0.39624358  0.21175690  1  0  -0.846917  0  1.69665  0  0  -0.842511  0  1.969823  0  0  -0.883299  0  1.963255  0  -0.983556  0  -0.584378  -0.812049  0  1.974789  0
O  O102  1  0.75368286  0.44784627  0.84679997  1  0  -0.656024  0  1.394312  0  0  -0.650217  0  1.615506  0  0  -0.675439  0  1.605285  0  -0.806797  0  -0.506309  -0.631913  0  1.624153  0
O  O103  1  0.24632022  0.55214724  0.15319814  1  0  -0.656001  0  1.394226  0  0  -0.650206  0  1.615424  0  0  -0.67543  0  1.605202  0  -0.80694  0  -0.506321  -0.631904  0  1.624071  0
O  O104  1  0.82478879  0.41970835  0.58534483  1  0  -0.84922  0  1.740278  0  0  -0.847164  0  2.035252  0  0  -0.88814  0  2.029222  0  -0.983569  0  -0.579757  -0.816251  0  2.039516  0
O  O105  1  0.17521256  0.58029056  0.41465704  1  0  -0.849238  0  1.740236  0  0  -0.84719  0  2.035211  0  0  -0.888164  0  2.029181  0  -0.983546  0  -0.579749  -0.816252  0  2.039421  0
O  O106  1  0.23254324  0.73858165  0.79272489  1  0  -0.699164  0  1.476692  0  0  -0.69495  0  1.722471  0  0  -0.721669  0  1.712299  0  -0.859651  0  -0.5158  -0.675728  0  1.730138  0
O  O107  1  0.76745918  0.26142355  0.20727663  1  0  -0.699158  0  1.476656  0  0  -0.695012  0  1.722427  0  0  -0.721717  0  1.712267  0  -0.859642  0  -0.515833  -0.675786  0  1.730092  0
