# generated using pymatgen
data_CdH24C16(BrN6)2
_symmetry_space_group_name_H-M   'P 1'
_cell_length_a   7.70099200
_cell_length_b   8.76392104
_cell_length_c   18.22370000
_cell_angle_alpha   90.00000000
_cell_angle_beta   90.00000000
_cell_angle_gamma   113.53260214
_symmetry_Int_Tables_number   1
_chemical_formula_structural   CdH24C16(BrN6)2
_chemical_formula_sum   'Cd2 H48 C32 Br4 N24'
_cell_volume   1127.64380283
_cell_formula_units_Z   2
loop_
 _symmetry_equiv_pos_site_id
 _symmetry_equiv_pos_as_xyz
  1  'x, y, z'
loop_
 _atom_site_type_symbol
 _atom_site_label
 _atom_site_symmetry_multiplicity
 _atom_site_fract_x
 _atom_site_fract_y
 _atom_site_fract_z
 _atom_site_occupancy
 _atom_site_hle17_bader_spin_density
 _atom_site_hle17_ddec_charge
 _atom_site_hle17_ddec_spin_density
 _atom_site_hle17_ddec_sum_bond_order
 _atom_site_hle17_magmom
 _atom_site_hse06_10hf_bader_spin_density
 _atom_site_hse06_10hf_ddec_charge
 _atom_site_hse06_10hf_ddec_spin_density
 _atom_site_hse06_10hf_ddec_sum_bond_order
 _atom_site_hse06_10hf_magmom
 _atom_site_hse06_bader_spin_density
 _atom_site_hse06_ddec_charge
 _atom_site_hse06_ddec_spin_density
 _atom_site_hse06_ddec_sum_bond_order
 _atom_site_hse06_magmom
 _atom_site_pbe_bader_charge
 _atom_site_pbe_bader_spin_density
 _atom_site_pbe_cm5_charge
 _atom_site_pbe_ddec_charge
 _atom_site_pbe_ddec_spin_density
 _atom_site_pbe_ddec_sum_bond_order
 _atom_site_pbe_magmom
Cd  Cd0  1  0.00000000  0.00000000  0.50000000  1  0  0.935859  0  1.969317  0  0  0.756645  0  2.416651  0  0  0.804031  0  2.379234  0  1.156253  0  0.665097  0.72338  0  2.441825  0
Cd  Cd1  1  0.50000061  0.50000048  0.00000000  1  0  0.935832  0  1.969341  0  0  0.756627  0  2.416654  0  0  0.804015  0  2.379236  0  1.156263  0  0.665087  0.723363  0  2.44183  0
H  H2  1  0.45881509  0.14613471  0.57029473  1  0  0.092533  0  0.975878  0  0  0.097179  0  1.052192  0  0  0.100232  0  1.047912  0  0.189  0  0.121477  0.094868  0  1.05528  0
H  H3  1  0.04118552  0.35386577  0.07029473  1  0  0.09254  0  0.975904  0  0  0.097172  0  1.052227  0  0  0.100225  0  1.047947  0  0.189  0  0.121476  0.094862  0  1.055313  0
H  H4  1  0.54118612  0.85386625  0.42970527  1  0  0.092521  0  0.975922  0  0  0.097152  0  1.052246  0  0  0.100204  0  1.047966  0  0.188988  0  0.121472  0.094843  0  1.055331  0
H  H5  1  0.95881440  0.64613518  0.92970527  1  0  0.092523  0  0.975888  0  0  0.097155  0  1.052218  0  0  0.100208  0  1.047938  0  0.189008  0  0.121468  0.094845  0  1.055305  0
H  H6  1  0.13726306  0.43363377  0.54763412  1  0  0.085832  0  0.956112  0  0  0.090908  0  1.028303  0  0  0.093647  0  1.024583  0  0.161818  0  0.116811  0.088802  0  1.0311  0
H  H7  1  0.36273568  0.06636547  0.04763412  1  0  0.085818  0  0.956118  0  0  0.090911  0  1.028288  0  0  0.093651  0  1.02457  0  0.161831  0  0.116808  0.088807  0  1.031079  0
H  H8  1  0.86273499  0.56636595  0.45236642  1  0  0.085821  0  0.956114  0  0  0.090914  0  1.028294  0  0  0.093654  0  1.024575  0  0.16183  0  0.116809  0.088811  0  1.031082  0
H  H9  1  0.63726367  0.93363425  0.95236642  1  0  0.085806  0  0.95614  0  0  0.090901  0  1.028315  0  0  0.093641  0  1.024596  0  0.161819  0  0.116797  0.088798  0  1.031102  0
H  H10  1  0.81043379  0.52036625  0.58475172  1  0  0.079966  0  0.933649  0  0  0.091539  0  1.006258  0  0  0.092059  0  1.005916  0  0.114277  0  0.103104  0.090973  0  1.006688  0
H  H11  1  0.68956617  0.97963395  0.08475172  1  0  0.079964  0  0.933641  0  0  0.091537  0  1.006255  0  0  0.092057  0  1.005912  0  0.114278  0  0.103102  0.090971  0  1.006684  0
H  H12  1  0.18956613  0.47963471  0.41524828  1  0  0.079968  0  0.933605  0  0  0.091535  0  1.006204  0  0  0.092056  0  1.00586  0  0.114233  0  0.103101  0.090969  0  1.006634  0
H  H13  1  0.31043504  0.02036701  0.91524828  1  0  0.07996  0  0.933641  0  0  0.091532  0  1.006248  0  0  0.092052  0  1.005905  0  0.114227  0  0.103101  0.090966  0  1.006678  0
H  H14  1  0.71087840  0.57205975  0.66389592  1  0  0.081433  0  0.947307  0  0  0.094591  0  1.013506  0  0  0.095141  0  1.01428  0  0.085698  0  0.113284  0.094212  0  1.012912  0
H  H15  1  0.78912155  0.92794044  0.16389592  1  0  0.081431  0  0.947302  0  0  0.094591  0  1.0135  0  0  0.095141  0  1.014274  0  0.085701  0  0.113283  0.094212  0  1.012906  0
H  H16  1  0.28912095  0.42793996  0.33610463  1  0  0.081449  0  0.947304  0  0  0.094593  0  1.013509  0  0  0.095142  0  1.014284  0  0.085704  0  0.113289  0.094213  0  1.012915  0
H  H17  1  0.21087836  0.07206051  0.83610463  1  0  0.081427  0  0.947309  0  0  0.094586  0  1.013503  0  0  0.095135  0  1.014279  0  0.085695  0  0.113286  0.094207  0  1.012908  0
H  H18  1  0.74872009  0.24095301  0.63532323  1  0  0.07098  0  0.951644  0  0  0.086802  0  1.017333  0  0  0.08724  0  1.018468  0  0.046338  0  0.087554  0.086393  0  1.016608  0
H  H19  1  0.75128025  0.25904747  0.13532323  1  0  0.070967  0  0.951658  0  0  0.08679  0  1.017348  0  0  0.08723  0  1.018483  0  0.046329  0  0.087545  0.086382  0  1.016624  0
H  H20  1  0.25128185  0.75904671  0.36467512  1  0  0.070965  0  0.951581  0  0  0.086785  0  1.017278  0  0  0.087224  0  1.018413  0  0.046348  0  0.087551  0.086377  0  1.016552  0
H  H21  1  0.24871893  0.74095473  0.86467567  1  0  0.070971  0  0.951592  0  0  0.086789  0  1.017282  0  0  0.087228  0  1.018417  0  0.046351  0  0.087563  0.086381  0  1.016556  0
H  H22  1  0.62100888  0.27587748  0.70998645  1  0  0.063428  0  0.948117  0  0  0.080605  0  1.012819  0  0  0.081275  0  1.013394  0  0.030233  0  0.090608  0.080072  0  1.01248  0
H  H23  1  0.87899147  0.22412300  0.20998645  1  0  0.063434  0  0.948111  0  0  0.080615  0  1.012813  0  0  0.081285  0  1.013387  0  0.030234  0  0.090611  0.080082  0  1.012473  0
H  H24  1  0.37899120  0.72412099  0.29001301  1  0  0.063415  0  0.948104  0  0  0.080598  0  1.012806  0  0  0.081268  0  1.013383  0  0.030254  0  0.090595  0.080065  0  1.012467  0
H  H25  1  0.12100901  0.77587921  0.79001246  1  0  0.063424  0  0.948107  0  0  0.0806  0  1.012811  0  0  0.08127  0  1.013388  0  0.030253  0  0.090585  0.080067  0  1.012472  0
H  H26  1  0.04683639  0.46605422  0.67902676  1  0  0.081071  0  0.936191  0  0  0.098343  0  0.998536  0  0  0.099231  0  0.99907  0  0.055838  0  0.095559  0.097645  0  0.998205  0
H  H27  1  0.45316422  0.03394626  0.17902676  1  0  0.081068  0  0.936215  0  0  0.098322  0  0.998559  0  0  0.09921  0  0.999093  0  0.055841  0  0.095554  0.097625  0  0.998228  0
H  H28  1  0.95316482  0.53394674  0.32097324  1  0  0.081076  0  0.936187  0  0  0.098349  0  0.998526  0  0  0.099237  0  0.99906  0  0.055841  0  0.095564  0.097651  0  0.998195  0
H  H29  1  0.54683570  0.96605470  0.82097379  1  0  0.081132  0  0.936166  0  0  0.098383  0  0.998524  0  0  0.099271  0  0.999058  0  0.055833  0  0.095583  0.097687  0  0.998194  0
H  H30  1  0.92326122  0.51433144  0.75135785  1  0  0.06468  0  0.937736  0  0  0.083802  0  0.998794  0  0  0.084427  0  0.999259  0  0.00817  0  0.089633  0.083283  0  0.998535  0
H  H31  1  0.57673930  0.98567000  0.25135785  1  0  0.064698  0  0.937733  0  0  0.083808  0  0.998783  0  0  0.084432  0  0.99925  0  0.008189  0  0.089641  0.083287  0  0.998526  0
H  H32  1  0.07673683  0.48566828  0.24864160  1  0  0.064686  0  0.937706  0  0  0.083805  0  0.998767  0  0  0.08443  0  0.999234  0  0.008167  0  0.08964  0.083286  0  0.998509  0
H  H33  1  0.42326377  0.01433220  0.74864160  1  0  0.0647  0  0.937723  0  0  0.083825  0  0.998774  0  0  0.084452  0  0.999236  0  0.008165  0  0.089647  0.083305  0  0.998521  0
H  H34  1  0.83947025  0.23538490  0.80705949  1  0  0.082652  0  0.934178  0  0  0.093837  0  1.006632  0  0  0.094954  0  1.005699  0  0.085119  0  0.10945  0.092959  0  1.007337  0
H  H35  1  0.66053010  0.26461558  0.30705949  1  0  0.082646  0  0.934153  0  0  0.09384  0  1.006613  0  0  0.094956  0  1.00568  0  0.085117  0  0.109458  0.092962  0  1.007318  0
H  H36  1  0.16052967  0.76461606  0.19294051  1  0  0.082659  0  0.934155  0  0  0.09385  0  1.006611  0  0  0.094968  0  1.005678  0  0.085123  0  0.109458  0.092971  0  1.007316  0
H  H37  1  0.33947055  0.73538414  0.69294051  1  0  0.082649  0  0.934152  0  0  0.093837  0  1.006604  0  0  0.094953  0  1.005671  0  0.085117  0  0.109454  0.092959  0  1.00731  0
H  H38  1  0.93917375  0.17177735  0.73101511  1  0  0.084236  0  0.94404  0  0  0.097438  0  1.00889  0  0  0.097949  0  1.009593  0  0.115501  0  0.112284  0.097063  0  1.008362  0
H  H39  1  0.56082530  0.32822313  0.23101511  1  0  0.084223  0  0.944024  0  0  0.097435  0  1.008875  0  0  0.097945  0  1.009576  0  0.115494  0  0.112286  0.097059  0  1.008347  0
H  H40  1  0.06082560  0.82822236  0.26898544  1  0  0.084231  0  0.944033  0  0  0.097443  0  1.008882  0  0  0.097954  0  1.009584  0  0.115497  0  0.112284  0.097067  0  1.008355  0
H  H41  1  0.43917461  0.67177783  0.76898544  1  0  0.084211  0  0.944045  0  0  0.097413  0  1.008904  0  0  0.097922  0  1.009605  0  0.115497  0  0.112273  0.097037  0  1.008376  0
H  H42  1  0.05852426  0.39336521  0.90977079  1  0  0.106393  0  0.965137  0  0  0.109978  0  1.042232  0  0  0.113463  0  1.03737  0  0.208286  0  0.123759  0.107384  0  1.04565  0
H  H43  1  0.44147635  0.10663527  0.40977079  1  0  0.106374  0  0.965154  0  0  0.10995  0  1.042246  0  0  0.113447  0  1.037373  0  0.208282  0  0.123744  0.107351  0  1.045681  0
H  H44  1  0.94147509  0.60663451  0.09022976  1  0  0.1064  0  0.965155  0  0  0.109959  0  1.042279  0  0  0.113456  0  1.037408  0  0.2083  0  0.123747  0.107366  0  1.045696  0
H  H45  1  0.55852357  0.89336568  0.59022976  1  0  0.106391  0  0.965161  0  0  0.109956  0  1.042279  0  0  0.113452  0  1.037407  0  0.208293  0  0.123744  0.107362  0  1.045697  0
H  H46  1  0.56753973  0.42073279  0.81415300  1  0  0.091265  0  0.933695  0  0  0.101725  0  0.994972  0  0  0.103762  0  0.992505  0  0.143016  0  0.129019  0.100128  0  0.99686  0
H  H47  1  0.93245892  0.07926395  0.31415245  1  0  0.091283  0  0.933691  0  0  0.101735  0  0.994971  0  0  0.10378  0  0.992496  0  0.143026  0  0.12901  0.100137  0  0.996863  0
H  H48  1  0.43245962  0.57926692  0.18584755  1  0  0.091268  0  0.93368  0  0  0.101724  0  0.994958  0  0  0.103764  0  0.992487  0  0.143015  0  0.129008  0.100126  0  0.996848  0
H  H49  1  0.06754116  0.92073452  0.68584755  1  0  0.091268  0  0.93368  0  0  0.101724  0  0.994957  0  0  0.103765  0  0.992487  0  0.14301  0  0.12901  0.100126  0  0.996848  0
C  C50  1  0.41179801  0.24732757  0.57251052  1  0  0.166794  0  3.665809  0  0  0.089824  0  3.928834  0  0  0.103592  0  3.940925  0  0.981882  0  0.151019  0.081166  0  3.920334  0
C  C51  1  0.08820259  0.25267290  0.07251052  1  0  0.16679  0  3.665773  0  0  0.08984  0  3.928807  0  0  0.103611  0  3.940896  0  0.981881  0  0.151027  0.081181  0  3.920308  0
C  C52  1  0.58820190  0.75267338  0.42748948  1  0  0.166843  0  3.66578  0  0  0.089895  0  3.928815  0  0  0.103666  0  3.940904  0  0.981861  0  0.151069  0.081236  0  3.920317  0
C  C53  1  0.91179862  0.74732805  0.92748893  1  0  0.166802  0  3.665767  0  0  0.089845  0  3.928794  0  0  0.103615  0  3.940884  0  0.981869  0  0.151027  0.081185  0  3.920297  0
C  C54  1  0.25174096  0.39586301  0.56100627  1  0  0.19419  0  3.723926  0  0  0.141207  0  4.019927  0  0  0.152748  0  4.032168  0  0.93431  0  0.133035  0.133795  0  4.011311  0
C  C55  1  0.24825778  0.10413622  0.06100627  1  0  0.194245  0  3.72399  0  0  0.141254  0  4.019976  0  0  0.152793  0  4.032221  0  0.934303  0  0.133059  0.133843  0  4.011361  0
C  C56  1  0.74825895  0.60413795  0.43899428  1  0  0.194146  0  3.724023  0  0  0.141144  0  4.020027  0  0  0.152683  0  4.032272  0  0.934305  0  0.133009  0.133734  0  4.011412  0
C  C57  1  0.75174157  0.89586349  0.93899428  1  0  0.194183  0  3.723996  0  0  0.141181  0  4.020004  0  0  0.152719  0  4.032249  0  0.934311  0  0.133025  0.133771  0  4.011389  0
C  C58  1  0.70436456  0.46889178  0.62848982  1  0  -0.008499  0  3.616723  0  0  -0.080447  0  3.867845  0  0  -0.076898  0  3.87945  0  0.267131  0  -0.050981  -0.08248  0  3.859742  0
C  C59  1  0.79563579  0.03110870  0.12848982  1  0  -0.008497  0  3.616714  0  0  -0.080444  0  3.867862  0  0  -0.076893  0  3.879465  0  0.267059  0  -0.050981  -0.082477  0  3.859759  0
C  C60  1  0.29563666  0.53110918  0.37151018  1  0  -0.008543  0  3.616765  0  0  -0.080426  0  3.867822  0  0  -0.076876  0  3.879426  0  0.267105  0  -0.050971  -0.082459  0  3.859719  0
C  C61  1  0.20436542  0.96889226  0.87151018  1  0  -0.008483  0  3.616708  0  0  -0.080416  0  3.867814  0  0  -0.076866  0  3.879419  0  0.267176  0  -0.050978  -0.082449  0  3.859711  0
C  C62  1  0.74123302  0.33721622  0.67252314  1  0  -0.12568  0  3.692114  0  0  -0.163931  0  3.950021  0  0  -0.165946  0  3.965203  0  -0.030725  0  -0.162827  -0.162338  0  3.93942  0
C  C63  1  0.75876732  0.16278425  0.17252259  1  0  -0.125688  0  3.692168  0  0  -0.16396  0  3.950074  0  0  -0.165975  0  3.965255  0  -0.030734  0  -0.162833  -0.162366  0  3.939473  0
C  C64  1  0.25876706  0.66278224  0.32747576  1  0  -0.125662  0  3.692089  0  0  -0.163953  0  3.950033  0  0  -0.165969  0  3.965218  0  -0.030753  0  -0.162834  -0.162359  0  3.939433  0
C  C65  1  0.24123316  0.83721795  0.82747576  1  0  -0.125678  0  3.692098  0  0  -0.163941  0  3.95003  0  0  -0.165958  0  3.965215  0  -0.03075  0  -0.162833  -0.162345  0  3.939431  0
C  C66  1  0.92500427  0.41243415  0.71631447  1  0  -0.117998  0  3.667454  0  0  -0.159543  0  3.926918  0  0  -0.161259  0  3.941162  0  -0.007713  0  -0.162031  -0.158111  0  3.916897  0
C  C67  1  0.57499664  0.08756757  0.21631392  1  0  -0.118039  0  3.667508  0  0  -0.159511  0  3.926909  0  0  -0.161228  0  3.941153  0  -0.007712  0  -0.16203  -0.15808  0  3.916888  0
C  C68  1  0.07499507  0.58756556  0.28368553  1  0  -0.117988  0  3.667423  0  0  -0.159516  0  3.926891  0  0  -0.161229  0  3.941134  0  -0.007718  0  -0.162028  -0.158085  0  3.916869  0
C  C69  1  0.42500514  0.91243463  0.78368553  1  0  -0.118071  0  3.667509  0  0  -0.159601  0  3.926968  0  0  -0.161317  0  3.94121  0  -0.007708  0  -0.162038  -0.158177  0  3.916957  0
C  C70  1  0.94866065  0.27913073  0.76415327  1  0  -0.014805  0  3.628816  0  0  -0.087408  0  3.884461  0  0  -0.08359  0  3.895165  0  0.272313  0  -0.050243  -0.089565  0  3.876819  0
C  C71  1  0.55133969  0.22086975  0.26415327  1  0  -0.01473  0  3.628778  0  0  -0.087385  0  3.884471  0  0  -0.083564  0  3.895173  0  0.272312  0  -0.050248  -0.089541  0  3.876827  0
C  C72  1  0.05133870  0.72086899  0.23584673  1  0  -0.01478  0  3.628799  0  0  -0.087417  0  3.884463  0  0  -0.0836  0  3.895166  0  0.272312  0  -0.050234  -0.089573  0  3.876819  0
C  C73  1  0.44865965  0.77912996  0.73584673  1  0  -0.014753  0  3.62881  0  0  -0.087364  0  3.884444  0  0  -0.083542  0  3.895145  0  0.272307  0  -0.050252  -0.08952  0  3.876804  0
C  C74  1  0.16661778  0.39174978  0.87157273  1  0  0.173916  0  3.645451  0  0  0.094725  0  3.916008  0  0  0.109186  0  3.926677  0  0.950381  0  0.161034  0.085681  0  3.908469  0
C  C75  1  0.33338226  0.10824945  0.37157273  1  0  0.17397  0  3.645498  0  0  0.094796  0  3.916052  0  0  0.109248  0  3.926713  0  0.950347  0  0.1611  0.08575  0  3.90851  0
C  C76  1  0.83338213  0.60825117  0.12842782  1  0  0.173883  0  3.645475  0  0  0.094682  0  3.916052  0  0  0.109134  0  3.926711  0  0.950396  0  0.161024  0.085638  0  3.908514  0
C  C77  1  0.66661782  0.89174902  0.62842782  1  0  0.173885  0  3.645519  0  0  0.094684  0  3.916094  0  0  0.109136  0  3.926754  0  0.950401  0  0.161025  0.085641  0  3.908555  0
C  C78  1  0.42033561  0.40183186  0.82088709  1  0  0.18528  0  3.74468  0  0  0.13266  0  4.040668  0  0  0.144655  0  4.051683  0  0.941937  0  0.137412  0.124943  0  4.032941  0
C  C79  1  0.07966629  0.09816862  0.32088709  1  0  0.185237  0  3.74469  0  0  0.132618  0  4.040684  0  0  0.144607  0  4.051696  0  0.941682  0  0.137406  0.124902  0  4.032955  0
C  C80  1  0.57966503  0.59816786  0.17911346  1  0  0.185246  0  3.744676  0  0  0.132639  0  4.040659  0  0  0.144633  0  4.05167  0  0.941892  0  0.137426  0.124923  0  4.032931  0
C  C81  1  0.92033492  0.90183234  0.67911346  1  0  0.185255  0  3.744652  0  0  0.132646  0  4.040632  0  0  0.144639  0  4.051644  0  0.941627  0  0.137426  0.12493  0  4.032904  0
Br  Br82  1  0.20253756  0.80426608  0.53756976  1  0  -0.628269  0  0.738192  0  0  -0.572533  0  0.999977  0  0  -0.588489  0  0.979272  0  -0.696337  0  -0.344479  -0.560711  0  1.014126  0
Br  Br83  1  0.29746265  0.69573411  0.03756976  1  0  -0.628273  0  0.738201  0  0  -0.572529  0  0.999977  0  0  -0.588487  0  0.979272  0  -0.696337  0  -0.344481  -0.560709  0  1.014125  0
Br  Br84  1  0.79746308  0.19573364  0.46243024  1  0  -0.62827  0  0.738204  0  0  -0.572528  0  0.999981  0  0  -0.588485  0  0.979277  0  -0.696319  0  -0.344476  -0.560706  0  1.014132  0
Br  Br85  1  0.70253517  0.30425938  0.96242969  1  0  -0.62826  0  0.738185  0  0  -0.572536  0  0.999981  0  0  -0.588491  0  0.979273  0  -0.696341  0  -0.344474  -0.560716  0  1.014128  0
N  N86  1  0.24347778  0.23910485  0.54963975  1  0  -0.406013  0  3.212036  0  0  -0.33252  0  3.496082  0  0  -0.35478  0  3.512254  0  -1.227475  0  -0.353311  -0.317373  0  3.484412  0
N  N87  1  0.25652226  0.26089438  0.04963975  1  0  -0.406042  0  3.212068  0  0  -0.332547  0  3.4961  0  0  -0.354807  0  3.512272  0  -1.227473  0  -0.353321  -0.3174  0  3.484432  0
N  N88  1  0.75652027  0.76089486  0.45036079  1  0  -0.406019  0  3.212157  0  0  -0.332532  0  3.496211  0  0  -0.354791  0  3.512382  0  -1.227483  0  -0.353345  -0.317386  0  3.484543  0
N  N89  1  0.74347839  0.73910533  0.95036079  1  0  -0.405972  0  3.212052  0  0  -0.332479  0  3.496092  0  0  -0.354739  0  3.512265  0  -1.227463  0  -0.353288  -0.317333  0  3.484424  0
N  N90  1  0.41491401  0.49925997  0.58982918  1  0  -0.271338  0  2.854032  0  0  -0.277866  0  3.135977  0  0  -0.285825  0  3.150274  0  -0.673525  0  -0.225442  -0.272225  0  3.126225  0
N  N91  1  0.08508603  0.00073926  0.08982863  1  0  -0.271364  0  2.854032  0  0  -0.277882  0  3.135977  0  0  -0.285839  0  3.150275  0  -0.673547  0  -0.225446  -0.272241  0  3.126226  0
N  N92  1  0.58508663  0.50073974  0.41017137  1  0  -0.271302  0  2.853975  0  0  -0.277826  0  3.135948  0  0  -0.285784  0  3.150247  0  -0.673521  0  -0.225423  -0.272184  0  3.126194  0
N  N93  1  0.91491462  0.99926045  0.91017137  1  0  -0.27135  0  2.85408  0  0  -0.277881  0  3.136042  0  0  -0.285841  0  3.150341  0  -0.673532  0  -0.225449  -0.272237  0  3.126284  0
N  N94  1  0.51477131  0.40211437  0.59675532  1  0  0.043852  0  3.560939  0  0  0.166547  0  3.745215  0  0  0.156584  0  3.768314  0  -0.822201  0  -0.134831  0.172078  0  3.73123  0
N  N95  1  0.98522903  0.09788611  0.09675478  1  0  0.043863  0  3.56085  0  0  0.166535  0  3.745157  0  0  0.156567  0  3.768265  0  -0.822117  0  -0.134846  0.172066  0  3.731172  0
N  N96  1  0.48522804  0.59788534  0.40324522  1  0  0.043848  0  3.560863  0  0  0.166512  0  3.745141  0  0  0.156544  0  3.76825  0  -0.822109  0  -0.134847  0.172043  0  3.731156  0
N  N97  1  0.01477218  0.90211485  0.90324468  1  0  0.043855  0  3.560991  0  0  0.16655  0  3.745254  0  0  0.156587  0  3.768354  0  -0.822195  0  -0.134824  0.172081  0  3.73127  0
N  N98  1  0.12993449  0.33807496  0.80191564  1  0  0.041144  0  3.562862  0  0  0.164175  0  3.747559  0  0  0.153479  0  3.77111  0  -0.826519  0  -0.136904  0.169759  0  3.734116  0
N  N99  1  0.37006612  0.16192552  0.30191564  1  0  0.041084  0  3.56291  0  0  0.164118  0  3.747626  0  0  0.153417  0  3.771186  0  -0.826398  0  -0.136937  0.169702  0  3.734182  0
N  N100  1  0.87006542  0.66192600  0.19808491  1  0  0.041114  0  3.562923  0  0  0.164186  0  3.747613  0  0  0.153482  0  3.771181  0  -0.826869  0  -0.136902  0.169768  0  3.734169  0
N  N101  1  0.62993453  0.83807420  0.69808491  1  0  0.041123  0  3.562904  0  0  0.164189  0  3.747593  0  0  0.153485  0  3.771157  0  -0.826859  0  -0.136894  0.169772  0  3.73415  0
N  N102  1  0.29055190  0.34289136  0.76825946  1  0  -0.281803  0  2.83343  0  0  -0.287571  0  3.108209  0  0  -0.294288  0  3.120007  0  -0.687755  0  -0.233275  -0.282764  0  3.100273  0
N  N103  1  0.20944757  0.15710663  0.26825892  1  0  -0.281777  0  2.833453  0  0  -0.287542  0  3.108238  0  0  -0.294258  0  3.120038  0  -0.687687  0  -0.233256  -0.282736  0  3.1003  0
N  N104  1  0.70944744  0.65710836  0.23174108  1  0  -0.281755  0  2.833411  0  0  -0.287543  0  3.108199  0  0  -0.294258  0  3.119997  0  -0.687403  0  -0.233269  -0.282736  0  3.100262  0
N  N105  1  0.79055251  0.84289184  0.73174108  1  0  -0.281755  0  2.833411  0  0  -0.287544  0  3.108201  0  0  -0.294259  0  3.119999  0  -0.687401  0  -0.233268  -0.282737  0  3.100263  0
N  N106  1  0.35041449  0.43402456  0.88505847  1  0  -0.403167  0  3.232579  0  0  -0.332387  0  3.522243  0  0  -0.354563  0  3.537836  0  -1.197127  0  -0.353264  -0.317327  0  3.510982  0
N  N107  1  0.14958572  0.06597219  0.38505792  1  0  -0.403165  0  3.232609  0  0  -0.332375  0  3.522254  0  0  -0.354551  0  3.537852  0  -1.19703  0  -0.353281  -0.317313  0  3.51099  0
N  N108  1  0.64958430  0.56597391  0.11494208  1  0  -0.403134  0  3.232516  0  0  -0.332345  0  3.522171  0  0  -0.35452  0  3.537766  0  -1.197116  0  -0.353261  -0.317284  0  3.51091  0
N  N109  1  0.85041436  0.93402628  0.61494208  1  0  -0.403152  0  3.232542  0  0  -0.332354  0  3.522188  0  0  -0.354529  0  3.537783  0  -1.196846  0  -0.35326  -0.317293  0  3.510926  0
