# generated using pymatgen
data_ZnH17C28NO4
_symmetry_space_group_name_H-M   'P 1'
_cell_length_a   17.16484499
_cell_length_b   16.61021732
_cell_length_c   17.66619330
_cell_angle_alpha   89.17838720
_cell_angle_beta   88.17102981
_cell_angle_gamma   85.44483452
_symmetry_Int_Tables_number   1
_chemical_formula_structural   ZnH17C28NO4
_chemical_formula_sum   'Zn2 H34 C56 N2 O8'
_cell_volume   5018.02039805
_cell_formula_units_Z   2
loop_
 _symmetry_equiv_pos_site_id
 _symmetry_equiv_pos_as_xyz
  1  'x, y, z'
loop_
 _atom_site_type_symbol
 _atom_site_label
 _atom_site_symmetry_multiplicity
 _atom_site_fract_x
 _atom_site_fract_y
 _atom_site_fract_z
 _atom_site_occupancy
 _atom_site_pbe_bader_charge
 _atom_site_pbe_bader_spin_density
 _atom_site_pbe_cm5_charge
 _atom_site_pbe_ddec_charge
 _atom_site_pbe_ddec_spin_density
 _atom_site_pbe_ddec_sum_bond_order
 _atom_site_pbe_magmom
Zn  Zn0  1  0.51521954  0.58543651  0.50196094  1  1.303936  0  0.676497  0.851605  0  2.36507  0
Zn  Zn1  1  0.50740861  0.41181984  0.51094924  1  1.316118  0  0.675704  0.848865  0  2.364325  0
H  H2  1  0.28940195  0.41249141  0.42402230  1  0.07993  0  0.103946  0.108506  0  1.002838  0
H  H3  1  0.25520589  0.66026745  0.49035906  1  0.111489  0  0.103018  0.107364  0  0.999672  0
H  H4  1  0.02036372  0.41432745  0.40372021  1  0.059983  0  0.098481  0.097223  0  1.006954  0
H  H5  1  0.00472930  0.59566585  0.44010622  1  0.027994  0  0.097902  0.091838  0  1.014151  0
H  H6  1  0.11332418  0.66107278  0.46291800  1  0.044023  0  0.097278  0.094623  0  1.004065  0
H  H7  1  0.89330671  0.36166511  0.38171414  1  0.042275  0  0.09846  0.097906  0  1.000488  0
H  H8  1  0.90128492  0.58554169  0.50106679  1  0.064096  0  0.099639  0.097764  0  1.010881  0
H  H9  1  0.14940973  0.41269370  0.39281157  1  0.030847  0  0.098662  0.096904  0  1.004821  0
H  H10  1  0.40747252  0.61540475  0.14709871  1  0.074381  0  0.102895  0.104968  0  0.993182  0
H  H11  1  0.50980019  0.38380595  0.88991150  1  0.060964  0  0.104334  0.107027  0  0.991348  0
H  H12  1  0.43748334  0.60613048  0.28488593  1  0.1009  0  0.105937  0.111397  0  0.99744  0
H  H13  1  0.76097471  0.58308395  0.53573278  1  0.087062  0  0.105741  0.109668  0  0.994188  0
H  H14  1  0.53386498  0.38756152  0.74978708  1  0.112913  0  0.107308  0.112124  0  0.994503  0
H  H15  1  0.53296991  0.36152231  0.25705604  1  0.095414  0  0.103973  0.108057  0  0.996572  0
H  H16  1  0.43173617  0.63163435  0.74064529  1  0.082409  0  0.103777  0.106463  0  1.001008  0
H  H17  1  0.50854159  0.37120435  0.11813334  1  0.086863  0  0.102718  0.104892  0  0.994056  0
H  H18  1  0.40570800  0.62856941  0.88063112  1  0.06399  0  0.103515  0.106696  0  0.992757  0
H  H19  1  0.52047872  0.76345209  0.28155911  1  0.034413  0  0.09967  0.094821  0  1.001787  0
H  H20  1  0.59382548  0.68969800  0.17693817  1  0.090793  0  0.102149  0.097393  0  0.992888  0
H  H21  1  0.70912466  0.59466367  0.20492526  1  0.085399  0  0.103433  0.097745  0  0.989875  0
H  H22  1  0.75081076  0.57360371  0.33836961  1  0.070769  0  0.099434  0.095913  0  1.015494  0
H  H23  1  0.67580095  0.64501209  0.44267198  1  0.109265  0  0.101152  0.101767  0  1.045956  0
H  H24  1  0.44106713  0.86358350  0.59870191  1  0.108499  0  0.117344  0.127568  0  0.979891  0
H  H25  1  0.43630961  0.34495165  0.66624467  1  0.106663  0  0.101331  0.103144  0  1.041599  0
H  H26  1  0.32753764  0.42331797  0.73411326  1  0.061625  0  0.101302  0.097768  0  1.003427  0
H  H27  1  0.19173486  0.42456843  0.68723452  1  0.067806  0  0.103345  0.097118  0  0.989684  0
H  H28  1  0.16566970  0.34471154  0.57388948  1  0.074145  0  0.101612  0.09738  0  0.993364  0
H  H29  1  0.27463949  0.26390954  0.50760742  1  0.056393  0  0.099662  0.094503  0  1.002169  0
H  H30  1  0.60156673  0.12820584  0.44567153  1  0.101039  0  0.117256  0.127383  0  0.979689  0
H  H31  1  0.46711535  0.71272705  0.59725177  1  0.173058  0  0.126701  0.107148  0  0.999601  0
H  H32  1  0.60234819  0.27704236  0.46780355  1  0.170311  0  0.127919  0.108879  0  0.99412  0
H  H33  1  0.55808393  0.86920137  0.37852561  1  0.109266  0  0.115162  0.130043  0  0.985433  0
H  H34  1  0.37058292  0.14092009  0.55200215  1  0.095786  0  0.115545  0.130543  0  0.984876  0
H  H35  1  0.75255511  0.35883187  0.42000230  1  0.082657  0  0.102859  0.106055  0  1.000024  0
C  C36  1  0.49955072  0.51127112  0.65267324  1  1.581275  0  0.215314  0.59356  0  4.166363  0
C  C37  1  0.44843952  0.57766634  0.77398295  1  -0.023803  0  -0.085205  -0.093739  0  4.004658  0
C  C38  1  0.49224270  0.42223273  0.15502592  1  -0.097105  0  -0.087129  -0.131614  0  3.96318  0
C  C39  1  0.43389675  0.57590957  0.85181868  1  -0.024337  0  -0.087377  -0.135104  0  3.963105  0
C  C40  1  0.45740755  0.49438038  0.12313127  1  0.103149  0  -0.002614  0.13674  0  4.126297  0
C  C41  1  0.45673766  0.50618132  0.89486170  1  0.100291  0  -0.000355  0.14321  0  4.123643  0
C  C42  1  0.44884037  0.50052931  0.04385200  1  -0.006468  0  -0.046788  -0.107969  0  4.131101  0
C  C43  1  0.44854551  0.50440556  0.97473957  1  -0.411557  0  -0.05136  -0.119602  0  4.133272  0
C  C44  1  0.47133542  0.83363685  0.55052845  1  0.038218  0  -0.076584  -0.180463  0  3.923252  0
C  C45  1  0.55149565  0.16178615  0.47277767  1  -0.030721  0  -0.07587  -0.178812  0  3.923978  0
C  C46  1  0.48606394  0.75043070  0.55015425  1  0.404546  0  0.057075  0.112229  0  3.929475  0
C  C47  1  0.50610240  0.47932131  0.36080971  1  1.570457  0  0.21196  0.590101  0  4.174734  0
C  C48  1  0.55234157  0.24381060  0.48535261  1  0.487868  0  0.056805  0.111016  0  3.930684  0
C  C49  1  0.54952292  0.75237384  0.43126967  1  0.497437  0  0.138152  0.236378  0  3.950461  0
C  C50  1  0.42761169  0.25171833  0.54291857  1  0.479691  0  0.137867  0.23543  0  3.951772  0
C  C51  1  0.36273299  0.53193235  0.48641885  1  1.557273  0  0.21086  0.590544  0  4.176744  0
C  C52  1  0.66217445  0.47233831  0.50013134  1  1.577102  0  0.21385  0.593139  0  4.165522  0
C  C53  1  0.53599430  0.83653294  0.42750807  1  0.01403  0  -0.071682  -0.215082  0  3.866731  0
C  C54  1  0.42250499  0.16911156  0.53149505  1  0.038419  0  -0.072358  -0.215811  0  3.868915  0
C  C55  1  0.49726245  0.87870257  0.48780030  1  0.032297  0  0.018237  0.182933  0  4.121585  0
C  C56  1  0.48521115  0.12242369  0.49703244  1  0.060524  0  0.019049  0.183112  0  4.12283  0
C  C57  1  0.48822743  0.96416181  0.48743759  1  -0.223047  0  -0.027813  -0.08844  0  4.07293  0
C  C58  1  0.43575656  0.56019936  0.17112782  1  -0.025246  0  -0.086789  -0.133483  0  3.962041  0
C  C59  1  0.48435462  0.03766318  0.49020954  1  -0.128442  0  -0.027846  -0.087869  0  4.071517  0
C  C60  1  0.27998132  0.53536902  0.46173237  1  0.026966  0  -0.016575  -0.026549  0  3.954909  0
C  C61  1  0.74764214  0.47103951  0.47981807  1  -0.026165  0  -0.018562  -0.034817  0  3.964096  0
C  C62  1  0.24997374  0.46658305  0.43199117  1  -0.074587  0  -0.082775  -0.086402  0  3.991272  0
C  C63  1  0.79037362  0.53520489  0.50132545  1  -0.072184  0  -0.084909  -0.091171  0  4.004125  0
C  C64  1  0.17158348  0.46713799  0.41498252  1  0.008993  0  -0.092975  -0.135843  0  3.974631  0
C  C65  1  0.86882783  0.53674379  0.48082097  1  -0.051445  0  -0.092697  -0.134427  0  3.972881  0
C  C66  1  0.12003600  0.53621880  0.42881513  1  -0.024954  0  -0.012864  0.109772  0  4.053947  0
C  C67  1  0.90795758  0.47467604  0.43694322  1  -0.029324  0  -0.011995  0.113346  0  4.049889  0
C  C68  1  0.15214137  0.60653033  0.45367172  1  -0.109241  0  -0.094501  -0.140794  0  3.990706  0
C  C69  1  0.49228640  0.43779549  0.85689481  1  0.013987  0  -0.085591  -0.130753  0  3.957863  0
C  C70  1  0.86443862  0.41056340  0.41552038  1  -0.089887  0  -0.095987  -0.1462  0  3.987926  0
C  C71  1  0.23091718  0.60636581  0.46963433  1  -0.037577  0  -0.087805  -0.094412  0  4.004626  0
C  C72  1  0.78576298  0.40854656  0.43687533  1  0.021973  0  -0.086639  -0.093823  0  4.001072  0
C  C73  1  0.03533452  0.53691476  0.42715157  1  -0.007975  0  -0.090397  -0.125544  0  4.005871  0
C  C74  1  0.99172067  0.47316791  0.41955456  1  -0.041608  0  -0.096289  -0.142934  0  4.001634  0
C  C75  1  0.59368535  0.70914792  0.36893133  1  -0.013518  0  -0.013241  0.021624  0  4.013952  0
C  C76  1  0.57162826  0.72251547  0.29366763  1  -0.059952  0  -0.089934  -0.124598  0  3.995213  0
C  C77  1  0.61275905  0.68100060  0.23502773  1  -0.050735  0  -0.092685  -0.082385  0  4.040332  0
C  C78  1  0.67719277  0.62728743  0.25085159  1  -0.093144  0  -0.086632  -0.077037  0  4.006652  0
C  C79  1  0.70041695  0.61516710  0.32549439  1  -0.047882  0  -0.088928  -0.071442  0  3.996908  0
C  C80  1  0.45205193  0.55506133  0.24763924  1  -0.024234  0  -0.081599  -0.088018  0  3.990011  0
C  C81  1  0.65871821  0.65567321  0.38435793  1  0.014686  0  -0.087077  -0.108147  0  3.959045  0
C  C82  1  0.36259701  0.29922095  0.58279570  1  -0.056578  0  -0.012228  0.023341  0  4.009777  0
C  C83  1  0.37687622  0.34410435  0.64678765  1  -0.030083  0  -0.086691  -0.108959  0  3.959761  0
C  C84  1  0.31552775  0.38852029  0.68447983  1  0.002015  0  -0.08927  -0.073328  0  4.000772  0
C  C85  1  0.23953777  0.38890119  0.65833862  1  -0.064582  0  -0.08641  -0.076302  0  4.005443  0
C  C86  1  0.22476278  0.34362628  0.59501539  1  -0.064988  0  -0.092503  -0.082232  0  4.036494  0
C  C87  1  0.28585685  0.29820469  0.55784594  1  -0.029049  0  -0.089099  -0.123682  0  3.994303  0
C  C88  1  0.50571565  0.43990954  0.77906649  1  -0.095119  0  -0.08348  -0.092182  0  3.998682  0
C  C89  1  0.48804614  0.48383072  0.27850612  1  -0.054935  0  -0.013696  -0.019319  0  3.952769  0
C  C90  1  0.48469345  0.50999250  0.73673075  1  -0.04252  0  -0.016293  -0.030851  0  3.958856  0
C  C91  1  0.50641509  0.41698520  0.23191483  1  -0.008671  0  -0.085829  -0.096167  0  4.003218  0
N  N92  1  0.52433405  0.71016075  0.49248680  1  -1.232523  0  -0.306879  -0.246467  0  3.421077  0
N  N93  1  0.49249728  0.28819495  0.51986310  1  -1.20269  0  -0.306559  -0.24505  0  3.423698  0
O  O94  1  0.49365858  0.57940346  0.61857649  1  -1.165925  0  -0.315141  -0.54929  0  2.326176  0
O  O95  1  0.51017033  0.40995871  0.39256565  1  -1.171671  0  -0.323011  -0.55127  0  2.293804  0
O  O96  1  0.51642407  0.44294974  0.62164590  1  -1.174462  0  -0.315619  -0.557192  0  2.374687  0
O  O97  1  0.51520092  0.54634104  0.39242056  1  -1.171553  0  -0.314139  -0.556366  0  2.375113  0
O  O98  1  0.39413958  0.59832690  0.49259351  1  -1.159924  0  -0.324646  -0.552328  0  2.290595  0
O  O99  1  0.62914596  0.40658023  0.49688769  1  -1.165152  0  -0.316483  -0.547629  0  2.309069  0
O  O100  1  0.39523933  0.46156664  0.49968604  1  -1.179861  0  -0.315687  -0.559359  0  2.377084  0
O  O101  1  0.62844569  0.54107222  0.51802218  1  -1.17925  0  -0.320741  -0.564279  0  2.364791  0
