# generated using pymatgen
data_KCoH20C13N2O9
_symmetry_space_group_name_H-M   'P 1'
_cell_length_a   9.59696985
_cell_length_b   12.98458308
_cell_length_c   13.74161752
_cell_angle_alpha   92.34515497
_cell_angle_beta   90.00023529
_cell_angle_gamma   89.99864887
_symmetry_Int_Tables_number   1
_chemical_formula_structural   KCoH20C13N2O9
_chemical_formula_sum   'K4 Co4 H80 C52 N8 O36'
_cell_volume   1710.94521352
_cell_formula_units_Z   4
loop_
 _symmetry_equiv_pos_site_id
 _symmetry_equiv_pos_as_xyz
  1  'x, y, z'
loop_
 _atom_site_type_symbol
 _atom_site_label
 _atom_site_symmetry_multiplicity
 _atom_site_fract_x
 _atom_site_fract_y
 _atom_site_fract_z
 _atom_site_occupancy
 _atom_site_pbe_bader_charge
 _atom_site_pbe_bader_spin_density
 _atom_site_pbe_cm5_charge
 _atom_site_pbe_ddec_charge
 _atom_site_pbe_ddec_spin_density
 _atom_site_pbe_ddec_sum_bond_order
 _atom_site_pbe_magmom
K  K0  1  0.16856630  0.25006218  0.50000105  1  0.893888  0  0.740908  0.884035  0  0.588891  0
K  K1  1  0.83144560  0.75000387  0.50000830  1  0.893934  0  0.740916  0.884005  0  0.588948  0
K  K2  1  0.56035247  0.25000324  0.50000520  1  0.886549  0  0.840858  0.871054  0  0.690935  0
K  K3  1  0.43964693  0.74999660  0.49999570  1  0.886528  0  0.840886  0.871056  0  0.690918  0
Co  Co4  1  0.65624222  0.15639634  0.72823235  1  1.208578  0  0.729746  0.759785  0  3.09678  0
Co  Co5  1  0.65623991  0.34360555  0.27176793  1  1.208666  0  0.729711  0.759552  0  3.096943  0
Co  Co6  1  0.34375510  0.84360195  0.27176921  1  1.208612  0  0.729702  0.759469  0  3.097088  0
Co  Co7  1  0.34376574  0.65639660  0.72823309  1  1.208176  0  0.729703  0.759751  0  3.096685  0
H  H8  1  0.61055447  0.92296738  0.89083170  1  0.091588  0  0.112846  0.10315  0  0.958385  0
H  H9  1  0.61055249  0.57704281  0.10916981  1  0.091357  0  0.112859  0.103191  0  0.958313  0
H  H10  1  0.38943034  0.07703395  0.10917364  1  0.091991  0  0.112858  0.103158  0  0.958303  0
H  H11  1  0.38946358  0.42295635  0.89082451  1  0.091386  0  0.112862  0.103175  0  0.958365  0
H  H12  1  0.68190996  0.04598393  0.91800881  1  0.099995  0  0.111218  0.101121  0  1.05305  0
H  H13  1  0.68191338  0.45402596  0.08199486  1  0.100131  0  0.111151  0.100963  0  1.05302  0
H  H14  1  0.31807902  0.95401587  0.08199500  1  0.100068  0  0.111168  0.101049  0  1.053011  0
H  H15  1  0.31810478  0.54597313  0.91800455  1  0.100241  0  0.111136  0.101008  0  1.0529  0
H  H16  1  0.79827577  0.86799011  0.79048262  1  0.106229  0  0.099267  0.11381  0  1.029459  0
H  H17  1  0.79826428  0.63201523  0.20952577  1  0.106038  0  0.09931  0.113779  0  1.029598  0
H  H18  1  0.20171113  0.13200661  0.20952104  1  0.106257  0  0.099255  0.11379  0  1.029451  0
H  H19  1  0.20174449  0.36798307  0.79047506  1  0.105995  0  0.099304  0.113772  0  1.0295  0
H  H20  1  0.87381018  0.94123741  0.88767363  1  0.023956  0  0.093387  0.091588  0  0.985069  0
H  H21  1  0.87380673  0.55876891  0.11233721  1  0.023624  0  0.093418  0.091545  0  0.985151  0
H  H22  1  0.12617672  0.05875854  0.11232999  1  0.023966  0  0.09338  0.091515  0  0.984991  0
H  H23  1  0.12620205  0.44123557  0.88766247  1  0.023983  0  0.093434  0.091536  0  0.985193  0
H  H24  1  0.99741767  0.99730110  0.75104604  1  0.027761  0  0.11148  0.096762  0  0.965876  0
H  H25  1  0.99741164  0.50269625  0.24895889  1  0.027836  0  0.111475  0.09681  0  0.965788  0
H  H26  1  0.00257339  0.00269028  0.24895297  1  0.027612  0  0.111462  0.096751  0  0.965961  0
H  H27  1  0.00260235  0.49729753  0.75103442  1  0.027972  0  0.111494  0.096881  0  0.965759  0
H  H28  1  0.85466014  0.98100098  0.67243821  1  0.086532  0  0.12136  0.102546  0  0.9947  0
H  H29  1  0.85465301  0.51899723  0.32756925  1  0.086967  0  0.121318  0.102516  0  0.994669  0
H  H30  1  0.14532676  0.01899192  0.32756307  1  0.086602  0  0.12134  0.10259  0  0.994609  0
H  H31  1  0.14535890  0.48100187  0.67242871  1  0.086298  0  0.121324  0.102574  0  0.994572  0
H  H32  1  0.93281943  0.11336404  0.60738413  1  0.142816  0  0.135137  0.147433  0  0.974253  0
H  H33  1  0.93280292  0.38663618  0.39261762  1  0.142773  0  0.135118  0.147388  0  0.974368  0
H  H34  1  0.06718831  0.88663198  0.39261440  1  0.142878  0  0.135139  0.147418  0  0.974309  0
H  H35  1  0.06719440  0.61335827  0.60738228  1  0.14265  0  0.135104  0.147396  0  0.974387  0
H  H36  1  0.04211032  0.18328053  0.69015988  1  0.134145  0  0.116851  0.128505  0  1.028927  0
H  H37  1  0.04210703  0.31672179  0.30984439  1  0.13411  0  0.116822  0.128437  0  1.02886  0
H  H38  1  0.95789012  0.81671620  0.30984232  1  0.134152  0  0.116825  0.128531  0  1.028784  0
H  H39  1  0.95789654  0.68327650  0.69015644  1  0.134166  0  0.116813  0.128433  0  1.0289  0
H  H40  1  0.26878318  0.04866203  0.74988375  1  0.097498  0  0.106243  0.126896  0  1.010929  0
H  H41  1  0.26878665  0.45134504  0.25011052  1  0.097434  0  0.10622  0.126826  0  1.010935  0
H  H42  1  0.73120372  0.95134166  0.25011735  1  0.097472  0  0.106217  0.126883  0  1.01094  0
H  H43  1  0.73122317  0.54865652  0.74987737  1  0.09734  0  0.106211  0.126842  0  1.010917  0
H  H44  1  0.24975932  0.14032373  0.84623489  1  0.061841  0  0.104137  0.122476  0  0.976424  0
H  H45  1  0.24975475  0.35969141  0.15375610  1  0.061648  0  0.104138  0.122428  0  0.976511  0
H  H46  1  0.75023696  0.85968380  0.15376713  1  0.061776  0  0.104145  0.122507  0  0.976527  0
H  H47  1  0.75024882  0.64031240  0.84623628  1  0.061404  0  0.104115  0.122465  0  0.976448  0
H  H48  1  0.48625417  0.12499930  0.90209811  1  0.101744  0  0.11399  0.105718  0  0.997341  0
H  H49  1  0.48625607  0.37500633  0.09789820  1  0.101786  0  0.113994  0.105759  0  0.997401  0
H  H50  1  0.51374002  0.87500287  0.09790146  1  0.101321  0  0.113998  0.105749  0  0.997391  0
H  H51  1  0.51375063  0.62499515  0.90209551  1  0.101886  0  0.114041  0.105817  0  0.997284  0
H  H52  1  0.41232087  0.99914289  0.88737758  1  0.105377  0  0.10727  0.103658  0  1.020406  0
H  H53  1  0.41232033  0.50086232  0.11261580  1  0.105223  0  0.107296  0.103713  0  1.020503  0
H  H54  1  0.58766915  0.00086156  0.11262501  1  0.105471  0  0.107275  0.103652  0  1.020431  0
H  H55  1  0.58769262  0.49913908  0.88738372  1  0.105211  0  0.10734  0.103738  0  1.02046  0
H  H56  1  0.42129033  0.96504681  0.69129453  1  0.097935  0  0.131244  0.143059  0  0.979509  0
H  H57  1  0.42129091  0.53496427  0.30870937  1  0.098171  0  0.13123  0.143022  0  0.979557  0
H  H58  1  0.57869865  0.03495604  0.30871235  1  0.097901  0  0.13125  0.143012  0  0.979622  0
H  H59  1  0.57871683  0.46503404  0.69129073  1  0.098064  0  0.131284  0.143133  0  0.979484  0
H  H60  1  0.55385447  0.88059036  0.72559425  1  0.152902  0  0.128361  0.142936  0  1.000164  0
H  H61  1  0.55385629  0.61940994  0.27441168  1  0.153143  0  0.128346  0.142898  0  1.000083  0
H  H62  1  0.44612200  0.11940782  0.27441530  1  0.152881  0  0.12833  0.142811  0  1.000234  0
H  H63  1  0.44614520  0.38058531  0.72558608  1  0.153126  0  0.128356  0.142888  0  1.000034  0
H  H64  1  0.93917032  0.30698497  0.92888327  1  0.074764  0  0.102431  0.119752  0  0.988652  0
H  H65  1  0.93915291  0.19301912  0.07110996  1  0.074638  0  0.102429  0.11976  0  0.988684  0
H  H66  1  0.06083950  0.69300875  0.07111441  1  0.074835  0  0.10241  0.119806  0  0.988639  0
H  H67  1  0.06083503  0.80697773  0.92888424  1  0.074651  0  0.102439  0.119803  0  0.988659  0
H  H68  1  0.91326565  0.32488574  0.80453859  1  0.054508  0  0.110283  0.132585  0  0.989166  0
H  H69  1  0.91326207  0.17511338  0.19545504  1  0.054744  0  0.110331  0.13265  0  0.989119  0
H  H70  1  0.08675042  0.67510490  0.19545821  1  0.054628  0  0.110289  0.132614  0  0.989173  0
H  H71  1  0.08672900  0.82488268  0.80454058  1  0.054497  0  0.110304  0.132608  0  0.989204  0
H  H72  1  0.02360234  0.15156697  0.84712759  1  0.03081  0  0.105634  0.080465  0  0.992602  0
H  H73  1  0.02360334  0.34842415  0.15287315  1  0.030853  0  0.105647  0.080433  0  0.992608  0
H  H74  1  0.97639289  0.84841750  0.15286890  1  0.030806  0  0.105637  0.080385  0  0.992535  0
H  H75  1  0.97640648  0.65156567  0.84712725  1  0.030916  0  0.105672  0.080416  0  0.992512  0
H  H76  1  0.86386614  0.12160392  0.90557688  1  0.089093  0  0.111541  0.091348  0  1.020133  0
H  H77  1  0.86386582  0.37840290  0.09442355  1  0.089006  0  0.111526  0.091291  0  1.020165  0
H  H78  1  0.13612806  0.87839283  0.09442387  1  0.089158  0  0.111575  0.091398  0  1.02006  0
H  H79  1  0.13615026  0.62159776  0.90557449  1  0.089245  0  0.111494  0.091309  0  1.020126  0
H  H80  1  0.26006968  0.46764548  0.45838818  1  0.624522  0  0.276331  0.354515  0  1.000087  0
H  H81  1  0.26004464  0.03238000  0.54162447  1  0.624108  0  0.27648  0.354814  0  0.999716  0
H  H82  1  0.73993910  0.53236893  0.54161929  1  0.624297  0  0.276462  0.354777  0  0.999721  0
H  H83  1  0.73993600  0.96763672  0.45838311  1  0.624288  0  0.276424  0.35464  0  0.999904  0
H  H84  1  0.14738484  0.54449934  0.42017655  1  0.611932  0  0.277708  0.368305  0  0.977053  0
H  H85  1  0.14740474  0.95548866  0.57982826  1  0.612081  0  0.277589  0.368009  0  0.977413  0
H  H86  1  0.85259685  0.45549343  0.57983418  1  0.612178  0  0.277606  0.368065  0  0.977384  0
H  H87  1  0.85259361  0.04451272  0.42017345  1  0.612101  0  0.27766  0.368109  0  0.977271  0
C  C88  1  0.66799647  0.98724485  0.85929619  1  0.202891  0  -0.072534  -0.096502  0  3.849281  0
C  C89  1  0.66799050  0.51276279  0.14070682  1  0.203213  0  -0.072502  -0.09636  0  3.84912  0
C  C90  1  0.33199042  0.01275417  0.14070831  1  0.202179  0  -0.072467  -0.096455  0  3.849051  0
C  C91  1  0.33202036  0.48723555  0.85929110  1  0.202865  0  -0.072404  -0.096308  0  3.84895  0
C  C92  1  0.80858723  0.94666759  0.82219457  1  -0.062099  0  -0.168029  -0.197524  0  3.929695  0
C  C93  1  0.80857705  0.55333990  0.17781250  1  -0.061252  0  -0.168079  -0.197454  0  3.929872  0
C  C94  1  0.19139863  0.05332835  0.17780978  1  -0.061974  0  -0.167947  -0.197338  0  3.929477  0
C  C95  1  0.19143069  0.44665996  0.82218695  1  -0.061154  0  -0.168103  -0.197421  0  3.929825  0
C  C96  1  0.88373417  0.00830737  0.74598364  1  0.256354  0  -0.065218  -0.069571  0  3.844167  0
C  C97  1  0.88372907  0.49169517  0.25402245  1  0.255522  0  -0.065153  -0.069554  0  3.844019  0
C  C98  1  0.11625377  0.99168628  0.25401841  1  0.256395  0  -0.065182  -0.069545  0  3.844326  0
C  C99  1  0.11628179  0.50830394  0.74597550  1  0.255585  0  -0.065203  -0.069742  0  3.84408  0
C  C100  1  0.93259783  0.16847234  0.67027570  1  0.166637  0  -0.080627  -0.267693  0  3.857557  0
C  C101  1  0.93259314  0.33152787  0.32972678  1  0.166741  0  -0.080608  -0.26772  0  3.857547  0
C  C102  1  0.06740470  0.83152133  0.32972489  1  0.166547  0  -0.080649  -0.267831  0  3.857808  0
C  C103  1  0.06740835  0.66846970  0.67027110  1  0.166779  0  -0.080546  -0.267644  0  3.857521  0
C  C104  1  0.86139245  0.26497594  0.63854376  1  1.572575  0  0.204495  0.593197  0  4.187879  0
C  C105  1  0.86140252  0.23502003  0.36146339  1  1.572026  0  0.204536  0.5933  0  4.187988  0
C  C106  1  0.13860486  0.73501696  0.36145679  1  1.572373  0  0.204572  0.593332  0  4.187836  0
C  C107  1  0.13860313  0.76497906  0.63853602  1  1.57236  0  0.204488  0.593152  0  4.187987  0
C  C108  1  0.35320223  0.19130743  0.72062707  1  1.569169  0  0.218283  0.641613  0  4.114431  0
C  C109  1  0.35319901  0.30869137  0.27935831  1  1.568841  0  0.218063  0.641305  0  4.114842  0
C  C110  1  0.64678779  0.80869785  0.27937120  1  1.568928  0  0.218212  0.641599  0  4.11444  0
C  C111  1  0.64679726  0.69130549  0.72063444  1  1.569087  0  0.21811  0.641351  0  4.114765  0
C  C112  1  0.32548356  0.10902833  0.79276351  1  -0.082879  0  -0.163007  -0.324281  0  3.951847  0
C  C113  1  0.32547935  0.39097781  0.20722724  1  -0.082507  0  -0.162912  -0.323922  0  3.951805  0
C  C114  1  0.67451271  0.89097228  0.20723743  1  -0.082761  0  -0.162941  -0.324224  0  3.952006  0
C  C115  1  0.67452526  0.60902139  0.79276417  1  -0.082434  0  -0.162933  -0.324105  0  3.951791  0
C  C116  1  0.44751980  0.06704057  0.84854255  1  0.197259  0  -0.076759  -0.07344  0  3.851248  0
C  C117  1  0.44751494  0.43296418  0.15145360  1  0.197265  0  -0.076819  -0.073764  0  3.851583  0
C  C118  1  0.55247439  0.93296236  0.15145778  1  0.197903  0  -0.076819  -0.07362  0  3.851448  0
C  C119  1  0.55249071  0.56703263  0.84854351  1  0.197441  0  -0.076834  -0.073732  0  3.851417  0
C  C120  1  0.53339980  0.96033798  0.70664976  1  0.201048  0  -0.063932  -0.236597  0  3.783181  0
C  C121  1  0.53339805  0.53966268  0.29335540  1  0.200502  0  -0.063915  -0.236472  0  3.783115  0
C  C122  1  0.46658918  0.03965947  0.29335611  1  0.201148  0  -0.063812  -0.236249  0  3.783108  0
C  C123  1  0.46661073  0.46033636  0.70664765  1  0.200706  0  -0.06404  -0.23664  0  3.783054  0
C  C124  1  0.60758505  0.98406115  0.61309455  1  1.549619  0  0.226336  0.618575  0  4.131575  0
C  C125  1  0.60758567  0.51593908  0.38690572  1  1.548979  0  0.226297  0.618505  0  4.131571  0
C  C126  1  0.39240497  0.01594095  0.38691083  1  1.548652  0  0.226301  0.618402  0  4.131882  0
C  C127  1  0.39242936  0.48406773  0.61309336  1  1.549565  0  0.226237  0.618431  0  4.131472  0
C  C128  1  0.72602072  0.30070872  0.88625515  1  1.587548  0  0.208579  0.62206  0  4.137705  0
C  C129  1  0.72601692  0.19929591  0.11373965  1  1.587541  0  0.208466  0.621961  0  4.137882  0
C  C130  1  0.27398493  0.69929042  0.11374062  1  1.587484  0  0.208664  0.622314  0  4.137591  0
C  C131  1  0.27398249  0.80071255  0.88625150  1  1.587991  0  0.208777  0.622257  0  4.137669  0
C  C132  1  0.87907141  0.27850324  0.86531323  1  -0.074898  0  -0.163811  -0.330023  0  3.941945  0
C  C133  1  0.87906284  0.22149797  0.13468332  1  -0.075078  0  -0.163819  -0.330047  0  3.941912  0
C  C134  1  0.12093633  0.72149199  0.13468599  1  -0.075071  0  -0.16388  -0.330333  0  3.941881  0
C  C135  1  0.12093343  0.77850117  0.86531246  1  -0.074847  0  -0.163911  -0.330222  0  3.941885  0
C  C136  1  0.91012465  0.16487976  0.84678716  1  0.233972  0  -0.068565  -0.057166  0  3.881223  0
C  C137  1  0.91012191  0.33512010  0.15321305  1  0.233866  0  -0.068613  -0.05717  0  3.881119  0
C  C138  1  0.08987579  0.83511470  0.15321274  1  0.23409  0  -0.068553  -0.056962  0  3.880832  0
C  C139  1  0.08988686  0.66487592  0.84678475  1  0.233657  0  -0.068576  -0.057063  0  3.880917  0
N  N140  1  0.57184167  0.03484553  0.78813209  1  -0.927297  0  -0.326145  -0.0412  0  3.457  0
N  N141  1  0.57183822  0.46515857  0.21186877  1  -0.9273  0  -0.326084  -0.041082  0  3.457065  0
N  N142  1  0.42815043  0.96515506  0.21187030  1  -0.927139  0  -0.326163  -0.041087  0  3.457161  0
N  N143  1  0.42817160  0.53483898  0.78812984  1  -0.927449  0  -0.326161  -0.041185  0  3.457046  0
N  N144  1  0.85591630  0.12132917  0.75201019  1  -0.931111  0  -0.329549  -0.052396  0  3.486561  0
N  N145  1  0.85591272  0.37867236  0.24799213  1  -0.93103  0  -0.329584  -0.052345  0  3.486467  0
N  N146  1  0.14407998  0.87866451  0.24798968  1  -0.931093  0  -0.329627  -0.052534  0  3.486763  0
N  N147  1  0.14409397  0.62132753  0.75200514  1  -0.931069  0  -0.329598  -0.052433  0  3.486547  0
O  O148  1  0.73062924  0.27335832  0.66145072  1  -1.08731  0  -0.356587  -0.518442  0  2.362494  0
O  O149  1  0.73063527  0.22663618  0.33854576  1  -1.087132  0  -0.356531  -0.518427  0  2.362044  0
O  O150  1  0.26936808  0.72663612  0.33855064  1  -1.08732  0  -0.356591  -0.518448  0  2.36248  0
O  O151  1  0.26936725  0.77336064  0.66144989  1  -1.087214  0  -0.356557  -0.518455  0  2.362188  0
O  O152  1  0.92678900  0.32946939  0.59108602  1  -1.193644  0  -0.347459  -0.552781  0  2.172383  0
O  O153  1  0.92680143  0.17053863  0.40891684  1  -1.193478  0  -0.347408  -0.552771  0  2.172735  0
O  O154  1  0.07320415  0.67052356  0.40891090  1  -1.193513  0  -0.347459  -0.552854  0  2.172184  0
O  O155  1  0.07320735  0.82946126  0.59108043  1  -1.193782  0  -0.347413  -0.552645  0  2.172681  0
O  O156  1  0.47724629  0.20366630  0.68580090  1  -1.097468  0  -0.355684  -0.528871  0  2.426174  0
O  O157  1  0.47724264  0.29633254  0.31419577  1  -1.097337  0  -0.35561  -0.528685  0  2.425984  0
O  O158  1  0.52275415  0.79632969  0.31419981  1  -1.097518  0  -0.355637  -0.528704  0  2.426305  0
O  O159  1  0.52275676  0.70366886  0.68580376  1  -1.097089  0  -0.355614  -0.528683  0  2.426244  0
O  O160  1  0.25296237  0.24357767  0.69114558  1  -1.190295  0  -0.374498  -0.589256  0  2.181499  0
O  O161  1  0.25296518  0.25641540  0.30882029  1  -1.190143  0  -0.374255  -0.589138  0  2.181745  0
O  O162  1  0.74704329  0.75641612  0.30884629  1  -1.190169  0  -0.374451  -0.589334  0  2.181065  0
O  O163  1  0.74703839  0.74358157  0.69116519  1  -1.190155  0  -0.374353  -0.589178  0  2.18146  0
O  O164  1  0.66529396  0.07443994  0.61024573  1  -1.077121  0  -0.327633  -0.52639  0  2.415353  0
O  O165  1  0.66529389  0.42556020  0.38975885  1  -1.076823  0  -0.327541  -0.526209  0  2.415407  0
O  O166  1  0.33469502  0.92555904  0.38976168  1  -1.076864  0  -0.327545  -0.526225  0  2.415521  0
O  O167  1  0.33472218  0.57444582  0.61024164  1  -1.076968  0  -0.327513  -0.52622  0  2.415378  0
O  O168  1  0.61098070  0.92000344  0.54279197  1  -1.183412  0  -0.365195  -0.577621  0  2.200015  0
O  O169  1  0.61098071  0.58000207  0.45721295  1  -1.183199  0  -0.365301  -0.577773  0  2.199823  0
O  O170  1  0.38901662  0.08000024  0.45720986  1  -1.182958  0  -0.365274  -0.577759  0  2.200128  0
O  O171  1  0.38904787  0.42001093  0.54278499  1  -1.183393  0  -0.365231  -0.577616  0  2.199916  0
O  O172  1  0.63226171  0.24368491  0.84232886  1  -1.086329  0  -0.303349  -0.501236  0  2.384389  0
O  O173  1  0.63225737  0.25632281  0.15767018  1  -1.086478  0  -0.303285  -0.50114  0  2.384308  0
O  O174  1  0.36773873  0.75631647  0.15767212  1  -1.086391  0  -0.303371  -0.501226  0  2.384357  0
O  O175  1  0.36774203  0.74368396  0.84233180  1  -1.086822  0  -0.30342  -0.501314  0  2.384485  0
O  O176  1  0.69464006  0.37193888  0.94602036  1  -1.179501  0  -0.318832  -0.540819  0  2.14076  0
O  O177  1  0.69463298  0.12806854  0.05397885  1  -1.179668  0  -0.318809  -0.540796  0  2.140843  0
O  O178  1  0.30536976  0.62806569  0.05397278  1  -1.179775  0  -0.318804  -0.540845  0  2.14077  0
O  O179  1  0.30535809  0.87194839  0.94601346  1  -1.179448  0  -0.318922  -0.54093  0  2.140799  0
O  O180  1  0.17950446  0.47216728  0.41416572  1  -1.278203  0  -0.627779  -0.807576  0  1.953735  0
O  O181  1  0.17952881  0.02781743  0.58588392  1  -1.277845  0  -0.627685  -0.80755  0  1.953623  0
O  O182  1  0.82047098  0.52782286  0.58586817  1  -1.278189  0  -0.62775  -0.807597  0  1.953651  0
O  O183  1  0.82045600  0.97218694  0.41412450  1  -1.278127  0  -0.627734  -0.807458  0  1.953703  0
