# generated using pymatgen
data_ErH20C21N4O9
_symmetry_space_group_name_H-M   'P 1'
_cell_length_a   9.83292547
_cell_length_b   11.67117715
_cell_length_c   13.40400000
_cell_angle_alpha   66.86431676
_cell_angle_beta   86.97106163
_cell_angle_gamma   76.69769652
_symmetry_Int_Tables_number   1
_chemical_formula_structural   ErH20C21N4O9
_chemical_formula_sum   'Er2 H40 C42 N8 O18'
_cell_volume   1375.38893504
_cell_formula_units_Z   2
loop_
 _symmetry_equiv_pos_site_id
 _symmetry_equiv_pos_as_xyz
  1  'x, y, z'
loop_
 _atom_site_type_symbol
 _atom_site_label
 _atom_site_symmetry_multiplicity
 _atom_site_fract_x
 _atom_site_fract_y
 _atom_site_fract_z
 _atom_site_occupancy
 _atom_site_hle17_bader_spin_density
 _atom_site_hle17_ddec_charge
 _atom_site_hle17_ddec_spin_density
 _atom_site_hle17_ddec_sum_bond_order
 _atom_site_hle17_magmom
 _atom_site_hse06_10hf_bader_spin_density
 _atom_site_hse06_10hf_ddec_charge
 _atom_site_hse06_10hf_ddec_spin_density
 _atom_site_hse06_10hf_ddec_sum_bond_order
 _atom_site_hse06_10hf_magmom
 _atom_site_hse06_bader_spin_density
 _atom_site_hse06_ddec_charge
 _atom_site_hse06_ddec_spin_density
 _atom_site_hse06_ddec_sum_bond_order
 _atom_site_hse06_magmom
 _atom_site_pbe_bader_charge
 _atom_site_pbe_bader_spin_density
 _atom_site_pbe_cm5_charge
 _atom_site_pbe_ddec_charge
 _atom_site_pbe_ddec_spin_density
 _atom_site_pbe_ddec_sum_bond_order
 _atom_site_pbe_magmom
Er  Er0  1  0.76343684  0.47231664  0.49672821  1  0  2.297826  0  1.62378  0  0  2.235925  0  1.943915  0  0  2.283405  0  1.901909  0  2.199146  0  1.498176  2.115484  0  2.134549  0
Er  Er1  1  0.23654427  0.52768421  0.50329789  1  0  2.297833  0  1.623742  0  0  2.235942  0  1.94384  0  0  2.28338  0  1.901834  0  2.199162  0  1.498173  2.115281  0  2.134782  0
H  H2  1  0.70588467  0.16866251  0.83134369  1  0  0.130984  0  0.933787  0  0  0.135655  0  0.998789  0  0  0.141093  0  0.994195  0  0.142445  0  0.116033  0.131598  0  1.002485  0
H  H3  1  0.29410681  0.83133356  0.16865232  1  0  0.13101  0  0.933707  0  0  0.135633  0  0.998766  0  0  0.141085  0  0.994157  0  0.142478  0  0.116023  0.131581  0  1.002455  0
H  H4  1  0.55157100  0.99383433  0.18494035  1  0  0.120704  0  0.95388  0  0  0.121568  0  1.027357  0  0  0.127033  0  1.022602  0  0.142199  0  0.109151  0.117509  0  1.031043  0
H  H5  1  0.44843885  0.00614929  0.81505248  1  0  0.120769  0  0.953756  0  0  0.121614  0  1.02723  0  0  0.127114  0  1.022445  0  0.14197  0  0.109174  0.117527  0  1.030943  0
H  H6  1  0.94678959  0.22524060  0.54431000  1  0  0.436717  0  0.815504  0  0  0.421567  0  0.863099  0  0  0.429728  0  0.85145  0  0.613499  0  0.329136  0.415186  0  0.87087  0
H  H7  1  0.05319298  0.77477078  0.45568260  1  0  0.43669  0  0.815407  0  0  0.421546  0  0.863091  0  0  0.429719  0  0.851424  0  0.613413  0  0.329116  0.415172  0  0.870764  0
H  H8  1  0.03662292  0.29738331  0.58644470  1  0  0.442516  0  0.857103  0  0  0.410744  0  0.922329  0  0  0.421333  0  0.906822  0  0.639994  0  0.302133  0.402557  0  0.934003  0
H  H9  1  0.96333473  0.70262998  0.41356388  1  0  0.442646  0  0.856954  0  0  0.410831  0  0.922242  0  0  0.421415  0  0.906738  0  0.63969  0  0.302187  0.402644  0  0.933918  0
H  H10  1  0.00394415  0.87048387  0.03833367  1  0  0.072966  0  0.944514  0  0  0.07813  0  1.009315  0  0  0.081057  0  1.007528  0  0.073843  0  0.107721  0.075911  0  1.010812  0
H  H11  1  0.99604004  0.12948827  0.96164021  1  0  0.073115  0  0.9446  0  0  0.078345  0  1.009304  0  0  0.081272  0  1.007523  0  0.074017  0  0.107838  0.076118  0  1.010804  0
H  H12  1  0.96320446  0.74572767  0.23188929  1  0  0.113702  0  0.964353  0  0  0.124311  0  1.023627  0  0  0.127162  0  1.022994  0  0.107225  0  0.109744  0.121909  0  1.02491  0
H  H13  1  0.03680480  0.25426649  0.76809251  1  0  0.113595  0  0.964482  0  0  0.124232  0  1.023722  0  0  0.127086  0  1.023088  0  0.106938  0  0.109699  0.12183  0  1.025003  0
H  H14  1  0.51149938  0.60748914  0.55895867  1  0  0.421349  0  0.874004  0  0  0.391981  0  0.943404  0  0  0.401695  0  0.928967  0  0.631397  0  0.301993  0.38528  0  0.952769  0
H  H15  1  0.48848028  0.39254617  0.44102586  1  0  0.421361  0  0.874106  0  0  0.391995  0  0.943438  0  0  0.401703  0  0.929014  0  0.631568  0  0.302006  0.38529  0  0.952806  0
H  H16  1  0.59701144  0.71095918  0.49025047  1  0  0.423169  0  0.886975  0  0  0.390856  0  0.953639  0  0  0.403236  0  0.935616  0  0.641216  0  0.28882  0.382005  0  0.966227  0
H  H17  1  0.40297479  0.28905794  0.50973555  1  0  0.423072  0  0.887124  0  0  0.390796  0  0.953721  0  0  0.403171  0  0.935709  0  0.641295  0  0.288805  0.381947  0  0.966304  0
H  H18  1  0.26941513  0.30618333  0.99160678  1  0  0.072652  0  0.933246  0  0  0.080804  0  0.99382  0  0  0.083233  0  0.992729  0  0.079501  0  0.108074  0.07922  0  0.994348  0
H  H19  1  0.73058417  0.69379360  0.00841039  1  0  0.072651  0  0.933326  0  0  0.080801  0  0.993893  0  0  0.083233  0  0.992804  0  0.079814  0  0.10811  0.07922  0  0.994415  0
H  H20  1  0.29570333  0.41786104  0.79145447  1  0  0.109693  0  0.977063  0  0  0.113712  0  1.050722  0  0  0.117517  0  1.048365  0  0.123227  0  0.106767  0.111096  0  1.052187  0
H  H21  1  0.70429978  0.58214555  0.20856583  1  0  0.109532  0  0.977166  0  0  0.113609  0  1.050761  0  0  0.117421  0  1.048393  0  0.123483  0  0.10669  0.110982  0  1.052261  0
H  H22  1  0.25850913  0.56282111  0.23988545  1  0  0.11589  0  0.975813  0  0  0.119875  0  1.045984  0  0  0.12368  0  1.044102  0  0.133123  0  0.11291  0.117486  0  1.04648  0
H  H23  1  0.74148150  0.43717017  0.76015699  1  0  0.115664  0  0.975799  0  0  0.119705  0  1.045911  0  0  0.123513  0  1.044026  0  0.133544  0  0.112828  0.117321  0  1.046398  0
H  H24  1  0.32907666  0.60236473  0.04863350  1  0  0.069764  0  0.933787  0  0  0.078877  0  0.992559  0  0  0.081071  0  0.992185  0  0.103764  0  0.108832  0.077257  0  0.992858  0
H  H25  1  0.67092996  0.39762369  0.95141303  1  0  0.06971  0  0.933845  0  0  0.078865  0  0.992585  0  0  0.081062  0  0.992204  0  0.091743  0  0.108764  0.077238  0  0.992892  0
H  H26  1  0.89849512  0.45264675  0.16729429  1  0  0.107552  0  0.979925  0  0  0.110052  0  1.057349  0  0  0.114683  0  1.053018  0  0.100784  0  0.105266  0.106472  0  1.061112  0
H  H27  1  0.10150684  0.54735219  0.83272121  1  0  0.107494  0  0.979811  0  0  0.110037  0  1.057194  0  0  0.114661  0  1.05288  0  0.100843  0  0.105302  0.106455  0  1.060962  0
H  H28  1  0.75740123  0.36588966  0.29318676  1  0  0.042518  0  0.958539  0  0  0.051035  0  1.032695  0  0  0.052868  0  1.026737  0  0.110575  0  0.124385  0.049383  0  1.03729  0
H  H29  1  0.24258794  0.63413608  0.70680515  1  0  0.042431  0  0.958279  0  0  0.050897  0  1.032521  0  0  0.052734  0  1.026551  0  0.111131  0  0.124308  0.049239  0  1.037115  0
H  H30  1  0.58346579  0.20959177  0.20174921  1  0  0.111415  0  0.923115  0  0  0.130732  0  0.982789  0  0  0.13173  0  0.982546  0  0.074014  0  0.108233  0.129895  0  0.98314  0
H  H31  1  0.41657530  0.79041770  0.79821045  1  0  0.111558  0  0.923125  0  0  0.130783  0  0.982897  0  0  0.131784  0  0.982646  0  0.073724  0  0.108277  0.129943  0  0.983252  0
H  H32  1  0.71972190  0.29566752  0.17469350  1  0  0.105568  0  0.952108  0  0  0.120093  0  1.024828  0  0  0.121309  0  1.023768  0  0.093615  0  0.107321  0.118996  0  1.025884  0
H  H33  1  0.28030299  0.70436204  0.82528378  1  0  0.105734  0  0.951908  0  0  0.120282  0  1.024565  0  0  0.121504  0  1.023495  0  0.093808  0  0.107409  0.119195  0  1.025613  0
H  H34  1  0.76200416  0.12498492  0.22423498  1  0  0.103021  0  0.930144  0  0  0.122987  0  0.988848  0  0  0.123149  0  0.990353  0  0.054501  0  0.104067  0.122798  0  0.987901  0
H  H35  1  0.23804697  0.87504560  0.77573499  1  0  0.102939  0  0.930632  0  0  0.122965  0  0.989198  0  0  0.123126  0  0.990707  0  0.055007  0  0.104125  0.122778  0  0.988249  0
H  H36  1  0.65601819  0.01404596  0.40248795  1  0  0.109233  0  0.953123  0  0  0.126391  0  1.020498  0  0  0.12733  0  1.020412  0  0.104092  0  0.105865  0.125527  0  1.020766  0
H  H37  1  0.34397907  0.98597595  0.59746318  1  0  0.109175  0  0.952963  0  0  0.126456  0  1.020234  0  0  0.1274  0  1.020138  0  0.104343  0  0.105874  0.12559  0  1.020503  0
H  H38  1  0.68797785  0.07411592  0.50227536  1  0  0.116086  0  0.919158  0  0  0.135392  0  0.977599  0  0  0.136889  0  0.976625  0  0.107625  0  0.113629  0.134095  0  0.978669  0
H  H39  1  0.31208513  0.92586292  0.49768795  1  0  0.116212  0  0.918814  0  0  0.135454  0  0.977352  0  0  0.136942  0  0.976388  0  0.106866  0  0.113713  0.134152  0  0.978426  0
H  H40  1  0.52225142  0.12677822  0.43248371  1  0  0.10984  0  0.920039  0  0  0.13495  0  0.973775  0  0  0.135117  0  0.974096  0  0.050571  0  0.111515  0.134545  0  0.973978  0
H  H41  1  0.47777996  0.87322933  0.56751726  1  0  0.109779  0  0.920033  0  0  0.134989  0  0.973649  0  0  0.135146  0  0.973988  0  0.050179  0  0.11158  0.134585  0  0.973852  0
C  C42  1  0.71830938  0.78628372  0.33840843  1  0  0.662418  0  3.87698  0  0  0.61299  0  4.173735  0  0  0.646004  0  4.165403  0  1.562926  0  0.219832  0.590282  0  4.176262  0
C  C43  1  0.28170222  0.21371331  0.66158199  1  0  0.66241  0  3.877325  0  0  0.612905  0  4.174219  0  0  0.645915  0  4.165878  0  1.562667  0  0.219671  0.590186  0  4.17675  0
C  C44  1  0.75312008  0.86042070  0.22373757  1  0  -0.032798  0  3.762575  0  0  -0.012248  0  3.998153  0  0  -0.01631  0  4.019927  0  -0.046384  0  -0.009342  -0.009977  0  3.984335  0
C  C45  1  0.24688522  0.13956485  0.77625404  1  0  -0.032749  0  3.762673  0  0  -0.012226  0  3.998287  0  0  -0.016285  0  4.020064  0  -0.046135  0  -0.009275  -0.009956  0  3.984466  0
C  C46  1  0.60768464  0.20180132  0.86362188  1  0  -0.12666  0  3.649561  0  0  -0.157525  0  3.895167  0  0  -0.161256  0  3.913887  0  0.050609  0  -0.068581  -0.154902  0  3.88304  0
C  C47  1  0.39231373  0.79819570  0.13637353  1  0  -0.126694  0  3.649421  0  0  -0.157528  0  3.895039  0  0  -0.161289  0  3.913751  0  0.050791  0  -0.068618  -0.154901  0  3.882909  0
C  C48  1  0.65343408  0.96432998  0.15557847  1  0  -0.145421  0  3.700634  0  0  -0.178123  0  3.954533  0  0  -0.182481  0  3.975179  0  -0.030933  0  -0.077197  -0.175062  0  3.940808  0
C  C49  1  0.34656816  0.03565557  0.84441028  1  0  -0.145803  0  3.700618  0  0  -0.178158  0  3.954368  0  0  -0.182551  0  3.975003  0  -0.030675  0  -0.077283  -0.175062  0  3.940657  0
C  C50  1  0.68555041  0.02963450  0.04789537  1  0  0.168291  0  3.774874  0  0  0.170992  0  4.01877  0  0  0.175084  0  4.039651  0  0.508025  0  0.116253  0.168251  0  4.004621  0
C  C51  1  0.31444997  0.97034625  0.95209433  1  0  0.168743  0  3.774477  0  0  0.170779  0  4.01866  0  0  0.174881  0  4.039549  0  0.507827  0  0.116248  0.168033  0  4.004508  0
C  C52  1  0.90397030  0.89505904  0.07306988  1  0  0.119485  0  3.753186  0  0  0.097472  0  4.016572  0  0  0.101405  0  4.033647  0  0.543859  0  0.041993  0.0949  0  4.005041  0
C  C53  1  0.09602367  0.10491885  0.92691062  1  0  0.119337  0  3.75311  0  0  0.09719  0  4.016464  0  0  0.101124  0  4.03355  0  0.543574  0  0.041861  0.09463  0  4.004923  0
C  C54  1  0.88171198  0.82513451  0.18154863  1  0  -0.12026  0  3.701084  0  0  -0.145852  0  3.94756  0  0  -0.149649  0  3.968993  0  -0.045424  0  -0.083912  -0.143365  0  3.933912  0
C  C55  1  0.11829685  0.17484912  0.81843529  1  0  -0.119977  0  3.701114  0  0  -0.145606  0  3.947648  0  0  -0.149401  0  3.969075  0  -0.045081  0  -0.083753  -0.143112  0  3.933991  0
C  C56  1  0.58173975  0.14122035  0.97377316  1  0  0.168598  0  3.763645  0  0  0.170482  0  4.010353  0  0  0.174823  0  4.030962  0  0.454281  0  0.117794  0.167472  0  3.996251  0
C  C57  1  0.41826165  0.85876041  0.02622770  1  0  0.168421  0  3.763564  0  0  0.170525  0  4.010248  0  0  0.174857  0  4.030864  0  0.454304  0  0.11779  0.167523  0  3.996138  0
C  C58  1  0.36478727  0.27759285  0.95331485  1  0  0.119624  0  3.762611  0  0  0.09608  0  4.028559  0  0  0.100313  0  4.045906  0  0.541967  0  0.040633  0.093328  0  4.016577  0
C  C59  1  0.63521335  0.72238695  0.04670054  1  0  0.119364  0  3.7625  0  0  0.095807  0  4.028488  0  0  0.100037  0  4.045839  0  0.542053  0  0.040502  0.093066  0  4.016495  0
C  C60  1  0.37963615  0.34144942  0.84239472  1  0  -0.126461  0  3.709292  0  0  -0.151914  0  3.961006  0  0  -0.156314  0  3.983353  0  -0.031608  0  -0.082773  -0.149051  0  3.946637  0
C  C61  1  0.62036347  0.65854665  0.15762261  1  0  -0.126019  0  3.708943  0  0  -0.151483  0  3.960596  0  0  -0.155911  0  3.982937  0  -0.032193  0  -0.082528  -0.148634  0  3.946234  0
C  C62  1  0.50471694  0.30383596  0.79700349  1  0  -0.029478  0  3.735159  0  0  -0.008379  0  3.96162  0  0  -0.013455  0  3.984415  0  -0.116217  0  -0.003785  -0.005746  0  3.948524  0
C  C63  1  0.49527873  0.69616777  0.20300466  1  0  -0.029545  0  3.734829  0  0  -0.008529  0  3.961352  0  0  -0.013546  0  3.984093  0  -0.11665  0  -0.003816  -0.005901  0  3.948283  0
C  C64  1  0.02047683  0.48480566  0.32995652  1  0  0.726598  0  3.851702  0  0  0.682269  0  4.142036  0  0  0.718317  0  4.127879  0  1.60826  0  0.239064  0.65649  0  4.146563  0
C  C65  1  0.97950793  0.51518466  0.67007155  1  0  0.726692  0  3.851204  0  0  0.682295  0  4.14167  0  0  0.718376  0  4.127477  0  1.607905  0  0.239218  0.656532  0  4.146179  0
C  C66  1  0.07242250  0.50447268  0.21836244  1  0  -0.022274  0  3.737443  0  0  -0.000262  0  3.96217  0  0  -0.004696  0  3.983529  0  -0.003074  0  0.000353  0.002122  0  3.949949  0
C  C67  1  0.92756874  0.49552434  0.78167205  1  0  -0.022318  0  3.737076  0  0  -0.000261  0  3.961855  0  0  -0.004698  0  3.983213  0  -0.00229  0  0.000289  0.00212  0  3.949637  0
C  C68  1  0.19569345  0.54640960  0.18452257  1  0  -0.107292  0  3.680362  0  0  -0.130502  0  3.923528  0  0  -0.133863  0  3.943545  0  -0.057038  0  -0.073128  -0.128501  0  3.910553  0
C  C69  1  0.80429701  0.45358647  0.81551376  1  0  -0.106887  0  3.679819  0  0  -0.130132  0  3.923028  0  0  -0.133502  0  3.943054  0  -0.056905  0  -0.072927  -0.128124  0  3.910031  0
C  C70  1  0.23381456  0.56851108  0.07787023  1  0  0.113613  0  3.757826  0  0  0.092746  0  4.017201  0  0  0.09681  0  4.034699  0  0.471499  0  0.042353  0.090129  0  4.005268  0
C  C71  1  0.76618608  0.43148499  0.92217540  1  0  0.113611  0  3.757643  0  0  0.092689  0  4.017051  0  0  0.096766  0  4.034544  0  0.48393  0  0.042469  0.090085  0  4.005101  0
C  C72  1  0.04113469  0.50966408  0.03967697  1  0  0.166548  0  3.786193  0  0  0.17  0  4.027969  0  0  0.174364  0  4.048223  0  0.538077  0  0.115159  0.16701  0  4.014173  0
C  C73  1  0.95888116  0.49032816  0.96035968  1  0  0.166373  0  3.786014  0  0  0.170058  0  4.027644  0  0  0.174433  0  4.047894  0  0.497316  0  0.115063  0.167077  0  4.013843  0
C  C74  1  0.99478251  0.48538557  0.14476000  1  0  -0.132719  0  3.688011  0  0  -0.163331  0  3.930231  0  0  -0.167536  0  3.950493  0  -0.046769  0  -0.075641  -0.160649  0  3.917444  0
C  C75  1  0.00522119  0.51461050  0.85526612  1  0  -0.132709  0  3.687975  0  0  -0.163409  0  3.93017  0  0  -0.167632  0  3.950452  0  -0.0474  0  -0.075701  -0.160738  0  3.917399  0
C  C76  1  0.72370006  0.29102732  0.36323810  1  0  0.403535  0  3.805465  0  0  0.327846  0  4.095762  0  0  0.356629  0  4.094801  0  1.353336  0  0.176275  0.308075  0  4.093265  0
C  C77  1  0.27629252  0.70898884  0.63673309  1  0  0.403769  0  3.805756  0  0  0.328147  0  4.096021  0  0  0.356922  0  4.095067  0  1.352852  0  0.176349  0.308382  0  4.093516  0
C  C78  1  0.68744666  0.20859942  0.22897129  1  0  -0.175802  0  3.65354  0  0  -0.274176  0  3.897109  0  0  -0.271532  0  3.909221  0  0.265679  0  -0.128624  -0.275641  0  3.888993  0
C  C79  1  0.31258780  0.79142440  0.77099864  1  0  -0.17599  0  3.653922  0  0  -0.274306  0  3.897488  0  0  -0.271661  0  3.909578  0  0.265586  0  -0.128698  -0.275789  0  3.889401  0
C  C80  1  0.63545499  0.09748056  0.42432966  1  0  -0.167752  0  3.63027  0  0  -0.267569  0  3.873248  0  0  -0.263886  0  3.883057  0  0.232195  0  -0.129348  -0.269948  0  3.867284  0
C  C81  1  0.36456999  0.90252412  0.57564046  1  0  -0.167964  0  3.629914  0  0  -0.26788  0  3.872982  0  0  -0.264196  0  3.882793  0  0.233358  0  -0.129611  -0.270252  0  3.86702  0
C  C82  1  0.52688434  0.37487341  0.67904202  1  0  0.729811  0  3.827676  0  0  0.687268  0  4.11075  0  0  0.722582  0  4.098756  0  1.59879  0  0.242403  0.661824  0  4.11444  0
C  C83  1  0.47308889  0.62514276  0.32096125  1  0  0.729879  0  3.827687  0  0  0.68741  0  4.110648  0  0  0.722694  0  4.098657  0  1.599036  0  0.242455  0.661962  0  4.11436  0
N  N84  1  0.80917416  0.99521424  0.00692842  1  0  -0.334754  0  3.059233  0  0  -0.304465  0  3.32106  0  0  -0.313733  0  3.334726  0  -1.192108  0  -0.313149  -0.298098  0  3.311865  0
N  N85  1  0.19081591  0.00475886  0.99305237  1  0  -0.335113  0  3.059179  0  0  -0.30439  0  3.320884  0  0  -0.313672  0  3.334562  0  -1.19194  0  -0.313169  -0.298026  0  3.311688  0
N  N86  1  0.15937047  0.55144215  0.00603516  1  0  -0.342287  0  3.07062  0  0  -0.310991  0  3.334036  0  0  -0.320571  0  3.348107  0  -1.189867  0  -0.314191  -0.304334  0  3.324493  0
N  N87  1  0.84064569  0.44855297  0.99400200  1  0  -0.342269  0  3.070483  0  0  -0.311023  0  3.333861  0  0  -0.320612  0  3.347935  0  -1.190713  0  -0.314253  -0.304372  0  3.324313  0
N  N88  1  0.68523062  0.20173242  0.34003228  1  0  -0.080398  0  3.493786  0  0  0.026947  0  3.724301  0  0  0.006541  0  3.749919  0  -1.220545  0  -0.274514  0.040321  0  3.707332  0
N  N89  1  0.31478664  0.79828278  0.65994275  1  0  -0.080458  0  3.493501  0  0  0.026798  0  3.724144  0  0  0.006395  0  3.749765  0  -1.220567  0  -0.274674  0.040171  0  3.707176  0
N  N90  1  0.46283125  0.18011037  0.01831308  1  0  -0.334043  0  3.057813  0  0  -0.304323  0  3.32238  0  0  -0.312838  0  3.335402  0  -1.203895  0  -0.31402  -0.298339  0  3.313448  0
N  N91  1  0.53716703  0.81986656  0.98169294  1  0  -0.333978  0  3.057764  0  0  -0.304261  0  3.322278  0  0  -0.312768  0  3.335302  0  -1.203676  0  -0.314086  -0.298277  0  3.313341  0
O  O92  1  0.60772678  0.83015079  0.37589977  1  0  -0.585079  0  1.92272  0  0  -0.534881  0  2.131502  0  0  -0.557942  0  2.122325  0  -1.164779  0  -0.300167  -0.519228  0  2.137929  0
O  O93  1  0.39227819  0.16986059  0.62408153  1  0  -0.584855  0  1.923231  0  0  -0.534686  0  2.132068  0  0  -0.557743  0  2.122897  0  -1.164718  0  -0.299972  -0.519033  0  2.1385  0
O  O94  1  0.80504277  0.67917156  0.39166507  1  0  -0.763893  0  2.102803  0  0  -0.709294  0  2.343278  0  0  -0.735838  0  2.333764  0  -1.215918  0  -0.386575  -0.679751  0  2.351223  0
O  O95  1  0.19496309  0.32083216  0.60833895  1  0  -0.764071  0  2.102712  0  0  -0.709463  0  2.343228  0  0  -0.735992  0  2.333698  0  -1.215798  0  -0.386687  -0.679875  0  2.351169  0
O  O96  1  0.90084377  0.45934533  0.35128130  1  0  -0.737344  0  2.08503  0  0  -0.700101  0  2.339748  0  0  -0.725915  0  2.328181  0  -1.192975  0  -0.380306  -0.670667  0  2.350057  0
O  O97  1  0.09912447  0.54066222  0.64872436  1  0  -0.737491  0  2.085017  0  0  -0.700243  0  2.339772  0  0  -0.72605  0  2.328191  0  -1.192479  0  -0.380422  -0.67077  0  2.350086  0
O  O98  1  0.72412264  0.29227421  0.45679842  1  0  -0.611345  0  2.079864  0  0  -0.567236  0  2.329023  0  0  -0.590175  0  2.320709  0  -1.169729  0  -0.347325  -0.541902  0  2.336477  0
O  O99  1  0.27585524  0.70773142  0.54320156  1  0  -0.611281  0  2.080904  0  0  -0.567169  0  2.330013  0  0  -0.590106  0  2.321699  0  -1.170494  0  -0.347211  -0.541815  0  2.337466  0
O  O100  1  0.94126476  0.28290195  0.58122523  1  0  -0.889891  0  1.885712  0  0  -0.854628  0  2.067216  0  0  -0.872239  0  2.037113  0  -1.226695  0  -0.626558  -0.831638  0  2.094578  0
O  O101  1  0.05869809  0.71710273  0.41877342  1  0  -0.889992  0  1.885268  0  0  -0.854691  0  2.066927  0  0  -0.872299  0  2.036817  0  -1.226344  0  -0.626559  -0.831678  0  2.094209  0
O  O102  1  0.64852731  0.35622840  0.64395534  1  0  -0.692676  0  2.005438  0  0  -0.655144  0  2.249489  0  0  -0.678736  0  2.236035  0  -1.176064  0  -0.373673  -0.626413  0  2.262738  0
O  O103  1  0.35145131  0.64379064  0.35604077  1  0  -0.692679  0  2.005763  0  0  -0.655188  0  2.249787  0  0  -0.678749  0  2.236313  0  -1.176831  0  -0.373539  -0.626416  0  2.263035  0
O  O104  1  0.09748504  0.49708511  0.39599191  1  0  -0.739611  0  2.124982  0  0  -0.704404  0  2.397323  0  0  -0.72841  0  2.3814  0  -1.204018  0  -0.41148  -0.672046  0  2.408706  0
O  O105  1  0.90250735  0.50287459  0.60404186  1  0  -0.739555  0  2.124778  0  0  -0.704366  0  2.397221  0  0  -0.728402  0  2.381306  0  -1.204089  0  -0.411539  -0.672062  0  2.408602  0
O  O106  1  0.60503987  0.62503175  0.55268914  1  0  -0.91663  0  1.884506  0  0  -0.881405  0  2.066967  0  0  -0.900123  0  2.035418  0  -1.276895  0  -0.643367  -0.857633  0  2.094415  0
O  O107  1  0.39494673  0.37499207  0.44730204  1  0  -0.916564  0  1.884728  0  0  -0.881358  0  2.066999  0  0  -0.900096  0  2.035458  0  -1.277173  0  -0.643369  -0.857563  0  2.094462  0
O  O108  1  0.42081507  0.45576159  0.62144655  1  0  -0.79667  0  2.153848  0  0  -0.753956  0  2.415825  0  0  -0.779654  0  2.402388  0  -1.224619  0  -0.414188  -0.721469  0  2.42666  0
O  O109  1  0.57917174  0.54424500  0.37856245  1  0  -0.796758  0  2.153555  0  0  -0.754045  0  2.415497  0  0  -0.779747  0  2.402082  0  -1.224373  0  -0.414265  -0.721557  0  2.426237  0
