# generated using pymatgen
data_Cu2H12C17(SN3)2
_symmetry_space_group_name_H-M   'P 1'
_cell_length_a   5.59275468
_cell_length_b   9.43005343
_cell_length_c   17.68338048
_cell_angle_alpha   75.32542394
_cell_angle_beta   80.83808156
_cell_angle_gamma   72.71141758
_symmetry_Int_Tables_number   1
_chemical_formula_structural   Cu2H12C17(SN3)2
_chemical_formula_sum   'Cu4 H24 C34 S4 N12'
_cell_volume   857.87343854
_cell_formula_units_Z   2
loop_
 _symmetry_equiv_pos_site_id
 _symmetry_equiv_pos_as_xyz
  1  'x, y, z'
loop_
 _atom_site_type_symbol
 _atom_site_label
 _atom_site_symmetry_multiplicity
 _atom_site_fract_x
 _atom_site_fract_y
 _atom_site_fract_z
 _atom_site_occupancy
 _atom_site_pbe_bader_spin_density
 _atom_site_pbe_cm5_charge
 _atom_site_pbe_ddec_charge
 _atom_site_pbe_ddec_spin_density
 _atom_site_pbe_ddec_sum_bond_order
 _atom_site_pbe_magmom
Cu  Cu0  1  0.65974792  0.91669460  0.93570751  1  0  0.489154  0.343115  0  2.575214  0
Cu  Cu1  1  0.51175800  0.58285947  0.56403513  1  0  0.488782  0.343019  0  2.578807  0
Cu  Cu2  1  0.34023664  0.08330795  0.06429397  1  0  0.48916  0.343225  0  2.575065  0
Cu  Cu3  1  0.48825852  0.41714081  0.43596642  1  0  0.488834  0.343115  0  2.57891  0
H  H4  1  0.91183009  0.83200892  0.77099620  1  0  0.098602  0.10938  0  1.050134  0
H  H5  1  0.51500167  0.66769141  0.72849509  1  0  0.099174  0.109919  0  1.051104  0
H  H6  1  0.08816814  0.16799014  0.22900986  1  0  0.098607  0.109362  0  1.050069  0
H  H7  1  0.48499160  0.33231107  0.27151043  1  0  0.09917  0.109891  0  1.05103  0
H  H8  1  0.92395377  0.80930722  0.63234873  1  0  0.095583  0.10101  0  1.026116  0
H  H9  1  0.36647148  0.69061440  0.86722411  1  0  0.09593  0.10136  0  1.025397  0
H  H10  1  0.07605627  0.19068844  0.36765644  1  0  0.095606  0.101094  0  1.026002  0
H  H11  1  0.63350801  0.30938927  0.13277821  1  0  0.095955  0.101408  0  1.025328  0
H  H12  1  0.54795646  0.92296003  0.55901268  1  0  0.097906  0.102165  0  1.025203  0
H  H13  1  0.03081337  0.57719017  0.94100894  1  0  0.097551  0.101439  0  1.026785  0
H  H14  1  0.45206028  0.07703340  0.44099065  1  0  0.097922  0.102164  0  1.025115  0
H  H15  1  0.96916714  0.42281123  0.05899362  1  0  0.097503  0.10135  0  1.026839  0
H  H16  1  0.14923874  0.07471865  0.61767963  1  0  0.094378  0.108813  0  1.052232  0
H  H17  1  0.84201098  0.42534490  0.88279605  1  0  0.09494  0.109644  0  1.053058  0
H  H18  1  0.85077273  0.92527602  0.38231738  1  0  0.094417  0.108866  0  1.052281  0
H  H19  1  0.15797789  0.57465546  0.11720049  1  0  0.094976  0.109724  0  1.053004  0
H  H20  1  0.12773576  0.13869199  0.89549747  1  0  0.130983  0.100692  0  1.042026  0
H  H21  1  0.16076903  0.36124985  0.60477684  1  0  0.131609  0.101324  0  1.042475  0
H  H22  1  0.87224536  0.86131174  0.10450136  1  0  0.131028  0.100734  0  1.04198  0
H  H23  1  0.83925145  0.63875046  0.39522253  1  0  0.131556  0.101299  0  1.042503  0
H  H24  1  0.77726022  0.26665516  0.79917773  1  0  0.128292  0.10208  0  0.987159  0
H  H25  1  0.84243896  0.23333386  0.70157547  1  0  0.128063  0.100803  0  0.988826  0
H  H26  1  0.22273573  0.73335097  0.20081393  1  0  0.128252  0.102047  0  0.987141  0
H  H27  1  0.15757174  0.76667001  0.29841536  1  0  0.12798  0.10075  0  0.989041  0
C  C28  1  0.52445648  0.96948121  0.77083866  1  0  0.079676  0.137989  0  4.029021  0
C  C29  1  0.26461377  0.53045294  0.72910053  1  0  0.079461  0.136951  0  4.030101  0
C  C30  1  0.47553598  0.03051905  0.22916343  1  0  0.079644  0.137852  0  4.029175  0
C  C31  1  0.73538796  0.46954844  0.27090254  1  0  0.079473  0.136977  0  4.030109  0
C  C32  1  0.74823545  0.88551519  0.73756866  1  0  -0.09417  -0.155889  0  3.968903  0
C  C33  1  0.37158424  0.61433966  0.76212648  1  0  -0.094107  -0.15492  0  3.97083  0
C  C34  1  0.25176320  0.11448161  0.26243642  1  0  -0.094083  -0.155663  0  3.968794  0
C  C35  1  0.62841937  0.38566399  0.23787709  1  0  -0.094051  -0.154831  0  3.970383  0
C  C36  1  0.75253433  0.87318379  0.66044645  1  0  -0.096652  -0.085827  0  4.006724  0
C  C37  1  0.28672710  0.62674200  0.83926918  1  0  -0.097869  -0.087186  0  4.008718  0
C  C38  1  0.24747733  0.12681075  0.33955772  1  0  -0.096796  -0.086052  0  4.006836  0
C  C39  1  0.71327174  0.37326057  0.16073066  1  0  -0.097983  -0.087424  0  4.008672  0
C  C40  1  0.53866780  0.94000858  0.61814382  1  0  -0.095908  -0.077789  0  4.009309  0
C  C41  1  0.09739894  0.56006346  0.88183954  1  0  -0.094988  -0.07665  0  4.01037  0
C  C42  1  0.46134453  0.05998946  0.38185591  1  0  -0.095856  -0.077699  0  4.009267  0
C  C43  1  0.90258588  0.43993457  0.11816056  1  0  -0.094914  -0.07636  0  4.010481  0
C  C44  1  0.31484891  0.02497624  0.65048124  1  0  -0.099108  -0.16458  0  3.992932  0
C  C45  1  0.99056900  0.47507354  0.84976895  1  0  -0.100222  -0.166323  0  3.994485  0
C  C46  1  0.68516225  0.97502181  0.34951784  1  0  -0.099159  -0.164655  0  3.9931  0
C  C47  1  0.00941582  0.52492449  0.15023115  1  0  -0.100249  -0.166526  0  3.994751  0
C  C48  1  0.31335947  0.04005775  0.72706976  1  0  0.086809  0.088376  0  4.003651  0
C  C49  1  0.08032414  0.45993972  0.77312617  1  0  0.087293  0.090562  0  4.003878  0
C  C50  1  0.68663877  0.95994366  0.27293134  1  0  0.086736  0.088381  0  4.003742  0
C  C51  1  0.91967688  0.54006175  0.22687209  1  0  0.087261  0.090549  0  4.003748  0
C  C52  1  0.23041466  0.09108358  0.84623218  1  0  0.15457  0.141771  0  3.888928  0
C  C53  1  0.16689122  0.40889550  0.65396249  1  0  0.153831  0.142086  0  3.892402  0
C  C54  1  0.76957051  0.90892131  0.15376558  1  0  0.15453  0.14177  0  3.888991  0
C  C55  1  0.83312511  0.59110372  0.34603438  1  0  0.153937  0.142113  0  3.892695  0
C  C56  1  0.92290410  0.24997236  0.75029903  1  0  0.063186  0.035026  0  3.836572  0
C  C57  1  0.07709911  0.75002800  0.24969766  1  0  0.063331  0.035157  0  3.836522  0
C  C58  1  0.17763486  0.81933904  0.99417391  1  0  0.140735  0.252647  0  4.276503  0
C  C59  1  0.99076550  0.68045306  0.50567254  1  0  0.140621  0.253031  0  4.272122  0
C  C60  1  0.82235209  0.18065673  0.00582530  1  0  0.141069  0.253145  0  4.276433  0
C  C61  1  0.00923921  0.31954943  0.49433237  1  0  0.1405  0.252901  0  4.271762  0
S  S62  1  0.44380723  0.76997193  0.03311400  1  0  -0.158158  -0.295279  0  2.831594  0
S  S63  1  0.24681926  0.72970781  0.46662927  1  0  -0.158213  -0.295705  0  2.831395  0
S  S64  1  0.55618255  0.23002269  0.96688665  1  0  -0.158187  -0.295396  0  2.83156  0
S  S65  1  0.75319787  0.27029362  0.53337102  1  0  -0.158152  -0.29558  0  2.831557  0
N  N66  1  0.46445682  0.00286918  0.84557056  1  0  -0.388914  -0.311574  0  3.664537  0
N  N67  1  0.31224859  0.49702873  0.65436378  1  0  -0.388674  -0.311465  0  3.667041  0
N  N68  1  0.53553113  0.99713340  0.15442932  1  0  -0.388954  -0.31157  0  3.664552  0
N  N69  1  0.68776328  0.50297158  0.34563514  1  0  -0.38861  -0.311365  0  3.667153  0
N  N70  1  0.12795162  0.11681331  0.77679825  1  0  -0.245865  -0.064287  0  3.679328  0
N  N71  1  0.02101757  0.38322850  0.72355757  1  0  -0.24602  -0.06783  0  3.681017  0
N  N72  1  0.87204079  0.88318935  0.22319709  1  0  -0.245781  -0.064368  0  3.679139  0
N  N73  1  0.97899506  0.61677525  0.27644051  1  0  -0.246077  -0.06783  0  3.681059  0
N  N74  1  0.98457264  0.85715976  0.96560179  1  0  -0.449281  -0.449017  0  3.551974  0
N  N75  1  0.80675156  0.64277359  0.53428883  1  0  -0.449  -0.448926  0  3.549955  0
N  N76  1  0.01540777  0.14284170  0.03439720  1  0  -0.449577  -0.449496  0  3.552181  0
N  N77  1  0.19327667  0.35723243  0.46570866  1  0  -0.449001  -0.449016  0  3.5496  0
