# generated using pymatgen
data_VZnH6C9NO5
_symmetry_space_group_name_H-M   'P 1'
_cell_length_a   10.55657450
_cell_length_b   10.68419121
_cell_length_c   11.21314320
_cell_angle_alpha   80.94361866
_cell_angle_beta   63.07618204
_cell_angle_gamma   63.66125468
_symmetry_Int_Tables_number   1
_chemical_formula_structural   VZnH6C9NO5
_chemical_formula_sum   'V4 Zn4 H24 C36 N4 O20'
_cell_volume   1009.06885695
_cell_formula_units_Z   4
loop_
 _symmetry_equiv_pos_site_id
 _symmetry_equiv_pos_as_xyz
  1  'x, y, z'
loop_
 _atom_site_type_symbol
 _atom_site_label
 _atom_site_symmetry_multiplicity
 _atom_site_fract_x
 _atom_site_fract_y
 _atom_site_fract_z
 _atom_site_occupancy
 _atom_site_hle17_bader_spin_density
 _atom_site_hle17_ddec_charge
 _atom_site_hle17_ddec_spin_density
 _atom_site_hle17_ddec_sum_bond_order
 _atom_site_hle17_magmom
 _atom_site_hse06_10hf_bader_spin_density
 _atom_site_hse06_10hf_ddec_charge
 _atom_site_hse06_10hf_ddec_spin_density
 _atom_site_hse06_10hf_ddec_sum_bond_order
 _atom_site_hse06_10hf_magmom
 _atom_site_hse06_bader_spin_density
 _atom_site_hse06_ddec_charge
 _atom_site_hse06_ddec_spin_density
 _atom_site_hse06_ddec_sum_bond_order
 _atom_site_hse06_magmom
 _atom_site_pbe_bader_spin_density
 _atom_site_pbe_cm5_charge
 _atom_site_pbe_ddec_charge
 _atom_site_pbe_ddec_spin_density
 _atom_site_pbe_ddec_sum_bond_order
 _atom_site_pbe_magmom
V  V0  1  0.16205014  0.03777457  0.28224306  1  0  1.982155  0  3.053949  0  0  2.037625  0  3.460444  0  0  2.136852  0  3.425815  0  0  1.439377  1.955925  0  3.510093  0
V  V1  1  0.83795079  0.96222343  0.71775722  1  0  1.982176  0  3.053926  0  0  2.03772  0  3.460314  0  0  2.136884  0  3.425778  0  0  1.439367  1.955988  0  3.510019  0
V  V2  1  0.20164987  0.76913016  0.46295920  1  0  1.982501  0  3.046126  0  0  2.036225  0  3.449058  0  0  2.135182  0  3.416411  0  0  1.438721  1.954908  0  3.497286  0
V  V3  1  0.79835418  0.23086574  0.53704007  1  0  1.982519  0  3.046072  0  0  2.036131  0  3.449177  0  0  2.135189  0  3.416376  0  0  1.438706  1.954819  0  3.497401  0
Zn  Zn4  1  0.29011852  0.50101946  0.28039636  1  0  1.085923  0  1.877581  0  0  0.917983  0  2.364799  0  0  0.967341  0  2.301906  0  0  0.700155  0.882428  0  2.408221  0
Zn  Zn5  1  0.70988192  0.49897958  0.71960218  1  0  1.085936  0  1.877624  0  0  0.917965  0  2.364844  0  0  0.967327  0  2.301954  0  0  0.70014  0.882412  0  2.408266  0
Zn  Zn6  1  0.25534303  0.76824909  0.09328268  1  0  1.136751  0  1.839736  0  0  0.973482  0  2.325366  0  0  1.024619  0  2.25876  0  0  0.703934  0.937277  0  2.371381  0
Zn  Zn7  1  0.74465691  0.23175100  0.90671769  1  0  1.136791  0  1.839717  0  0  0.973525  0  2.325349  0  0  1.024659  0  2.258743  0  0  0.703942  0.937321  0  2.371358  0
H  H8  1  0.94692198  0.40815483  0.27102935  1  0  0.10847  0  0.955358  0  0  0.11607  0  1.020789  0  0  0.1199  0  1.017912  0  0  0.106644  0.113142  0  1.023024  0
H  H9  1  0.05307746  0.59184631  0.72897107  1  0  0.108459  0  0.955348  0  0  0.116057  0  1.020775  0  0  0.119892  0  1.017891  0  0  0.106644  0.113129  0  1.023011  0
H  H10  1  0.71537867  0.40678352  0.26547563  1  0  0.10802  0  0.957688  0  0  0.118279  0  1.019437  0  0  0.121565  0  1.01729  0  0  0.106255  0.115656  0  1.021554  0
H  H11  1  0.28462078  0.59321762  0.73452390  1  0  0.10806  0  0.957651  0  0  0.118313  0  1.019401  0  0  0.1216  0  1.017253  0  0  0.106253  0.115679  0  1.02153  0
H  H12  1  0.68194739  0.75994006  0.01457806  1  0  0.119067  0  0.951799  0  0  0.129957  0  1.010095  0  0  0.133898  0  1.006999  0  0  0.107459  0.126837  0  1.012889  0
H  H13  1  0.31805410  0.24005899  0.98542181  1  0  0.119031  0  0.951692  0  0  0.129902  0  1.010017  0  0  0.133865  0  1.006892  0  0  0.107436  0.126783  0  1.01281  0
H  H14  1  0.90862476  0.76438500  0.02570178  1  0  0.101276  0  0.944462  0  0  0.111026  0  1.005725  0  0  0.114192  0  1.004152  0  0  0.107245  0.108633  0  1.00719  0
H  H15  1  0.09137675  0.23561404  0.97429720  1  0  0.101263  0  0.944483  0  0  0.111001  0  1.00576  0  0  0.114169  0  1.004185  0  0  0.107242  0.108608  0  1.007224  0
H  H16  1  0.11602590  0.32560607  0.41170461  1  0  0.091766  0  0.940767  0  0  0.099779  0  1.005274  0  0  0.102762  0  1.002256  0  0  0.124663  0.097558  0  1.007444  0
H  H17  1  0.88397561  0.67439296  0.58829348  1  0  0.091693  0  0.940846  0  0  0.099724  0  1.005337  0  0  0.102704  0  1.002321  0  0  0.124655  0.097504  0  1.007506  0
H  H18  1  0.11639292  0.14632849  0.57861922  1  0  0.118319  0  0.961026  0  0  0.126602  0  1.024191  0  0  0.130195  0  1.021946  0  0  0.114966  0.123997  0  1.026104  0
H  H19  1  0.88360752  0.85367055  0.42138021  1  0  0.118316  0  0.961042  0  0  0.126609  0  1.024196  0  0  0.130203  0  1.021948  0  0  0.114957  0.124004  0  1.026107  0
H  H20  1  0.50381180  0.18284198  0.59149414  1  0  0.12164  0  0.967046  0  0  0.131351  0  1.028115  0  0  0.135139  0  1.026276  0  0  0.112592  0.12865  0  1.029471  0
H  H21  1  0.49618864  0.81715707  0.40850619  1  0  0.121635  0  0.967071  0  0  0.131344  0  1.028145  0  0  0.135133  0  1.026304  0  0  0.112596  0.128644  0  1.029501  0
H  H22  1  0.47936169  0.36736765  0.43263606  1  0  0.105906  0  0.947986  0  0  0.116189  0  1.007106  0  0  0.119552  0  1.003211  0  0  0.123106  0.113796  0  1.009929  0
H  H23  1  0.52063981  0.63263139  0.56736292  1  0  0.105896  0  0.948012  0  0  0.116144  0  1.007179  0  0  0.119505  0  1.003287  0  0  0.123088  0.113751  0  1.010001  0
H  H24  1  0.12908377  0.99670592  0.70547705  1  0  0.118451  0  0.985376  0  0  0.126285  0  1.048995  0  0  0.130142  0  1.046545  0  0  0.110608  0.123581  0  1.050726  0
H  H25  1  0.87091928  0.00329208  0.29452322  1  0  0.118488  0  0.985295  0  0  0.126289  0  1.048954  0  0  0.130148  0  1.046502  0  0  0.110613  0.123585  0  1.050685  0
H  H26  1  0.12567471  0.83720904  0.88867682  1  0  0.088199  0  0.931531  0  0  0.09795  0  0.992213  0  0  0.100366  0  0.990261  0  0  0.122848  0.095811  0  0.994436  0
H  H27  1  0.87432524  0.16279104  0.11132266  1  0  0.08818  0  0.931549  0  0  0.097931  0  0.992238  0  0  0.100346  0  0.990286  0  0  0.122839  0.095793  0  0.994461  0
H  H28  1  0.48561935  0.87998138  0.91358411  1  0  0.105024  0  0.945233  0  0  0.115532  0  1.003225  0  0  0.118828  0  0.999585  0  0  0.123363  0.112884  0  1.006328  0
H  H29  1  0.51437804  0.12002186  0.08641775  1  0  0.105068  0  0.945239  0  0  0.115566  0  1.00323  0  0  0.118865  0  0.999587  0  0  0.123379  0.112919  0  1.006333  0
H  H30  1  0.50681600  0.03987052  0.73106384  1  0  0.118272  0  0.967697  0  0  0.127578  0  1.029441  0  0  0.131165  0  1.027798  0  0  0.112204  0.124931  0  1.030936  0
H  H31  1  0.49318289  0.96012957  0.26893609  1  0  0.118272  0  0.967721  0  0  0.127572  0  1.029466  0  0  0.131159  0  1.027824  0  0  0.112195  0.124924  0  1.030962  0
C  C32  1  0.07842377  0.59118957  0.15555855  1  0  0.681589  0  3.858133  0  0  0.626271  0  4.148579  0  0  0.662165  0  4.141372  0  0  0.22786  0.60225  0  4.151942  0
C  C33  1  0.92157461  0.40881157  0.84444233  1  0  0.68161  0  3.857935  0  0  0.626262  0  4.148428  0  0  0.662156  0  4.141221  0  0  0.227845  0.602241  0  4.151791  0
C  C34  1  0.94165991  0.58740529  0.14977835  1  0  -0.074208  0  3.756631  0  0  -0.050099  0  3.987353  0  0  -0.058181  0  4.012069  0  0  -0.01513  -0.044375  0  3.969918  0
C  C35  1  0.05834003  0.41259480  0.85022203  1  0  -0.074103  0  3.756463  0  0  -0.049997  0  3.987201  0  0  -0.058078  0  4.011919  0  0  -0.015083  -0.044274  0  3.969767  0
C  C36  1  0.88752122  0.48577221  0.21624974  1  0  -0.062498  0  3.705484  0  0  -0.086397  0  3.955626  0  0  -0.087468  0  3.976273  0  0  -0.077111  -0.084892  0  3.941145  0
C  C37  1  0.11247659  0.51422789  0.78375154  1  0  -0.062501  0  3.705521  0  0  -0.086384  0  3.955663  0  0  -0.087459  0  3.97631  0  0  -0.077131  -0.084877  0  3.941176  0
C  C38  1  0.75920108  0.48365978  0.21131328  1  0  -0.056813  0  3.690689  0  0  -0.083331  0  3.940581  0  0  -0.083956  0  3.961308  0  0  -0.078061  -0.082789  0  3.926772  0
C  C39  1  0.24079526  0.51634345  0.78868725  1  0  -0.056916  0  3.690675  0  0  -0.083424  0  3.940578  0  0  -0.084052  0  3.961306  0  0  -0.078076  -0.082873  0  3.926773  0
C  C40  1  0.68363651  0.58282566  0.13940889  1  0  -0.060852  0  3.724881  0  0  -0.035824  0  3.954861  0  0  -0.044247  0  3.978773  0  0  -0.011539  -0.030142  0  3.938188  0
C  C41  1  0.31636286  0.41717339  0.86059188  1  0  -0.060796  0  3.72486  0  0  -0.035807  0  3.954882  0  0  -0.04423  0  3.978797  0  0  -0.011513  -0.030127  0  3.938205  0
C  C42  1  0.73800454  0.68412504  0.07250780  1  0  -0.059704  0  3.690714  0  0  -0.083955  0  3.937842  0  0  -0.084633  0  3.957889  0  0  -0.078367  -0.083749  0  3.925527  0
C  C43  1  0.26199393  0.31587818  0.92749183  1  0  -0.059689  0  3.690786  0  0  -0.083915  0  3.937939  0  0  -0.084602  0  3.957969  0  0  -0.078378  -0.083707  0  3.925621  0
C  C44  1  0.86610852  0.68609416  0.07785727  1  0  -0.064483  0  3.731374  0  0  -0.088952  0  3.983959  0  0  -0.090087  0  4.005711  0  0  -0.080562  -0.088357  0  3.970125  0
C  C45  1  0.13389297  0.31390489  0.92214349  1  0  -0.064494  0  3.73141  0  0  -0.088955  0  3.984005  0  0  -0.090096  0  4.005764  0  0  -0.080563  -0.088361  0  3.970171  0
C  C46  1  0.54260216  0.58392258  0.13739956  1  0  0.676358  0  3.861725  0  0  0.621917  0  4.152737  0  0  0.65831  0  4.144123  0  0  0.227039  0.597735  0  4.156625  0
C  C47  1  0.45739729  0.41607855  0.86259997  1  0  0.676437  0  3.861624  0  0  0.622017  0  4.152626  0  0  0.658408  0  4.144012  0  0  0.227057  0.597835  0  4.156514  0
C  C48  1  0.19914205  0.29114371  0.45513506  1  0  0.135853  0  3.686254  0  0  0.103979  0  3.936179  0  0  0.111071  0  3.95504  0  0  0.05423  0.099629  0  3.922964  0
C  C49  1  0.80085840  0.70885533  0.54486347  1  0  0.135897  0  3.686347  0  0  0.103994  0  3.936297  0  0  0.111091  0  3.955154  0  0  0.05421  0.099645  0  3.923081  0
C  C50  1  0.20262237  0.18847759  0.54749563  1  0  -0.132076  0  3.661448  0  0  -0.150712  0  3.907699  0  0  -0.158047  0  3.928228  0  0  -0.072285  -0.146061  0  3.894166  0
C  C51  1  0.79737807  0.81152145  0.45250380  1  0  -0.132037  0  3.661435  0  0  -0.150689  0  3.907693  0  0  -0.158024  0  3.92822  0  0  -0.072269  -0.146038  0  3.894162  0
C  C52  1  0.31323513  0.14405884  0.59984749  1  0  0.099769  0  3.725014  0  0  0.111297  0  3.95439  0  0  0.115585  0  3.976112  0  0  0.020762  0.108284  0  3.940228  0
C  C53  1  0.68676686  0.85593916  0.40015233  1  0  0.099756  0  3.725063  0  0  0.111305  0  3.95443  0  0  0.115593  0  3.976155  0  0  0.020759  0.108293  0  3.940268  0
C  C54  1  0.41514833  0.20958888  0.55579068  1  0  -0.1396  0  3.664718  0  0  -0.157811  0  3.910118  0  0  -0.165958  0  3.931979  0  0  -0.071499  -0.152527  0  3.895923  0
C  C55  1  0.58485055  0.79041121  0.44421014  1  0  -0.1396  0  3.664726  0  0  -0.157813  0  3.910134  0  0  -0.165961  0  3.931996  0  0  -0.071487  -0.152528  0  3.895939  0
C  C56  1  0.40359335  0.31339536  0.46468073  1  0  0.143899  0  3.663132  0  0  0.111356  0  3.9112  0  0  0.119039  0  3.929488  0  0  0.055119  0.106226  0  3.898816  0
C  C57  1  0.59640865  0.68660264  0.53531820  1  0  0.143924  0  3.663179  0  0  0.111383  0  3.911253  0  0  0.119066  0  3.929542  0  0  0.055109  0.106252  0  3.89887  0
C  C58  1  0.31720570  0.03696601  0.70099871  1  0  0.089119  0  3.746577  0  0  0.100533  0  3.977163  0  0  0.10369  0  3.999824  0  0  0.014798  0.098613  0  3.96202  0
C  C59  1  0.68279481  0.96303513  0.29900127  1  0  0.089139  0  3.746709  0  0  0.100535  0  3.977287  0  0  0.10369  0  3.99995  0  0  0.014814  0.098614  0  3.962143  0
C  C60  1  0.21291688  0.97386346  0.74562510  1  0  -0.139777  0  3.670595  0  0  -0.158413  0  3.915537  0  0  -0.165421  0  3.935762  0  0  -0.073602  -0.15419  0  3.902158  0
C  C61  1  0.78708356  0.02613558  0.25437433  1  0  -0.139828  0  3.670576  0  0  -0.158425  0  3.915529  0  0  -0.165437  0  3.935758  0  0  -0.073622  -0.154203  0  3.902148  0
C  C62  1  0.20876421  0.88420885  0.84969221  1  0  0.142911  0  3.682479  0  0  0.113037  0  3.929828  0  0  0.119857  0  3.948191  0  0  0.053846  0.108511  0  3.918025  0
C  C63  1  0.79123630  0.11579228  0.15030777  1  0  0.142948  0  3.682444  0  0  0.113059  0  3.929804  0  0  0.119881  0  3.948165  0  0  0.053854  0.108533  0  3.918002  0
C  C64  1  0.40905927  0.90789325  0.86437227  1  0  0.139878  0  3.660562  0  0  0.110152  0  3.904783  0  0  0.117015  0  3.922412  0  0  0.05419  0.105717  0  3.892772  0
C  C65  1  0.59093919  0.09210998  0.13562826  1  0  0.139857  0  3.660592  0  0  0.110153  0  3.904779  0  0  0.117016  0  3.922405  0  0  0.054199  0.105719  0  3.892768  0
C  C66  1  0.41993493  0.99857745  0.76071133  1  0  -0.138349  0  3.673062  0  0  -0.156788  0  3.918511  0  0  -0.16435  0  3.94076  0  0  -0.071851  -0.151601  0  3.903812  0
C  C67  1  0.58006402  0.00142474  0.23928914  1  0  -0.138368  0  3.673143  0  0  -0.156792  0  3.918569  0  0  -0.164353  0  3.940818  0  0  -0.07184  -0.151604  0  3.90387  0
N  N68  1  0.29834985  0.35282479  0.41372361  1  0  -0.351093  0  3.325201  0  0  -0.263593  0  3.606058  0  0  -0.285114  0  3.621187  0  0  -0.335202  -0.24858  0  3.595262  0
N  N69  1  0.70165216  0.64717320  0.58627443  1  0  -0.351113  0  3.325362  0  0  -0.263556  0  3.606161  0  0  -0.285077  0  3.62129  0  0  -0.33517  -0.248543  0  3.595364  0
N  N70  1  0.30342466  0.85310692  0.90999621  1  0  -0.337019  0  3.305704  0  0  -0.255397  0  3.579613  0  0  -0.274999  0  3.594069  0  0  -0.329863  -0.241853  0  3.569511  0
N  N71  1  0.69657322  0.14689527  0.09000561  1  0  -0.337054  0  3.305741  0  0  -0.255442  0  3.57966  0  0  -0.275045  0  3.594116  0  0  -0.32989  -0.241899  0  3.56956  0
O  O72  1  0.15122739  0.49286131  0.21324502  1  0  -0.623572  0  2.071572  0  0  -0.547277  0  2.343621  0  0  -0.575904  0  2.326583  0  0  -0.307426  -0.527656  0  2.35504  0
O  O73  1  0.84877412  0.50713772  0.78675307  1  0  -0.623582  0  2.071529  0  0  -0.547265  0  2.343592  0  0  -0.575893  0  2.326554  0  0  -0.307409  -0.527646  0  2.355011  0
O  O74  1  0.11289346  0.69328498  0.10212237  1  0  -0.642045  0  2.107047  0  0  -0.567994  0  2.390748  0  0  -0.596732  0  2.373034  0  0  -0.308797  -0.546905  0  2.402377  0
O  O75  1  0.88710649  0.30671511  0.89787711  1  0  -0.642091  0  2.106937  0  0  -0.568028  0  2.390655  0  0  -0.59676  0  2.372929  0  0  -0.308808  -0.546938  0  2.402284  0
O  O76  1  0.46372274  0.69069649  0.09098728  1  0  -0.649692  0  2.125039  0  0  -0.580073  0  2.410877  0  0  -0.609365  0  2.393114  0  0  -0.303002  -0.558356  0  2.421698  0
O  O77  1  0.53627670  0.30930465  0.90901315  1  0  -0.649748  0  2.124904  0  0  -0.580133  0  2.410736  0  0  -0.609424  0  2.39297  0  0  -0.303004  -0.558416  0  2.421555  0
O  O78  1  0.50878005  0.47968934  0.18344607  1  0  -0.640951  0  2.082637  0  0  -0.572153  0  2.367232  0  0  -0.60035  0  2.349822  0  0  -0.313072  -0.552713  0  2.378807  0
O  O79  1  0.49122202  0.52031074  0.81655162  1  0  -0.640989  0  2.082676  0  0  -0.572182  0  2.367257  0  0  -0.600378  0  2.349846  0  0  -0.313081  -0.552742  0  2.378831  0
O  O80  1  0.12824132  0.94734918  0.19802456  1  0  -0.926273  0  1.589866  0  0  -0.908776  0  1.914826  0  0  -0.950747  0  1.898885  0  0  -0.626982  -0.876596  0  1.928443  0
O  O81  1  0.87175805  0.05264986  0.80197532  1  0  -0.926291  0  1.589862  0  0  -0.908809  0  1.914792  0  0  -0.95077  0  1.898884  0  0  -0.626999  -0.876622  0  1.928419  0
O  O82  1  0.02142392  0.82638737  0.61275964  1  0  -1.022959  0  1.605701  0  0  -1.044791  0  1.921759  0  0  -1.094231  0  1.912613  0  0  -0.702976  -1.002949  0  1.932053  0
O  O83  1  0.97857970  0.17361169  0.38724112  1  0  -1.02296  0  1.605751  0  0  -1.044704  0  1.921768  0  0  -1.094196  0  1.912611  0  0  -0.702955  -1.002871  0  1.932053  0
O  O84  1  0.28242990  0.10328312  0.17900665  1  0  -0.75977  0  1.248782  0  0  -0.767969  0  1.485822  0  0  -0.798127  0  1.4761  0  0  -0.599364  -0.744314  0  1.497062  0
O  O85  1  0.71757317  0.89671487  0.82099094  1  0  -0.759761  0  1.248776  0  0  -0.767985  0  1.485797  0  0  -0.79812  0  1.476088  0  0  -0.599349  -0.74432  0  1.497049  0
O  O86  1  0.24842170  0.91435140  0.38525322  1  0  -1.007573  0  1.567973  0  0  -1.03216  0  1.880328  0  0  -1.079982  0  1.873954  0  0  -0.686077  -0.99209  0  1.888054  0
O  O87  1  0.75158031  0.08564658  0.61474393  1  0  -1.007585  0  1.567962  0  0  -1.032153  0  1.880301  0  0  -1.079986  0  1.873926  0  0  -0.686063  -0.992075  0  1.888035  0
O  O88  1  0.34323086  0.65635928  0.49830402  1  0  -0.7457  0  1.268727  0  0  -0.748948  0  1.509435  0  0  -0.779  0  1.501377  0  0  -0.592193  -0.725596  0  1.518818  0
O  O89  1  0.65677169  0.34363977  0.50169630  1  0  -0.745721  0  1.268769  0  0  -0.748945  0  1.509497  0  0  -0.779028  0  1.501419  0  0  -0.592199  -0.725593  0  1.51888  0
O  O90  1  0.18072456  0.69325186  0.35403672  1  0  -0.96612  0  1.643741  0  0  -0.939093  0  1.983527  0  0  -0.981564  0  1.965167  0  0  -0.627026  -0.906732  0  1.998193  0
O  O91  1  0.81927636  0.30674615  0.64596534  1  0  -0.966109  0  1.643682  0  0  -0.939053  0  1.983486  0  0  -0.98155  0  1.965113  0  0  -0.627007  -0.906695  0  1.998154  0
