# generated using pymatgen
data_LiBH12C4O
_symmetry_space_group_name_H-M   'P 1'
_cell_length_a   4.35379467
_cell_length_b   10.82501500
_cell_length_c   13.17977664
_cell_angle_alpha   90.00007240
_cell_angle_beta   100.72607921
_cell_angle_gamma   89.99988346
_symmetry_Int_Tables_number   1
_chemical_formula_structural   LiBH12C4O
_chemical_formula_sum   'Li4 B4 H48 C16 O4'
_cell_volume   610.30864005
_cell_formula_units_Z   4
loop_
 _symmetry_equiv_pos_site_id
 _symmetry_equiv_pos_as_xyz
  1  'x, y, z'
loop_
 _atom_site_type_symbol
 _atom_site_label
 _atom_site_symmetry_multiplicity
 _atom_site_fract_x
 _atom_site_fract_y
 _atom_site_fract_z
 _atom_site_occupancy
 _atom_site_hle17_bader_spin_density
 _atom_site_hle17_ddec_charge
 _atom_site_hle17_ddec_spin_density
 _atom_site_hle17_ddec_sum_bond_order
 _atom_site_hle17_magmom
 _atom_site_hse06_10hf_bader_spin_density
 _atom_site_hse06_10hf_ddec_charge
 _atom_site_hse06_10hf_ddec_spin_density
 _atom_site_hse06_10hf_ddec_sum_bond_order
 _atom_site_hse06_10hf_magmom
 _atom_site_hse06_bader_spin_density
 _atom_site_hse06_ddec_charge
 _atom_site_hse06_ddec_spin_density
 _atom_site_hse06_ddec_sum_bond_order
 _atom_site_hse06_magmom
 _atom_site_pbe_bader_spin_density
 _atom_site_pbe_cm5_charge
 _atom_site_pbe_ddec_charge
 _atom_site_pbe_ddec_spin_density
 _atom_site_pbe_ddec_sum_bond_order
 _atom_site_pbe_magmom
Li  Li0  1  0.19670908  0.54920872  0.41873832  1  0  0.841446  0  0.384419  0  0  0.802836  0  0.482545  0  0  0.80868  0  0.474308  0  0  0.413623  0.798759  0  0.488291  0
Li  Li1  1  0.80328898  0.04920798  0.08126123  1  0  0.841434  0  0.384416  0  0  0.802821  0  0.482562  0  0  0.808662  0  0.474328  0  0  0.413626  0.798743  0  0.488307  0
Li  Li2  1  0.80329168  0.45079118  0.58126255  1  0  0.841445  0  0.384427  0  0  0.802832  0  0.482555  0  0  0.808675  0  0.474319  0  0  0.413623  0.798755  0  0.4883  0
Li  Li3  1  0.19670706  0.95079099  0.91873785  1  0  0.841438  0  0.384424  0  0  0.80281  0  0.482583  0  0  0.808653  0  0.474347  0  0  0.413621  0.798733  0  0.488328  0
B  B4  1  0.26353905  0.36781503  0.52774743  1  0  -0.177943  0  3.782341  0  0  -0.398042  0  4.087856  0  0  -0.390459  0  4.09628  0  0  -0.659792  -0.402748  0  4.081742  0
B  B5  1  0.73646005  0.86781448  0.97225214  1  0  -0.177991  0  3.782335  0  0  -0.398085  0  4.08782  0  0  -0.390501  0  4.096243  0  0  -0.659827  -0.402796  0  4.081707  0
B  B6  1  0.73646402  0.63218487  0.47225281  1  0  -0.177916  0  3.782318  0  0  -0.398011  0  4.087839  0  0  -0.390426  0  4.096259  0  0  -0.6598  -0.402721  0  4.081722  0
B  B7  1  0.26353601  0.13218449  0.02774769  1  0  -0.177981  0  3.782354  0  0  -0.398075  0  4.087872  0  0  -0.390492  0  4.096295  0  0  -0.659834  -0.402786  0  4.081753  0
H  H8  1  0.29019658  0.47416224  0.56227041  1  0  -0.21561  0  1.13017  0  0  -0.15193  0  1.218044  0  0  -0.154492  0  1.218976  0  0  0.055145  -0.15026  0  1.217283  0
H  H9  1  0.70980436  0.97416166  0.93772938  1  0  -0.215581  0  1.130114  0  0  -0.151903  0  1.217999  0  0  -0.154465  0  1.218928  0  0  0.055164  -0.150231  0  1.217235  0
H  H10  1  0.70980649  0.52583858  0.43772984  1  0  -0.215632  0  1.130193  0  0  -0.151951  0  1.218071  0  0  -0.154514  0  1.219003  0  0  0.05514  -0.150278  0  1.217307  0
H  H11  1  0.29019170  0.02583823  0.06227045  1  0  -0.215578  0  1.130175  0  0  -0.151898  0  1.218053  0  0  -0.154459  0  1.218984  0  0  0.055166  -0.150226  0  1.217291  0
H  H12  1  0.07373018  0.31145586  0.56780940  1  0  -0.155519  0  1.052839  0  0  -0.09437  0  1.137877  0  0  -0.097382  0  1.139853  0  0  0.038518  -0.092414  0  1.136576  0
H  H13  1  0.92626919  0.81145510  0.93219013  1  0  -0.15549  0  1.05278  0  0  -0.094335  0  1.137813  0  0  -0.097348  0  1.139789  0  0  0.038543  -0.092377  0  1.136512  0
H  H14  1  0.92627058  0.68854496  0.43219147  1  0  -0.155509  0  1.052792  0  0  -0.094359  0  1.137832  0  0  -0.09737  0  1.139806  0  0  0.038535  -0.092401  0  1.13653  0
H  H15  1  0.07372685  0.18854387  0.06780894  1  0  -0.155504  0  1.052791  0  0  -0.094352  0  1.137823  0  0  -0.097364  0  1.139798  0  0  0.038534  -0.092393  0  1.136519  0
H  H16  1  0.51288494  0.31383072  0.54959580  1  0  -0.157151  0  1.070229  0  0  -0.094921  0  1.151794  0  0  -0.097931  0  1.153816  0  0  0.041551  -0.092967  0  1.150486  0
H  H17  1  0.48711437  0.81383035  0.95040222  1  0  -0.157166  0  1.070282  0  0  -0.094932  0  1.151845  0  0  -0.097942  0  1.153867  0  0  0.041542  -0.092976  0  1.150536  0
H  H18  1  0.48711813  0.68616917  0.45040445  1  0  -0.15717  0  1.070273  0  0  -0.094934  0  1.151828  0  0  -0.097943  0  1.153848  0  0  0.041539  -0.092978  0  1.150518  0
H  H19  1  0.51288167  0.18616862  0.04959686  1  0  -0.157165  0  1.070277  0  0  -0.094925  0  1.151819  0  0  -0.097935  0  1.153839  0  0  0.04154  -0.092968  0  1.150506  0
H  H20  1  0.17720474  0.36839698  0.43383416  1  0  -0.164351  0  1.059336  0  0  -0.102065  0  1.144718  0  0  -0.105463  0  1.147237  0  0  0.042075  -0.099769  0  1.142868  0
H  H21  1  0.82279181  0.86839666  0.06616487  1  0  -0.164341  0  1.059341  0  0  -0.102061  0  1.144734  0  0  -0.10546  0  1.147253  0  0  0.042076  -0.09976  0  1.142878  0
H  H22  1  0.82279597  0.63160384  0.56616519  1  0  -0.164363  0  1.059346  0  0  -0.102082  0  1.144737  0  0  -0.105482  0  1.147256  0  0  0.042078  -0.099786  0  1.142887  0
H  H23  1  0.17720659  0.13160231  0.93383510  1  0  -0.164351  0  1.059338  0  0  -0.102058  0  1.144703  0  0  -0.105458  0  1.147221  0  0  0.04208  -0.099762  0  1.142851  0
H  H24  1  0.48465489  0.68646279  0.26034028  1  0  0.052919  0  0.937955  0  0  0.069663  0  1.001367  0  0  0.069678  0  1.00191  0  0  0.107179  0.069543  0  1.001102  0
H  H25  1  0.51534487  0.18646346  0.23965951  1  0  0.052926  0  0.937955  0  0  0.069661  0  1.001371  0  0  0.06968  0  1.001915  0  0  0.107166  0.069546  0  1.001103  0
H  H26  1  0.51534580  0.31353803  0.73965831  1  0  0.052887  0  0.938016  0  0  0.069636  0  1.001421  0  0  0.06965  0  1.001966  0  0  0.107168  0.069518  0  1.001155  0
H  H27  1  0.48465119  0.81353644  0.76034033  1  0  0.052907  0  0.937953  0  0  0.06963  0  1.0014  0  0  0.069648  0  1.00194  0  0  0.107164  0.069517  0  1.001134  0
H  H28  1  0.07586474  0.71926843  0.22123386  1  0  0.056057  0  0.941515  0  0  0.070742  0  1.007684  0  0  0.071027  0  1.007025  0  0  0.10878  0.070436  0  1.00828  0
H  H29  1  0.92414188  0.21926789  0.27876637  1  0  0.056054  0  0.94149  0  0  0.070711  0  1.007685  0  0  0.071  0  1.007029  0  0  0.108753  0.070408  0  1.008281  0
H  H30  1  0.92413366  0.28073332  0.77876612  1  0  0.056085  0  0.941496  0  0  0.070733  0  1.007706  0  0  0.071018  0  1.007047  0  0  0.108774  0.070429  0  1.0083  0
H  H31  1  0.07585884  0.78073108  0.72123298  1  0  0.056049  0  0.941496  0  0  0.070727  0  1.007675  0  0  0.071013  0  1.007019  0  0  0.108771  0.070425  0  1.008272  0
H  H32  1  0.04692604  0.60184030  0.06249881  1  0  0.075584  0  0.94608  0  0  0.095794  0  1.003532  0  0  0.096133  0  1.004887  0  0  0.095258  0.095479  0  1.002685  0
H  H33  1  0.95308351  0.10184276  0.43750298  1  0  0.075567  0  0.946044  0  0  0.095768  0  1.003532  0  0  0.096107  0  1.004887  0  0  0.095214  0.095449  0  1.002693  0
H  H34  1  0.95307939  0.39815867  0.93750233  1  0  0.075562  0  0.946052  0  0  0.095768  0  1.003535  0  0  0.096108  0  1.00489  0  0  0.095231  0.095452  0  1.002688  0
H  H35  1  0.04692191  0.89815713  0.56249741  1  0  0.075599  0  0.94603  0  0  0.095772  0  1.003544  0  0  0.096112  0  1.004899  0  0  0.09523  0.095456  0  1.002703  0
H  H36  1  0.41872916  0.67196015  0.07169500  1  0  0.09423  0  0.947799  0  0  0.115078  0  1.003082  0  0  0.115264  0  1.004786  0  0  0.103802  0.114873  0  1.001981  0
H  H37  1  0.58127064  0.17196198  0.42830402  1  0  0.094224  0  0.94782  0  0  0.115084  0  1.003106  0  0  0.115269  0  1.004813  0  0  0.103799  0.114881  0  1.002  0
H  H38  1  0.58126688  0.32803974  0.92830407  1  0  0.094214  0  0.947809  0  0  0.115072  0  1.003103  0  0  0.115258  0  1.004807  0  0  0.103806  0.114868  0  1.001999  0
H  H39  1  0.41872775  0.82803884  0.57169596  1  0  0.094235  0  0.947819  0  0  0.115095  0  1.003091  0  0  0.11528  0  1.004799  0  0  0.103802  0.114893  0  1.001986  0
H  H40  1  0.68787066  0.48783472  0.14467539  1  0  0.078201  0  0.963344  0  0  0.095077  0  1.023212  0  0  0.096249  0  1.023623  0  0  0.095452  0.094154  0  1.023051  0
H  H41  1  0.31212536  0.98783711  0.35532449  1  0  0.078161  0  0.963368  0  0  0.095035  0  1.023233  0  0  0.096208  0  1.023644  0  0  0.095442  0.094113  0  1.023077  0
H  H42  1  0.31213240  0.51216517  0.85532409  1  0  0.078104  0  0.963502  0  0  0.095016  0  1.023289  0  0  0.096187  0  1.0237  0  0  0.095455  0.094092  0  1.023131  0
H  H43  1  0.68787310  0.01216186  0.64467777  1  0  0.078173  0  0.963376  0  0  0.095037  0  1.023244  0  0  0.096206  0  1.023656  0  0  0.095444  0.094113  0  1.023086  0
H  H44  1  0.36198085  0.41516238  0.06673099  1  0  0.083105  0  0.956325  0  0  0.101486  0  1.015461  0  0  0.101863  0  1.016859  0  0  0.096639  0.101159  0  1.014568  0
H  H45  1  0.63802490  0.91516462  0.43327090  1  0  0.083097  0  0.956327  0  0  0.101464  0  1.015472  0  0  0.101841  0  1.016868  0  0  0.096618  0.101139  0  1.01458  0
H  H46  1  0.63801995  0.58483567  0.93327140  1  0  0.083112  0  0.956331  0  0  0.101464  0  1.015472  0  0  0.101841  0  1.016869  0  0  0.096627  0.101138  0  1.014579  0
H  H47  1  0.36197813  0.08483619  0.56672782  1  0  0.083116  0  0.956325  0  0  0.101474  0  1.015463  0  0  0.101851  0  1.016858  0  0  0.096627  0.101149  0  1.014568  0
H  H48  1  0.14826628  0.36201808  0.21361610  1  0  0.046645  0  0.948282  0  0  0.059693  0  1.017336  0  0  0.060241  0  1.016347  0  0  0.102009  0.059191  0  1.018171  0
H  H49  1  0.85173972  0.86201808  0.28638575  1  0  0.046653  0  0.9483  0  0  0.059696  0  1.017352  0  0  0.060243  0  1.016365  0  0  0.102004  0.059195  0  1.018186  0
H  H50  1  0.85173684  0.63798089  0.78638566  1  0  0.046644  0  0.948306  0  0  0.059691  0  1.017354  0  0  0.060241  0  1.016362  0  0  0.102012  0.059188  0  1.018192  0
H  H51  1  0.14826101  0.13797997  0.71361436  1  0  0.046639  0  0.948329  0  0  0.059686  0  1.017373  0  0  0.060235  0  1.016385  0  0  0.102001  0.059188  0  1.018203  0
H  H52  1  0.52090035  0.40311816  0.28824787  1  0  0.05235  0  0.937577  0  0  0.065254  0  1.004546  0  0  0.065775  0  1.004231  0  0  0.109575  0.06474  0  1.004958  0
H  H53  1  0.47909609  0.90311742  0.21175271  1  0  0.052337  0  0.937562  0  0  0.065254  0  1.004505  0  0  0.065774  0  1.004194  0  0  0.109581  0.064736  0  1.004926  0
H  H54  1  0.47910041  0.59688358  0.71175300  1  0  0.052336  0  0.937547  0  0  0.065214  0  1.004537  0  0  0.065733  0  1.004225  0  0  0.109561  0.064697  0  1.004952  0
H  H55  1  0.52089766  0.09688340  0.78824775  1  0  0.052372  0  0.937515  0  0  0.065249  0  1.004498  0  0  0.065771  0  1.004184  0  0  0.109572  0.064734  0  1.004911  0
C  C56  1  0.25965118  0.65078992  0.21826683  1  0  0.10122  0  3.599938  0  0  0.044405  0  3.871366  0  0  0.051608  0  3.876683  0  0  -0.06203  0.039575  0  3.867698  0
C  C57  1  0.74035340  0.15079047  0.28173244  1  0  0.101219  0  3.599894  0  0  0.04446  0  3.871291  0  0  0.051646  0  3.876631  0  0  -0.061952  0.039622  0  3.867628  0
C  C58  1  0.74034724  0.34921090  0.78173390  1  0  0.101199  0  3.600007  0  0  0.044404  0  3.871455  0  0  0.051607  0  3.876771  0  0  -0.062017  0.039567  0  3.867789  0
C  C59  1  0.25964494  0.84920850  0.71826525  1  0  0.101231  0  3.599903  0  0  0.044438  0  3.871322  0  0  0.051634  0  3.876649  0  0  -0.061992  0.0396  0  3.86766  0
C  C60  1  0.28174198  0.60816726  0.11021293  1  0  -0.146285  0  3.663863  0  0  -0.188887  0  3.923055  0  0  -0.190729  0  3.936204  0  0  -0.163092  -0.187476  0  3.913905  0
C  C61  1  0.71826749  0.10816891  0.38978734  1  0  -0.146194  0  3.663738  0  0  -0.188847  0  3.922963  0  0  -0.190686  0  3.93612  0  0  -0.16305  -0.187431  0  3.913813  0
C  C62  1  0.71826345  0.39183264  0.88978821  1  0  -0.14619  0  3.663804  0  0  -0.188869  0  3.923069  0  0  -0.190712  0  3.936218  0  0  -0.163085  -0.187454  0  3.913914  0
C  C63  1  0.28173556  0.89183191  0.61021214  1  0  -0.146292  0  3.663855  0  0  -0.188921  0  3.923072  0  0  -0.190762  0  3.936225  0  0  -0.163084  -0.187504  0  3.913921  0
C  C64  1  0.43249325  0.47996970  0.13065043  1  0  -0.148862  0  3.638963  0  0  -0.188038  0  3.89675  0  0  -0.190174  0  3.909331  0  0  -0.165129  -0.18638  0  3.887952  0
C  C65  1  0.56750752  0.97997098  0.36935124  1  0  -0.148863  0  3.638895  0  0  -0.187985  0  3.896635  0  0  -0.190122  0  3.909222  0  0  -0.165109  -0.186325  0  3.887833  0
C  C66  1  0.56750982  0.52003112  0.86934982  1  0  -0.148839  0  3.639077  0  0  -0.187921  0  3.896727  0  0  -0.190056  0  3.909312  0  0  -0.165089  -0.186263  0  3.887928  0
C  C67  1  0.43249087  0.02002891  0.63064873  1  0  -0.148875  0  3.639039  0  0  -0.187954  0  3.896692  0  0  -0.190088  0  3.909281  0  0  -0.165096  -0.186298  0  3.887885  0
C  C68  1  0.32522536  0.43537311  0.22894785  1  0  0.100565  0  3.567166  0  0  0.042882  0  3.843875  0  0  0.050261  0  3.848291  0  0  -0.060587  0.037946  0  3.840813  0
C  C69  1  0.67477562  0.93537231  0.27105379  1  0  0.100507  0  3.567231  0  0  0.042827  0  3.843915  0  0  0.050204  0  3.848329  0  0  -0.060588  0.037893  0  3.840849  0
C  C70  1  0.67477769  0.56462586  0.77105164  1  0  0.10058  0  3.567217  0  0  0.042889  0  3.843894  0  0  0.050269  0  3.84831  0  0  -0.060577  0.037959  0  3.840829  0
C  C71  1  0.32522048  0.06462389  0.72894757  1  0  0.100504  0  3.567299  0  0  0.042839  0  3.843946  0  0  0.050215  0  3.84836  0  0  -0.060564  0.037905  0  3.840875  0
O  O72  1  0.17826882  0.54046497  0.26992571  1  0  -0.416587  0  2.223966  0  0  -0.344649  0  2.474218  0  0  -0.360139  0  2.474434  0  0  -0.298982  -0.33384  0  2.473826  0
O  O73  1  0.82173872  0.04046353  0.23007742  1  0  -0.416555  0  2.223953  0  0  -0.344637  0  2.47419  0  0  -0.360116  0  2.474415  0  0  -0.298988  -0.333828  0  2.473803  0
O  O74  1  0.82173661  0.45953400  0.73007543  1  0  -0.416557  0  2.223967  0  0  -0.344603  0  2.4742  0  0  -0.360092  0  2.474415  0  0  -0.298987  -0.333796  0  2.47381  0
O  O75  1  0.17825735  0.95953267  0.76992242  1  0  -0.416518  0  2.224046  0  0  -0.344567  0  2.474261  0  0  -0.360052  0  2.474483  0  0  -0.298986  -0.333762  0  2.473875  0
