# generated using pymatgen
data_NiH8C14(S2N3)2
_symmetry_space_group_name_H-M   'P 1'
_cell_length_a   7.76060040
_cell_length_b   8.48837826
_cell_length_c   14.16595644
_cell_angle_alpha   99.73157251
_cell_angle_beta   101.46273450
_cell_angle_gamma   107.95040459
_symmetry_Int_Tables_number   1
_chemical_formula_structural   NiH8C14(S2N3)2
_chemical_formula_sum   'Ni2 H16 C28 S8 N12'
_cell_volume   843.09453491
_cell_formula_units_Z   2
loop_
 _symmetry_equiv_pos_site_id
 _symmetry_equiv_pos_as_xyz
  1  'x, y, z'
loop_
 _atom_site_type_symbol
 _atom_site_label
 _atom_site_symmetry_multiplicity
 _atom_site_fract_x
 _atom_site_fract_y
 _atom_site_fract_z
 _atom_site_occupancy
 _atom_site_hle17_ddec_charge
 _atom_site_hle17_ddec_spin_density
 _atom_site_hle17_ddec_sum_bond_order
 _atom_site_hle17_magmom
 _atom_site_hse06_10hf_ddec_charge
 _atom_site_hse06_10hf_ddec_spin_density
 _atom_site_hse06_10hf_ddec_sum_bond_order
 _atom_site_hse06_10hf_magmom
 _atom_site_hse06_ddec_charge
 _atom_site_hse06_ddec_spin_density
 _atom_site_hse06_ddec_sum_bond_order
 _atom_site_hse06_magmom
 _atom_site_pbe_cm5_charge
 _atom_site_pbe_ddec_charge
 _atom_site_pbe_ddec_spin_density
 _atom_site_pbe_ddec_sum_bond_order
 _atom_site_pbe_magmom
Ni  Ni0  1  0.35055328  0.66250173  0.74082031  1  0.511543  -1.753152  2.352592  -1.368  0.512342  -1.799373  2.757188  -1.509  0.620695  -1.893107  2.68207  -1.63  0.593255  0.44272  -1.717049  2.806076  -1.409
Ni  Ni1  1  0.64945364  0.33749601  0.25918058  1  0.51151  1.753165  2.352472  1.368  0.512344  1.799399  2.757075  1.509  0.620675  1.893126  2.68196  1.63  0.593252  0.442716  1.717071  2.805957  1.409
H  H2  1  0.96098341  0.22484950  0.94305883  1  0.100657  1.5e-05  0.930647  0.0  0.114521  -0.000271  0.987061  0.0  0.117744  -0.000191  0.983994  0.0  0.1046  0.112047  -0.000347  0.989596  0.0
H  H3  1  0.03902317  0.77516105  0.05694057  1  0.100624  -1.5e-05  0.93078  0.0  0.114477  0.000271  0.987196  0.0  0.117702  0.000191  0.984128  0.0  0.104579  0.112001  0.000347  0.989729  0.0
H  H4  1  0.04233651  0.44075139  0.10508632  1  0.112901  0.00032  0.948862  0.0  0.128792  0.000448  1.00006  0.0  0.132305  0.000308  0.999192  0.0  0.102712  0.126138  0.000581  1.001031  0.001
H  H5  1  0.95766678  0.55925399  0.89491499  1  0.112912  -0.00032  0.948789  0.0  0.128841  -0.000448  0.999945  0.0  0.132354  -0.000308  0.999076  0.0  0.102741  0.126187  -0.000581  1.000918  -0.001
H  H6  1  0.33403601  0.48820423  0.23587791  1  0.08575  0.000769  0.941133  0.001  0.092387  0.000758  1.008029  0.001  0.095433  0.000538  1.004616  0.001  0.115919  0.090007  0.000954  1.010823  0.001
H  H7  1  0.66597074  0.51179994  0.76412012  1  0.085744  -0.000768  0.941003  -0.001  0.092363  -0.000758  1.007916  -0.001  0.095412  -0.000539  1.004501  -0.001  0.11593  0.089982  -0.000955  1.010716  -0.001
H  H8  1  0.47131945  0.13347767  0.05534156  1  0.092282  0.000784  1.004573  0.002  0.085913  0.000647  1.091141  0.001  0.089911  0.000412  1.086319  0.001  0.117605  0.082968  0.000868  1.094702  0.002
H  H9  1  0.52868368  0.86653409  0.94466113  1  0.092277  -0.000784  1.004592  -0.002  0.085868  -0.000648  1.091204  -0.001  0.089864  -0.000413  1.086387  -0.001  0.117605  0.082924  -0.000869  1.094762  -0.002
H  H10  1  0.21022662  0.86103383  0.46195830  1  0.104462  0.000305  0.937966  0.0  0.114427  1.3e-05  1.000488  0.0  0.118092  1.7e-05  0.997485  0.0  0.100992  0.111504  9e-06  1.00308  0.0
H  H11  1  0.78975117  0.13897017  0.53804155  1  0.104287  -0.000305  0.938059  0.0  0.114256  -1.3e-05  1.000606  0.0  0.117921  -1.7e-05  0.997602  0.0  0.100937  0.111325  -9e-06  1.003191  0.0
H  H12  1  0.28653727  0.74283391  0.30875292  1  0.107034  0.000316  0.949323  0.0  0.117261  0.000482  1.0089  0.001  0.121046  0.000326  1.007099  0.0  0.102691  0.114483  0.000629  1.010419  0.001
H  H13  1  0.71343328  0.25715470  0.69124804  1  0.107012  -0.000314  0.949495  0.0  0.117278  -0.000482  1.009011  -0.001  0.121063  -0.000326  1.007214  0.0  0.102692  0.114501  -0.000629  1.010532  -0.001
H  H14  1  0.47427798  0.94418360  0.22441517  1  0.087987  0.000666  0.933062  0.001  0.095182  0.000627  0.995964  0.001  0.097826  0.000449  0.993469  0.001  0.114669  0.093136  0.000785  0.998078  0.001
H  H15  1  0.52570426  0.05579098  0.77558766  1  0.088017  -0.000667  0.933022  -0.001  0.095231  -0.000627  0.9959  -0.001  0.097872  -0.00045  0.993408  -0.001  0.11467  0.093182  -0.000786  0.998019  -0.001
H  H16  1  0.49361354  0.36565997  0.42966442  1  0.094643  0.000859  1.008553  0.002  0.088891  0.00076  1.094242  0.001  0.093134  0.000501  1.089105  0.001  0.120852  0.085737  0.001003  1.098089  0.002
H  H17  1  0.50637413  0.63432890  0.57032569  1  0.094631  -0.00086  1.008556  -0.002  0.088921  -0.00076  1.094251  -0.001  0.093134  -0.000501  1.089143  -0.001  0.120882  0.08576  -0.001004  1.09811  -0.002
C  C18  1  0.09316122  0.81347374  0.74223841  1  0.123315  0.008857  3.873679  0.011  0.120776  0.000655  4.186848  0.002  0.140961  0.001344  4.206487  0.003  0.09486  0.106846  -0.000244  4.173204  0.001
C  C19  1  0.90685080  0.18653033  0.25776794  1  0.123173  -0.008859  3.873639  -0.011  0.120647  -0.000655  4.186827  -0.002  0.140827  -0.001345  4.20647  -0.003  0.094817  0.106723  0.000244  4.173166  -0.001
C  C20  1  0.18178137  0.02982283  0.89823523  1  0.088162  -0.00153  3.766965  -0.003  0.075883  -0.001559  4.052387  -0.003  0.083964  -0.001303  4.068488  -0.002  0.109857  0.070902  -0.001912  4.04114  -0.003
C  C21  1  0.81823607  0.97018508  0.10177211  1  0.08813  0.001529  3.767355  0.003  0.075847  0.001556  4.052766  0.003  0.083924  0.001304  4.068866  0.002  0.109865  0.07087  0.001912  4.041507  0.003
C  C22  1  0.21120188  0.16162271  0.98657350  1  -0.008112  0.006934  3.8167  0.008  0.011443  0.002459  4.053994  0.003  0.005508  0.002476  4.075836  0.003  -0.006776  0.01477  0.00256  4.039899  0.003
C  C23  1  0.78879236  0.83838643  0.01343007  1  -0.008258  -0.006928  3.816874  -0.008  0.011307  -0.002462  4.054167  -0.003  0.005387  -0.002476  4.075991  -0.003  -0.006865  0.014636  -0.00256  4.040073  -0.003
C  C24  1  0.08960622  0.25080787  0.00055117  1  -0.046145  -0.009192  3.703963  -0.01  -0.074857  -0.003217  3.956497  -0.003  -0.068041  -0.003064  3.969779  -0.003  -0.073031  -0.07974  -0.003726  3.948302  -0.004
C  C25  1  0.91039230  0.74919867  0.99945611  1  -0.045967  0.009184  3.703853  0.01  -0.074664  0.00322  3.956364  0.003  -0.067858  0.003062  3.969648  0.003  -0.07297  -0.079548  0.003725  3.94817  0.004
C  C26  1  0.13495779  0.37137868  0.09019735  1  -0.113571  0.00844  3.735695  0.01  -0.123641  0.002993  3.983648  0.004  -0.13031  0.002928  4.000862  0.004  -0.08651  -0.119514  0.003196  3.972814  0.004
C  C27  1  0.86504616  0.62863177  0.90980740  1  -0.113706  -0.00843  3.735597  -0.01  -0.123821  -0.002993  3.983553  -0.004  -0.13049  -0.002925  4.000769  -0.004  -0.086495  -0.119698  -0.003195  3.972729  -0.004
C  C28  1  0.29743460  0.39932458  0.16370051  1  0.114766  -0.007637  3.675286  -0.009  0.081983  -0.001163  3.93917  -0.002  0.093135  -0.001949  3.954532  -0.003  0.037851  0.074  -0.000697  3.93011  -0.001
C  C29  1  0.70258055  0.60068085  0.83630137  1  0.11491  0.00763  3.675158  0.009  0.08213  0.001161  3.938986  0.002  0.093275  0.001948  3.95435  0.003  0.037895  0.074177  0.000697  3.929882  0.001
C  C30  1  0.37364360  0.20000825  0.06414006  1  0.095879  -0.009644  3.60972  -0.011  0.061875  -0.00238  3.862852  -0.004  0.072094  -0.003018  3.877275  -0.004  0.050718  0.054852  -0.001949  3.854057  -0.003
C  C31  1  0.62636200  0.79999971  0.93586107  1  0.095975  0.009633  3.609984  0.011  0.06194  0.002381  3.863159  0.004  0.072148  0.003015  3.877589  0.004  0.050748  0.054917  0.001948  3.854368  0.003
C  C32  1  0.21702105  0.32196630  0.68907193  1  0.141779  0.01083  3.828091  0.013  0.143973  0.002276  4.131126  0.004  0.1651  0.002665  4.147571  0.004  0.097586  0.129309  0.001762  4.119962  0.003
C  C33  1  0.78297945  0.67803532  0.31092374  1  0.141575  -0.010835  3.827841  -0.013  0.143776  -0.002276  4.130882  -0.004  0.1649  -0.002666  4.147334  -0.004  0.097558  0.129117  -0.001763  4.119704  -0.003
C  C34  1  0.30888218  0.21281156  0.54421241  1  0.087699  -0.000457  3.777025  -0.003  0.074954  -0.000224  4.06351  -0.002  0.08284  -0.000411  4.079184  -0.002  0.109071  0.070057  -9.9e-05  4.052625  -0.002
C  C35  1  0.69111980  0.78719398  0.45577890  1  0.087839  0.000461  3.777071  0.003  0.075045  0.000229  4.063582  0.002  0.082934  0.00041  4.079249  0.002  0.109012  0.070143  9.9e-05  4.052698  0.002
C  C36  1  0.34432905  0.12436003  0.45686404  1  -0.009296  0.007425  3.817076  0.008  0.011528  0.003151  4.052721  0.003  0.005837  0.00291  4.074004  0.003  -0.008342  0.014758  0.003531  4.03902  0.004
C  C37  1  0.65564710  0.87562618  0.54312879  1  -0.009624  -0.007424  3.817104  -0.008  0.011295  -0.003147  4.052715  -0.003  0.005609  -0.002912  4.073988  -0.003  -0.008329  0.014531  -0.003532  4.039004  -0.004
C  C38  1  0.28671110  0.94652424  0.42268152  1  -0.054078  -0.008642  3.703671  -0.009  -0.080771  -0.002611  3.951466  -0.003  -0.075494  -0.002626  3.966128  -0.003  -0.073723  -0.084473  -0.002901  3.942346  -0.003
C  C39  1  0.71326917  0.05346579  0.57731357  1  -0.053756  0.008638  3.703588  0.009  -0.080478  0.00261  3.95137  0.003  -0.075202  0.002628  3.966035  0.003  -0.073679  -0.084164  0.002902  3.942235  0.003
C  C40  1  0.33179234  0.88046171  0.33772272  1  -0.116348  0.008709  3.771766  0.01  -0.127645  0.003466  4.028682  0.004  -0.13368  0.0032  4.046485  0.004  -0.090163  -0.123901  0.003868  4.017244  0.004
C  C41  1  0.66818957  0.11952577  0.66227299  1  -0.11635  -0.008708  3.771809  -0.01  -0.127698  -0.003466  4.028745  -0.004  -0.13374  -0.003203  4.046555  -0.004  -0.09016  -0.123951  -0.003868  4.017307  -0.004
C  C42  1  0.43515047  0.99135414  0.29039782  1  0.098407  -0.007127  3.693723  -0.009  0.063568  -0.000774  3.964871  -0.002  0.074137  -0.001597  3.980539  -0.003  0.029959  0.05593  -0.00025  3.955658  -0.001
C  C43  1  0.56483885  0.00863202  0.70960277  1  0.098323  0.007128  3.693633  0.009  0.063466  0.000776  3.964762  0.002  0.074053  0.001601  3.980404  0.003  0.029948  0.055832  0.000252  3.955554  0.001
C  C44  1  0.44710850  0.22712535  0.40431071  1  0.101554  -0.008768  3.601127  -0.011  0.066496  -0.001635  3.857333  -0.003  0.077532  -0.002484  3.870469  -0.004  0.049337  0.058515  -0.000946  3.850056  -0.003
C  C45  1  0.55288311  0.77286347  0.59568336  1  0.101749  0.008767  3.601119  0.011  0.066564  0.001625  3.857323  0.003  0.077614  0.002485  3.870497  0.004  0.049363  0.058572  0.000944  3.850087  0.003
S  S46  1  0.99770345  0.96157426  0.78990555  1  0.089583  -0.002803  2.546592  0.0  0.097539  -0.003531  2.882133  0.0  0.096904  -0.002227  2.885745  0.0  0.103275  0.097906  -0.005076  2.879949  -0.001
S  S47  1  0.00231054  0.03842492  0.21008707  1  0.089638  0.002804  2.546823  0.0  0.097608  0.003532  2.882352  0.0  0.096969  0.002227  2.885977  0.0  0.103285  0.097971  0.005076  2.880151  0.001
S  S48  1  0.02702239  0.67225499  0.63154895  1  -0.283478  -0.110458  1.902137  -0.122  -0.323476  -0.062679  2.213062  -0.071  -0.363558  -0.042414  2.220995  -0.05  -0.173688  -0.293383  -0.081223  2.206086  -0.088
S  S49  1  0.97299868  0.32774513  0.36846783  1  -0.283492  0.110446  1.901921  0.122  -0.323495  0.062668  2.212844  0.071  -0.363564  0.042405  2.220758  0.05  -0.173716  -0.293396  0.081211  2.205836  0.088
S  S50  1  0.14618189  0.39255040  0.78775833  1  -0.334474  -0.10734  2.029998  -0.12  -0.37673  -0.062903  2.364136  -0.072  -0.41947  -0.044052  2.370793  -0.052  -0.175559  -0.345021  -0.079053  2.358307  -0.087
S  S51  1  0.85382091  0.60745395  0.21222729  1  -0.334474  0.107341  2.029806  0.12  -0.376728  0.062889  2.363914  0.072  -0.419463  0.044049  2.370568  0.052  -0.17562  -0.345015  0.07905  2.358063  0.087
S  S52  1  0.16741607  0.11747001  0.61562261  1  0.061769  0.000885  2.583353  0.001  0.06543  -5.7e-05  2.920918  0.001  0.065583  0.000294  2.921186  0.001  0.097659  0.065126  -0.000634  2.921115  0.0
S  S53  1  0.83256616  0.88254549  0.38437965  1  0.061811  -0.000885  2.583421  -0.001  0.065446  5.7e-05  2.921048  -0.001  0.0656  -0.000294  2.921316  -0.001  0.097664  0.065135  0.000634  2.921237  0.0
N  N54  1  0.25089604  0.82806294  0.80918990  1  -0.236137  -0.047047  3.384305  -0.065  -0.202622  -0.032091  3.695902  -0.046  -0.236596  -0.026762  3.720983  -0.039  -0.261219  -0.180327  -0.03634  3.679225  -0.05
N  N55  1  0.74911433  0.17193352  0.19081193  1  -0.235845  0.047054  3.384312  0.065  -0.202376  0.032092  3.695948  0.046  -0.236331  0.026762  3.721013  0.039  -0.261094  -0.180087  0.036341  3.679269  0.05
N  N56  1  0.29908747  0.94608631  0.89463582  1  -0.183114  -0.001533  3.08693  -0.002  -0.15457  -0.001865  3.364538  -0.002  -0.160534  -0.001047  3.383817  -0.001  -0.201495  -0.150162  -0.002548  3.351128  -0.003
N  N57  1  0.70092537  0.05391657  0.10536554  1  -0.183269  0.001534  3.08707  0.002  -0.154716  0.001866  3.364709  0.002  -0.160686  0.001045  3.383984  0.001  -0.201562  -0.150311  0.002548  3.351299  0.003
N  N58  1  0.41555457  0.31447808  0.15045864  1  -0.256323  0.058893  3.358429  0.084  -0.210385  0.043512  3.649893  0.064  -0.242335  0.035576  3.673438  0.055  -0.324384  -0.190015  0.04907  3.635076  0.07
N  N59  1  0.58446913  0.68553239  0.84955105  1  -0.256462  -0.058887  3.358681  -0.084  -0.210423  -0.043512  3.650027  -0.064  -0.242368  -0.035574  3.673576  -0.055  -0.324479  -0.190059  -0.049071  3.635224  -0.07
N  N60  1  0.33290949  0.44029925  0.65583106  1  -0.228454  -0.048057  3.357827  -0.066  -0.19495  -0.032808  3.66285  -0.046  -0.227749  -0.02742  3.685586  -0.04  -0.25809  -0.173421  -0.037114  3.647954  -0.051
N  N61  1  0.66709660  0.55969969  0.34417410  1  -0.22833  0.048059  3.357904  0.066  -0.194802  0.032806  3.662876  0.046  -0.2276  0.027418  3.685624  0.04  -0.257993  -0.173272  0.037113  3.647971  0.051
N  N62  1  0.38461059  0.38025541  0.57666333  1  -0.168708  -0.001868  3.07748  -0.002  -0.139522  -0.002167  3.354944  -0.003  -0.143924  -0.001426  3.37214  -0.002  -0.195257  -0.13632  -0.002716  3.343078  -0.004
N  N63  1  0.61540275  0.61974870  0.42334104  1  -0.168729  0.001866  3.077652  0.002  -0.139533  0.002164  3.355117  0.003  -0.143941  0.001428  3.372319  0.002  -0.195241  -0.13633  0.002716  3.343249  0.004
N  N64  1  0.49345689  0.16304141  0.32407432  1  -0.261903  0.057409  3.352725  0.081  -0.215981  0.042839  3.647496  0.063  -0.248066  0.035259  3.671418  0.054  -0.325226  -0.195427  0.048107  3.632465  0.069
N  N65  1  0.50654197  0.83695258  0.67591895  1  -0.26191  -0.05741  3.352811  -0.081  -0.215928  -0.042835  3.647566  -0.063  -0.248017  -0.035262  3.671497  -0.054  -0.325244  -0.195376  -0.048108  3.63253  -0.069
