# generated using pymatgen
data_Zn2H13C21N3O7
_symmetry_space_group_name_H-M   'P 1'
_cell_length_a   10.07488793
_cell_length_b   10.70482970
_cell_length_c   11.13856283
_cell_angle_alpha   80.35412756
_cell_angle_beta   65.52789589
_cell_angle_gamma   63.42334246
_symmetry_Int_Tables_number   1
_chemical_formula_structural   Zn2H13C21N3O7
_chemical_formula_sum   'Zn4 H26 C42 N6 O14'
_cell_volume   977.61031546
_cell_formula_units_Z   2
loop_
 _symmetry_equiv_pos_site_id
 _symmetry_equiv_pos_as_xyz
  1  'x, y, z'
loop_
 _atom_site_type_symbol
 _atom_site_label
 _atom_site_symmetry_multiplicity
 _atom_site_fract_x
 _atom_site_fract_y
 _atom_site_fract_z
 _atom_site_occupancy
 _atom_site_hle17_bader_spin_density
 _atom_site_hle17_ddec_charge
 _atom_site_hle17_ddec_spin_density
 _atom_site_hle17_ddec_sum_bond_order
 _atom_site_hle17_magmom
 _atom_site_hse06_10hf_bader_spin_density
 _atom_site_hse06_10hf_ddec_charge
 _atom_site_hse06_10hf_ddec_spin_density
 _atom_site_hse06_10hf_ddec_sum_bond_order
 _atom_site_hse06_10hf_magmom
 _atom_site_hse06_bader_spin_density
 _atom_site_hse06_ddec_charge
 _atom_site_hse06_ddec_spin_density
 _atom_site_hse06_ddec_sum_bond_order
 _atom_site_hse06_magmom
 _atom_site_pbe_bader_spin_density
 _atom_site_pbe_cm5_charge
 _atom_site_pbe_ddec_charge
 _atom_site_pbe_ddec_spin_density
 _atom_site_pbe_ddec_sum_bond_order
 _atom_site_pbe_magmom
Zn  Zn0  1  0.81170455  0.56307050  0.57030120  1  0  1.197817  0  1.744434  0  0  1.046789  0  2.200733  0  0  1.094339  0  2.135687  0  0  0.669261  1.009203  0  2.249706  0
Zn  Zn1  1  0.18829650  0.43692991  0.42969971  1  0  1.197872  0  1.744419  0  0  1.046858  0  2.200715  0  0  1.094408  0  2.13567  0  0  0.669286  1.009271  0  2.24969  0
Zn  Zn2  1  0.07114063  0.31057941  0.71750396  1  0  1.095666  0  1.833819  0  0  0.913738  0  2.30981  0  0  0.960968  0  2.251423  0  0  0.685157  0.877897  0  2.352974  0
Zn  Zn3  1  0.92886094  0.68941994  0.28249603  1  0  1.095657  0  1.833831  0  0  0.913733  0  2.309821  0  0  0.960961  0  2.251436  0  0  0.685149  0.87789  0  2.352985  0
H  H4  1  0.56389230  0.96657184  0.59703652  1  0  0.11129  0  0.964619  0  0  0.118562  0  1.030503  0  0  0.122205  0  1.027131  0  0  0.109618  0.115919  0  1.03312  0
H  H5  1  0.43610606  0.03342964  0.40296610  1  0  0.111272  0  0.964605  0  0  0.118555  0  1.03048  0  0  0.122195  0  1.027117  0  0  0.109625  0.11592  0  1.033078  0
H  H6  1  0.59535419  0.36011175  0.56281266  1  0  0.112454  0  0.944872  0  0  0.119364  0  1.012186  0  0  0.123393  0  1.008259  0  0  0.110347  0.116455  0  1.015164  0
H  H7  1  0.40464912  0.63988860  0.43718384  1  0  0.11246  0  0.944856  0  0  0.11937  0  1.012168  0  0  0.123391  0  1.008249  0  0  0.110359  0.116463  0  1.015145  0
H  H8  1  0.94089756  0.99139465  0.66522772  1  0  0.102758  0  0.95714  0  0  0.107662  0  1.03103  0  0  0.111728  0  1.027265  0  0  0.105284  0.104763  0  1.033553  0
H  H9  1  0.05910450  0.00860366  0.33477227  1  0  0.102744  0  0.95717  0  0  0.107648  0  1.031062  0  0  0.111714  0  1.027296  0  0  0.105285  0.104749  0  1.033583  0
H  H10  1  0.28632638  0.52314748  0.68015481  1  0  0.087699  0  0.91542  0  0  0.099392  0  0.971333  0  0  0.101935  0  0.969542  0  0  0.121327  0.097419  0  0.973001  0
H  H11  1  0.71367407  0.47685189  0.31984649  1  0  0.087679  0  0.915415  0  0  0.099373  0  0.971327  0  0  0.101917  0  0.969537  0  0  0.121318  0.097399  0  0.972995  0
H  H12  1  0.44031357  0.54133595  0.79866207  1  0  0.120819  0  0.934452  0  0  0.13216  0  0.989383  0  0  0.135585  0  0.98801  0  0  0.114795  0.129722  0  0.990366  0
H  H13  1  0.55968531  0.45866447  0.20133874  1  0  0.12082  0  0.934502  0  0  0.132158  0  0.989434  0  0  0.135584  0  0.988061  0  0  0.114798  0.129721  0  0.990415  0
H  H14  1  0.41401861  0.42717318  0.02085811  1  0  0.093929  0  0.929685  0  0  0.10943  0  0.980993  0  0  0.111968  0  0.979783  0  0  0.111109  0.10762  0  0.981608  0
H  H15  1  0.58597867  0.57282830  0.97914400  1  0  0.093908  0  0.92973  0  0  0.109449  0  0.980997  0  0  0.111965  0  0.979813  0  0  0.111122  0.107638  0  0.981614  0
H  H16  1  0.23718304  0.30247508  0.11166405  1  0  0.112776  0  0.97222  0  0  0.120953  0  1.034201  0  0  0.124612  0  1.032426  0  0  0.108561  0.11844  0  1.03515  0
H  H17  1  0.76281425  0.69752639  0.88833716  1  0  0.112721  0  0.972241  0  0  0.120924  0  1.0342  0  0  0.124583  0  1.032425  0  0  0.108558  0.118412  0  1.03515  0
H  H18  1  0.78013276  0.18493043  0.86238132  1  0  0.10046  0  0.993649  0  0  0.111263  0  1.05526  0  0  0.112966  0  1.055418  0  0  0.100166  0.109749  0  1.055263  0
H  H19  1  0.21986564  0.81507102  0.13761859  1  0  0.100486  0  0.993625  0  0  0.111297  0  1.055221  0  0  0.113002  0  1.055379  0  0  0.10018  0.109782  0  1.055226  0
H  H20  1  0.61497674  0.08039992  0.04140181  1  0  0.086411  0  0.942423  0  0  0.10054  0  0.99552  0  0  0.10298  0  0.995448  0  0  0.097724  0.098973  0  0.995122  0
H  H21  1  0.38502216  0.91960048  0.95859809  1  0  0.086399  0  0.942424  0  0  0.100535  0  0.995521  0  0  0.102975  0  0.995449  0  0  0.097705  0.098965  0  0.995124  0
H  H22  1  0.63939869  0.03141137  0.25835284  1  0  0.095195  0  0.979938  0  0  0.104429  0  1.043643  0  0  0.107007  0  1.042245  0  0  0.09897  0.102341  0  1.045148  0
H  H23  1  0.36060120  0.96858694  0.74164704  1  0  0.0952  0  0.979931  0  0  0.104429  0  1.043648  0  0  0.107007  0  1.042248  0  0  0.098962  0.102342  0  1.045155  0
H  H24  1  0.81925854  0.09544712  0.30854429  1  0  0.116236  0  0.950009  0  0  0.127946  0  1.007327  0  0  0.130132  0  1.007237  0  0  0.108105  0.126063  0  1.007885  0
H  H25  1  0.18073978  0.90455224  0.69145511  1  0  0.116246  0  0.949967  0  0  0.127953  0  1.007283  0  0  0.130139  0  1.007193  0  0  0.108107  0.126071  0  1.007843  0
H  H26  1  0.03391384  0.22996658  0.18817457  1  0  0.32353  0  0.93491  0  0  0.300636  0  1.001666  0  0  0.309548  0  0.994256  0  0  0.309517  0.294107  0  1.007242  0
H  H27  1  0.96608553  0.77003279  0.81182622  1  0  0.32348  0  0.934985  0  0  0.300632  0  1.001669  0  0  0.309545  0  0.994256  0  0  0.309518  0.294105  0  1.007245  0
H  H28  1  0.00857077  0.56847339  0.65371892  1  0  0.41192  0  0.902553  0  0  0.377071  0  0.974102  0  0  0.388711  0  0.957402  0  0  0.276921  0.368076  0  0.987059  0
H  H29  1  0.99142924  0.43152699  0.34627968  1  0  0.411922  0  0.902552  0  0  0.377068  0  0.974106  0  0  0.388708  0  0.957406  0  0  0.276916  0.368072  0  0.987064  0
C  C30  1  0.81999527  0.80840623  0.65517396  1  0  0.669149  0  3.874092  0  0  0.614599  0  4.169193  0  0  0.649285  0  4.161445  0  0  0.218926  0.591142  0  4.173116  0
C  C31  1  0.18000524  0.19159311  0.34482463  1  0  0.669143  0  3.874029  0  0  0.614578  0  4.169168  0  0  0.649264  0  4.161418  0  0  0.218927  0.591121  0  4.173089  0
C  C32  1  0.75911841  0.96243122  0.63231602  1  0  -0.076421  0  3.756976  0  0  -0.050984  0  3.996537  0  0  -0.061975  0  4.019376  0  0  -0.019315  -0.043473  0  3.980535  0
C  C33  1  0.24088266  0.03756918  0.36768398  1  0  -0.076314  0  3.756877  0  0  -0.050906  0  3.996476  0  0  -0.061895  0  4.019311  0  0  -0.019292  -0.043394  0  3.980472  0
C  C34  1  0.62197234  0.02875349  0.60209941  1  0  -0.031431  0  3.655531  0  0  -0.070542  0  3.899611  0  0  -0.064551  0  3.915405  0  0  -0.065045  -0.075026  0  3.889696  0
C  C35  1  0.37802704  0.97124587  0.39790139  1  0  -0.031444  0  3.655512  0  0  -0.070557  0  3.899596  0  0  -0.064568  0  3.915391  0  0  -0.065056  -0.07504  0  3.889683  0
C  C36  1  0.56235403  0.17136511  0.57625628  1  0  -0.070445  0  3.754244  0  0  -0.042222  0  3.989673  0  0  -0.052962  0  4.012607  0  0  -0.015469  -0.035313  0  3.975287  0
C  C37  1  0.43764753  0.82863424  0.42374372  1  0  -0.070513  0  3.754294  0  0  -0.042271  0  3.989698  0  0  -0.053012  0  4.012631  0  0  -0.015462  -0.035362  0  3.975317  0
C  C38  1  0.40747071  0.24261058  0.55550351  1  0  0.664574  0  3.885732  0  0  0.609562  0  4.180979  0  0  0.6446  0  4.174187  0  0  0.216285  0.585577  0  4.184774  0
C  C39  1  0.59253028  0.75738772  0.44449597  1  0  0.66457  0  3.885794  0  0  0.609568  0  4.181025  0  0  0.644607  0  4.174233  0  0  0.216265  0.585578  0  4.184829  0
C  C40  1  0.64051955  0.24866331  0.58179565  1  0  -0.05228  0  3.680746  0  0  -0.092197  0  3.929395  0  0  -0.087142  0  3.947008  0  0  -0.069669  -0.095859  0  3.918886  0
C  C41  1  0.35948268  0.75133703  0.41820035  1  0  -0.052218  0  3.680669  0  0  -0.092138  0  3.929321  0  0  -0.087076  0  3.946938  0  0  -0.069681  -0.0958  0  3.918814  0
C  C42  1  0.77407371  0.18469145  0.61741352  1  0  -0.08294  0  3.75986  0  0  -0.056504  0  4.000191  0  0  -0.068109  0  4.024024  0  0  -0.021631  -0.049342  0  3.984463  0
C  C43  1  0.22592631  0.81530892  0.38258418  1  0  -0.082999  0  3.759842  0  0  -0.056576  0  4.0002  0  0  -0.068183  0  4.024028  0  0  -0.021656  -0.049414  0  3.984473  0
C  C44  1  0.84287825  0.27418849  0.63742987  1  0  0.670588  0  3.884971  0  0  0.615427  0  4.180178  0  0  0.651085  0  4.172011  0  0  0.217882  0.590999  0  4.18448  0
C  C45  1  0.15712333  0.72581085  0.36256922  1  0  0.670663  0  3.884948  0  0  0.615498  0  4.180153  0  0  0.651162  0  4.171979  0  0  0.21792  0.59107  0  4.184457  0
C  C46  1  0.83499876  0.04104613  0.64049537  1  0  -0.052581  0  3.682729  0  0  -0.092954  0  3.936755  0  0  -0.087487  0  3.953933  0  0  -0.070826  -0.095086  0  3.924082  0
C  C47  1  0.16500120  0.95895429  0.35950594  1  0  -0.05259  0  3.68274  0  0  -0.092949  0  3.936776  0  0  -0.08748  0  3.953952  0  0  -0.07082  -0.095082  0  3.924102  0
C  C48  1  0.27859333  0.47536131  0.77607198  1  0  0.141572  0  3.689873  0  0  0.112332  0  3.952665  0  0  0.118063  0  3.969077  0  0  0.052422  0.108221  0  3.941757  0
C  C49  1  0.72140555  0.52463910  0.22392882  1  0  0.141605  0  3.689856  0  0  0.112364  0  3.952647  0  0  0.118095  0  3.969061  0  0  0.052425  0.108254  0  3.941736  0
C  C50  1  0.36400231  0.48580494  0.84301713  1  0  -0.1033  0  3.697019  0  0  -0.122159  0  3.956216  0  0  -0.126295  0  3.975473  0  0  -0.075835  -0.11898  0  3.942424  0
C  C51  1  0.63599546  0.51419549  0.15698498  1  0  -0.103332  0  3.697003  0  0  -0.122183  0  3.956206  0  0  -0.126319  0  3.975455  0  0  -0.075861  -0.119003  0  3.942409  0
C  C52  1  0.34970480  0.42209665  0.96487604  1  0  0.000183  0  3.715412  0  0  -0.016789  0  3.965926  0  0  -0.014616  0  3.984037  0  0  -0.062713  -0.017535  0  3.95179  0
C  C53  1  0.65029249  0.57790482  0.03512517  1  0  0.00019  0  3.715452  0  0  -0.016823  0  3.965996  0  0  -0.014632  0  3.984108  0  0  -0.062721  -0.017569  0  3.951859  0
C  C54  1  0.25150642  0.35097525  0.01582166  1  0  -0.129337  0  3.68343  0  0  -0.14976  0  3.929114  0  0  -0.15399  0  3.947851  0  0  -0.079874  -0.146561  0  3.914841  0
C  C55  1  0.74849086  0.64902622  0.98417955  1  0  -0.129224  0  3.683444  0  0  -0.149657  0  3.92915  0  0  -0.153884  0  3.947878  0  0  -0.079851  -0.146458  0  3.914878  0
C  C56  1  0.17078085  0.34548331  0.94165569  1  0  0.135784  0  3.813401  0  0  0.139417  0  4.056484  0  0  0.142396  0  4.076756  0  0  0.114442  0.137885  0  4.041505  0
C  C57  1  0.82921803  0.65451710  0.05834511  1  0  0.13575  0  3.813392  0  0  0.139334  0  4.056551  0  0  0.142321  0  4.07683  0  0  0.114428  0.137801  0  4.041574  0
C  C58  1  0.06209283  0.27662997  0.98546319  1  0  0.327673  0  3.750598  0  0  0.288764  0  4.021501  0  0  0.305903  0  4.0348  0  0  0.229287  0.277623  0  4.011355  0
C  C59  1  0.93790766  0.72336938  0.01453630  1  0  0.327678  0  3.750628  0  0  0.288786  0  4.021532  0  0  0.305895  0  4.034868  0  0  0.229296  0.277647  0  4.011385  0
C  C60  1  0.90258069  0.17513828  0.11104397  1  0  0.155253  0  3.796313  0  0  0.147481  0  4.04121  0  0  0.15107  0  4.064881  0  0  0.09874  0.144065  0  4.025521  0
C  C61  1  0.09741771  0.82486317  0.88895594  1  0  0.155291  0  3.796243  0  0  0.147505  0  4.041154  0  0  0.151096  0  4.064823  0  0  0.09872  0.144089  0  4.025469  0
C  C62  1  0.89359738  0.20026153  0.98474856  1  0  0.155564  0  3.818251  0  0  0.153223  0  4.061443  0  0  0.155802  0  4.086982  0  0  0.089907  0.151144  0  4.043104  0
C  C63  1  0.10640248  0.79973681  0.01525313  1  0  0.155588  0  3.818245  0  0  0.153251  0  4.061426  0  0  0.155831  0  4.086963  0  0  0.089937  0.151172  0  4.043087  0
C  C64  1  0.78914399  0.16644810  0.95807765  1  0  -0.149799  0  3.756797  0  0  -0.169438  0  4.007633  0  0  -0.17222  0  4.030006  0  0  -0.098075  -0.166495  0  3.9911  0
C  C65  1  0.21085541  0.83355126  0.04192224  1  0  -0.149847  0  3.756827  0  0  -0.169484  0  4.007653  0  0  -0.172267  0  4.030025  0  0  -0.098073  -0.166539  0  3.991115  0
C  C66  1  0.69787042  0.10736879  0.05899430  1  0  -0.076192  0  3.788748  0  0  -0.094409  0  4.048266  0  0  -0.097578  0  4.071831  0  0  -0.099966  -0.092327  0  4.031727  0
C  C67  1  0.30212848  0.89263161  0.94100560  1  0  -0.076145  0  3.78873  0  0  -0.094371  0  4.048239  0  0  -0.097542  0  4.071807  0  0  -0.099943  -0.092288  0  4.031699  0
C  C68  1  0.70959556  0.08122840  0.18340581  1  0  -0.044305  0  3.744802  0  0  -0.063923  0  4.003181  0  0  -0.065231  0  4.025336  0  0  -0.091845  -0.063569  0  3.989004  0
C  C69  1  0.29040493  0.91877095  0.81659368  1  0  -0.044314  0  3.744811  0  0  -0.063931  0  4.003191  0  0  -0.065239  0  4.025347  0  0  -0.091837  -0.063577  0  3.989014  0
C  C70  1  0.81147389  0.11518214  0.21206529  1  0  -0.145852  0  3.721541  0  0  -0.164157  0  3.972531  0  0  -0.167548  0  3.993127  0  0  -0.092341  -0.161351  0  3.958651  0
C  C71  1  0.18852660  0.88481721  0.78793420  1  0  -0.145885  0  3.721501  0  0  -0.164184  0  3.972497  0  0  -0.167575  0  3.993094  0  0  -0.092342  -0.161376  0  3.958618  0
N  N72  1  0.99566639  0.26279478  0.90868333  1  0  -0.482732  0  3.227067  0  0  -0.410268  0  3.522314  0  0  -0.432999  0  3.533218  0  0  -0.346322  -0.394276  0  3.514085  0
N  N73  1  0.00433301  0.73720458  0.09131657  1  0  -0.482742  0  3.227081  0  0  -0.410288  0  3.522333  0  0  -0.43301  0  3.533248  0  0  -0.346341  -0.394295  0  3.514101  0
N  N74  1  0.01039562  0.22362998  0.10681664  1  0  -0.37305  0  3.365227  0  0  -0.313798  0  3.597974  0  0  -0.332476  0  3.611428  0  0  -0.368556  -0.302096  0  3.590098  0
N  N75  1  0.98960487  0.77636936  0.89318286  1  0  -0.373053  0  3.365294  0  0  -0.313822  0  3.598009  0  0  -0.33249  0  3.61147  0  0  -0.368563  -0.30212  0  3.590128  0
N  N76  1  0.18487192  0.40665849  0.82325073  1  0  -0.354485  0  3.163088  0  0  -0.302399  0  3.426184  0  0  -0.316095  0  3.443027  0  0  -0.309742  -0.292881  0  3.414312  0
N  N77  1  0.81512795  0.59333983  0.17675006  1  0  -0.354489  0  3.16309  0  0  -0.302384  0  3.42619  0  0  -0.316077  0  3.443029  0  0  -0.309729  -0.292866  0  3.414317  0
O  O78  1  0.73559785  0.74985994  0.65154105  1  0  -0.654541  0  2.06751  0  0  -0.5865  0  2.336508  0  0  -0.614197  0  2.321526  0  0  -0.322154  -0.56601  0  2.346793  0
O  O79  1  0.26440203  0.25013839  0.34845974  1  0  -0.654567  0  2.067432  0  0  -0.586526  0  2.336433  0  0  -0.614221  0  2.32145  0  0  -0.322182  -0.56604  0  2.346718  0
O  O80  1  0.94885650  0.74457443  0.67769625  1  0  -0.639526  0  2.002971  0  0  -0.578193  0  2.225054  0  0  -0.602789  0  2.21547  0  0  -0.318361  -0.560287  0  2.231051  0
O  O81  1  0.05114293  0.25542491  0.32230184  1  0  -0.639552  0  2.002954  0  0  -0.578183  0  2.225048  0  0  -0.602778  0  2.215465  0  0  -0.318349  -0.560276  0  2.231043  0
O  O82  1  0.38637688  0.34988442  0.48403182  1  0  -0.626889  0  2.013483  0  0  -0.565772  0  2.272733  0  0  -0.5936  0  2.259527  0  0  -0.309063  -0.545286  0  2.281207  0
O  O83  1  0.61362472  0.65011490  0.51596638  1  0  -0.626869  0  2.01355  0  0  -0.565748  0  2.272777  0  0  -0.593575  0  2.259571  0  0  -0.309039  -0.54526  0  2.28125  0
O  O84  1  0.30561535  0.19023816  0.61691118  1  0  -0.644695  0  2.07467  0  0  -0.573706  0  2.34829  0  0  -0.602403  0  2.334968  0  0  -0.317034  -0.552448  0  2.357827  0
O  O85  1  0.69438683  0.80976221  0.38308752  1  0  -0.644686  0  2.074595  0  0  -0.573725  0  2.348226  0  0  -0.602422  0  2.334906  0  0  -0.317049  -0.552465  0  2.357766  0
O  O86  1  0.98002397  0.21449424  0.64552161  1  0  -0.621776  0  2.037615  0  0  -0.549685  0  2.3008  0  0  -0.576761  0  2.287562  0  0  -0.309377  -0.529744  0  2.3104  0
O  O87  1  0.01997760  0.78550511  0.35447838  1  0  -0.621797  0  2.037618  0  0  -0.549701  0  2.300824  0  0  -0.576779  0  2.287583  0  0  -0.309382  -0.52976  0  2.310425  0
O  O88  1  0.75251887  0.40534018  0.65063622  1  0  -0.662503  0  2.072951  0  0  -0.595734  0  2.348749  0  0  -0.62259  0  2.330552  0  0  -0.326593  -0.575366  0  2.361179  0
O  O89  1  0.24748210  0.59465814  0.34936417  1  0  -0.662536  0  2.072963  0  0  -0.595781  0  2.348778  0  0  -0.622635  0  2.330573  0  0  -0.326614  -0.575415  0  2.361217  0
O  O90  1  0.01833759  0.48380042  0.61830105  1  0  -1.014232  0  2.018325  0  0  -0.908669  0  2.33475  0  0  -0.942693  0  2.290075  0  0  -0.574969  -0.884121  0  2.367728  0
O  O91  1  0.98166352  0.51619996  0.38169715  1  0  -1.014215  0  2.018336  0  0  -0.908654  0  2.33478  0  0  -0.94268  0  2.290101  0  0  -0.574943  -0.884105  0  2.367759  0
