# generated using pymatgen
data_Zn3H40(C3O)12
_symmetry_space_group_name_H-M   'P 1'
_cell_length_a   18.70684517
_cell_length_b   18.76597546
_cell_length_c   18.88235032
_cell_angle_alpha   109.53293404
_cell_angle_beta   109.49544914
_cell_angle_gamma   109.34040770
_symmetry_Int_Tables_number   1
_chemical_formula_structural   Zn3H40(C3O)12
_chemical_formula_sum   'Zn6 H80 C72 O24'
_cell_volume   5105.58003119
_cell_formula_units_Z   2
loop_
 _symmetry_equiv_pos_site_id
 _symmetry_equiv_pos_as_xyz
  1  'x, y, z'
loop_
 _atom_site_type_symbol
 _atom_site_label
 _atom_site_symmetry_multiplicity
 _atom_site_fract_x
 _atom_site_fract_y
 _atom_site_fract_z
 _atom_site_occupancy
 _atom_site_pbe_bader_charge
 _atom_site_pbe_bader_spin_density
 _atom_site_pbe_cm5_charge
 _atom_site_pbe_ddec_charge
 _atom_site_pbe_ddec_spin_density
 _atom_site_pbe_ddec_sum_bond_order
 _atom_site_pbe_magmom
Zn  Zn0  1  0.55763669  0.99948959  0.05937539  1  1.292798  0  0.727106  0.957478  0  2.104521  0
Zn  Zn1  1  0.44235883  0.00049643  0.94062795  1  1.29113  0  0.727263  0.957661  0  2.104433  0
Zn  Zn2  1  0.99970769  0.44158376  0.94062481  1  1.293167  0  0.726065  0.95957  0  2.102331  0
Zn  Zn3  1  0.00026922  0.55838722  0.05934856  1  1.289859  0  0.726087  0.959497  0  2.102236  0
Zn  Zn4  1  0.55963436  0.55952789  0.50137274  1  1.28913  0  0.72644  0.958769  0  2.098919  0
Zn  Zn5  1  0.44034131  0.44044829  0.49862337  1  1.294404  0  0.726491  0.958829  0  2.099189  0
H  H6  1  0.40215520  0.60008460  0.30327547  1  0.021306  0  0.090613  0.090954  0  0.988826  0
H  H7  1  0.90073918  0.28138550  0.06862676  1  0.019263  0  0.087881  0.081199  0  0.991608  0
H  H8  1  0.30503176  0.90455686  0.09590928  1  0.027462  0  0.086232  0.084543  0  1.016265  0
H  H9  1  0.69496490  0.09543387  0.90409617  1  0.027119  0  0.086192  0.084523  0  1.016341  0
H  H10  1  0.19387721  0.79805802  0.09306617  1  0.033855  0  0.088393  0.086298  0  0.996557  0
H  H11  1  0.80611329  0.20193201  0.90693338  1  0.033285  0  0.088353  0.086234  0  0.996493  0
H  H12  1  0.59337573  0.79320336  0.89779197  1  0.040382  0  0.097708  0.071337  0  0.980093  0
H  H13  1  0.40662328  0.20678893  0.10221439  1  0.040531  0  0.097786  0.071465  0  0.980064  0
H  H14  1  0.64021412  0.76299299  0.76012050  1  0.031348  0  0.092666  0.095243  0  1.008061  0
H  H15  1  0.35979250  0.23699560  0.23988997  1  0.031303  0  0.0926  0.095135  0  1.008203  0
H  H16  1  0.59576185  0.68979926  0.79287632  1  0.03839  0  0.092023  0.092203  0  0.980929  0
H  H17  1  0.59819745  0.40322973  0.70017486  1  0.024814  0  0.090622  0.091119  0  0.988404  0
H  H18  1  0.40423495  0.31019121  0.20713082  1  0.038786  0  0.092104  0.092364  0  0.980793  0
H  H19  1  0.29379491  0.59933243  0.19573043  1  0.018327  0  0.089147  0.083408  0  0.984754  0
H  H20  1  0.70671917  0.40365056  0.80719585  1  0.023216  0  0.089101  0.082784  0  0.98406  0
H  H21  1  0.43945062  0.71650793  0.83640193  1  0.022007  0  0.090705  0.087133  0  0.986995  0
H  H22  1  0.56055030  0.28348474  0.16360220  1  0.022044  0  0.090755  0.087258  0  0.986886  0
H  H23  1  0.43070067  0.60358801  0.72575576  1  0.043099  0  0.090873  0.091267  0  0.982725  0
H  H24  1  0.56929842  0.39640593  0.27424575  1  0.042867  0  0.090934  0.091352  0  0.982657  0
H  H25  1  0.43013057  0.82919873  0.70961485  1  0.042693  0  0.092182  0.096318  0  0.987307  0
H  H26  1  0.56987012  0.17079055  0.29038656  1  0.042398  0  0.09219  0.096343  0  0.987374  0
H  H27  1  0.54294842  0.89434973  0.75359729  1  0.019506  0  0.089727  0.087311  0  0.999935  0
H  H28  1  0.20535245  0.82767908  0.93140804  1  0.045297  0  0.087062  0.086695  0  1.017314  0
H  H29  1  0.45705143  0.10564616  0.24640942  1  0.019378  0  0.089679  0.08729  0  0.999974  0
H  H30  1  0.54396137  0.78291159  0.64965857  1  0.026659  0  0.089932  0.088969  0  1.000562  0
H  H31  1  0.45605232  0.21708858  0.35035565  1  0.02685  0  0.089954  0.088992  0  1.000438  0
H  H32  1  0.42916850  0.72299230  0.60017605  1  0.032241  0  0.089291  0.084802  0  0.979967  0
H  H33  1  0.57084688  0.27700848  0.39982968  1  0.032313  0  0.089238  0.084695  0  0.979977  0
H  H34  1  0.37041902  0.73032019  0.75797504  1  0.040504  0  0.092754  0.092538  0  0.981549  0
H  H35  1  0.62958038  0.26967290  0.24203016  1  0.040685  0  0.092779  0.092572  0  0.981743  0
H  H36  1  0.36164735  0.61716902  0.64791237  1  0.017263  0  0.090833  0.08949  0  0.978576  0
H  H37  1  0.63835425  0.38282654  0.35209140  1  0.017307  0  0.090815  0.089457  0  0.978557  0
H  H38  1  0.20682571  0.42637446  0.32780644  1  0.044755  0  0.090848  0.092369  0  0.990977  0
H  H39  1  0.79464345  0.17230642  0.06859544  1  0.044985  0  0.08704  0.086623  0  1.017157  0
H  H40  1  0.79216716  0.56999514  0.66899647  1  0.036861  0  0.091013  0.092362  0  0.991305  0
H  H41  1  0.09742956  0.41942139  0.21522741  1  0.026452  0  0.089067  0.083578  0  0.983652  0
H  H42  1  0.90198585  0.57769190  0.78188935  1  0.038927  0  0.089019  0.083718  0  0.983814  0
H  H43  1  0.25729253  0.63783184  0.26767507  1  0.024919  0  0.091746  0.092394  0  0.986841  0
H  H44  1  0.74089744  0.36222450  0.73400161  1  0.024745  0  0.091666  0.091128  0  0.985767  0
H  H45  1  0.14080370  0.53286360  0.27700041  1  0.024746  0  0.091471  0.092795  0  0.989442  0
H  H46  1  0.85713179  0.46382502  0.72162348  1  0.045331  0  0.09134  0.092444  0  0.991006  0
H  H47  1  0.25085288  0.53983253  0.38913957  1  0.02121  0  0.088323  0.082453  0  0.981102  0
H  H48  1  0.74634795  0.45603255  0.60946902  1  0.009285  0  0.088191  0.08234  0  0.982389  0
H  H49  1  0.36955134  0.64354960  0.37669477  1  0.020896  0  0.089523  0.085602  0  0.980678  0
H  H50  1  0.21643688  0.74777198  0.86132959  1  0.021367  0  0.08814  0.08522  0  0.983087  0
H  H51  1  0.62811019  0.35646554  0.62548615  1  0.041376  0  0.089797  0.085949  0  0.980878  0
H  H52  1  0.23155968  0.43617873  0.10550941  1  0.020879  0  0.09061  0.089293  0  0.983119  0
H  H53  1  0.77119658  0.56735682  0.89526847  1  0.042557  0  0.090693  0.089605  0  0.983955  0
H  H54  1  0.14951750  0.36214844  0.11118043  1  0.039866  0  0.090379  0.088281  0  0.981761  0
H  H55  1  0.85313697  0.63913361  0.88765120  1  0.006192  0  0.090321  0.087793  0  0.981715  0
H  H56  1  0.25562865  0.36588217  0.22395182  1  0.009183  0  0.092158  0.091565  0  0.980981  0
H  H57  1  0.74711538  0.63520538  0.77458735  1  0.026396  0  0.092139  0.091126  0  0.980134  0
H  H58  1  0.33777925  0.43727095  0.21540026  1  0.014988  0  0.089691  0.08474  0  0.985787  0
H  H59  1  0.66524200  0.56679885  0.78566038  1  6.8e-05  0  0.089704  0.084004  0  0.985861  0
H  H60  1  0.39450643  0.75724221  0.03750972  1  0.052175  0  0.09056  0.091713  0  0.99202  0
H  H61  1  0.78356495  0.25221710  0.13867877  1  0.021219  0  0.088159  0.085223  0  0.98297  0
H  H62  1  0.60549342  0.24275040  0.96250021  1  0.05211  0  0.090561  0.091714  0  0.992071  0
H  H63  1  0.32526427  0.70292515  0.92402706  1  0.033162  0  0.087611  0.081796  0  0.985333  0
H  H64  1  0.67473299  0.29706518  0.07598449  1  0.033294  0  0.087592  0.081797  0  0.985136  0
H  H65  1  0.22397393  0.59831304  0.93329086  1  0.032029  0  0.090342  0.091924  0  0.992263  0
H  H66  1  0.77602835  0.40168052  0.06672522  1  0.031909  0  0.090392  0.091988  0  0.992253  0
H  H67  1  0.29145075  0.65449982  0.04696682  1  0.008465  0  0.087973  0.082016  0  0.982584  0
H  H68  1  0.70854954  0.34549793  0.95305019  1  0.008984  0  0.087943  0.081987  0  0.982757  0
H  H69  1  0.37887943  0.87036779  0.13713934  1  0.053365  0  0.090199  0.090039  0  0.984912  0
H  H70  1  0.62111517  0.12962119  0.86286826  1  0.053437  0  0.090174  0.090099  0  0.984903  0
H  H71  1  0.26943669  0.76986743  0.14278643  1  0.023167  0  0.088726  0.084731  0  0.980646  0
H  H72  1  0.11357533  0.63856125  0.86490760  1  0.025663  0  0.09055  0.088909  0  0.983014  0
H  H73  1  0.73055001  0.23012314  0.85721626  1  0.023333  0  0.088743  0.084752  0  0.980727  0
H  H74  1  0.70870429  0.91219677  0.02027553  1  0.05078  0  0.097402  0.097324  0  1.006403  0
H  H75  1  0.85201775  0.04741716  0.09889483  1  0.037658  0  0.099149  0.092912  0  0.99557  0
H  H76  1  0.90496861  0.11059986  0.01713888  1  0.038083  0  0.099009  0.093722  0  0.998658  0
H  H77  1  0.81306117  0.03580152  0.85629092  1  0.036205  0  0.099255  0.093894  0  0.995755  0
H  H78  1  0.67217030  0.89976796  0.77825876  1  0.01169  0  0.099484  0.098255  0  1.020862  0
H  H79  1  0.29129533  0.08779312  0.97973102  1  0.051126  0  0.097429  0.097343  0  1.006361  0
H  H80  1  0.14798370  0.95257309  0.90111274  1  0.037665  0  0.099109  0.092836  0  0.995581  0
H  H81  1  0.09503223  0.88939148  0.98286978  1  0.038064  0  0.099007  0.093818  0  0.998775  0
H  H82  1  0.18694035  0.96419172  0.14371834  1  0.035985  0  0.099187  0.093866  0  0.995829  0
H  H83  1  0.88642970  0.36142114  0.13509796  1  0.025108  0  0.090629  0.08904  0  0.982859  0
H  H84  1  0.32782985  0.10022442  0.22174639  1  0.011558  0  0.099478  0.098216  0  1.020794  0
H  H85  1  0.09925315  0.71859468  0.93136814  1  0.019845  0  0.087843  0.081193  0  0.991367  0
C  C86  1  0.50539667  0.88415522  0.88142563  1  1.540633  0  0.227003  0.597071  0  4.095289  0
C  C87  1  0.75860125  0.22188767  0.91320148  1  -0.02735  0  -0.162804  -0.170601  0  3.877235  0
C  C88  1  0.14852781  0.70139517  0.92516072  1  -0.02693  0  -0.156606  -0.170926  0  3.851379  0
C  C89  1  0.85147037  0.29858955  0.07484132  1  -0.025538  0  -0.156868  -0.171255  0  3.851337  0
C  C90  1  0.59377667  0.81154941  0.84836210  1  0.016438  0  -0.077028  -0.042842  0  3.783747  0
C  C91  1  0.40622379  0.18844408  0.15164481  1  0.016648  0  -0.077068  -0.042818  0  3.783797  0
C  C92  1  0.58754589  0.73700138  0.77353480  1  -0.028927  0  -0.155454  -0.207391  0  3.828936  0
C  C93  1  0.41245282  0.26299046  0.22646915  1  -0.029365  0  -0.155464  -0.207445  0  3.829027  0
C  C94  1  0.43076486  0.72680117  0.78076188  1  -0.03713  0  -0.156606  -0.176078  0  3.857071  0
C  C95  1  0.56923454  0.27319290  0.21924235  1  -0.037454  0  -0.15672  -0.176362  0  3.857404  0
C  C96  1  0.49239126  0.82952012  0.73332902  1  -0.026274  0  -0.164434  -0.178817  0  3.879584  0
C  C97  1  0.49460319  0.11583737  0.11857648  1  1.540695  0  0.226904  0.596998  0  4.095285  0
C  C98  1  0.50761141  0.17047156  0.26667282  1  -0.025887  0  -0.16437  -0.178864  0  3.879546  0
C  C99  1  0.50828292  0.81614183  0.81207199  1  0.041412  0  -0.01126  0.003929  0  3.763449  0
C  C100  1  0.49171671  0.18385167  0.18793102  1  0.041484  0  -0.011262  0.003993  0  3.763213  0
C  C101  1  0.38069654  0.87838026  0.99825733  1  1.531882  0  0.228939  0.599611  0  4.076659  0
C  C102  1  0.61929943  0.12160562  0.00175042  1  1.531598  0  0.229044  0.599674  0  4.076762  0
C  C103  1  0.49888025  0.68953758  0.68935181  1  0.036903  0  -0.01756  0.027171  0  3.815913  0
C  C104  1  0.50112151  0.31045772  0.31065365  1  0.036953  0  -0.017547  0.02719  0  3.816106  0
C  C105  1  0.42513318  0.65212044  0.70762148  1  -0.023021  0  -0.162946  -0.173304  0  3.886462  0
C  C106  1  0.57486713  0.34787496  0.29238213  1  -0.022888  0  -0.162922  -0.173237  0  3.886472  0
C  C107  1  0.49047647  0.75660809  0.66204826  1  -0.027652  0  -0.159841  -0.173652  0  3.868451  0
C  C108  1  0.21805419  0.77329802  0.92372830  1  -0.0207  0  -0.164664  -0.174806  0  3.873802  0
C  C109  1  0.50953548  0.24339239  0.33796107  1  -0.027861  0  -0.159808  -0.173528  0  3.868335  0
C  C110  1  0.31019231  0.50295885  0.31295983  1  0.047465  0  -0.016998  0.02455  0  3.80719  0
C  C111  1  0.68975913  0.49714223  0.68717080  1  0.048172  0  -0.016815  0.024689  0  3.806707  0
C  C112  1  0.11880277  0.49783149  0.11880553  1  1.542469  0  0.226812  0.596123  0  4.090656  0
C  C113  1  0.88139852  0.50233584  0.88114556  1  1.544171  0  0.226778  0.597018  0  4.089607  0
C  C114  1  0.12212931  0.61975493  0.00205208  1  1.533674  0  0.227212  0.595622  0  4.088868  0
C  C115  1  0.87786697  0.38023367  0.99794799  1  1.534557  0  0.227287  0.596015  0  4.088231  0
C  C116  1  0.61967446  0.49792819  0.61772430  1  1.536823  0  0.227303  0.59533  0  4.090795  0
C  C117  1  0.38027618  0.50212011  0.38236011  1  1.535684  0  0.227798  0.595597  0  4.090538  0
C  C118  1  0.49847904  0.61898629  0.61923251  1  1.539033  0  0.227117  0.597409  0  4.088198  0
C  C119  1  0.78194422  0.22668910  0.07627744  1  -0.02058  0  -0.164525  -0.174646  0  3.87314  0
C  C120  1  0.50151199  0.38100296  0.38076886  1  1.538042  0  0.227185  0.597215  0  4.088772  0
C  C121  1  0.15776821  0.48301103  0.25162119  1  -0.022617  0  -0.159153  -0.172742  0  3.861021  0
C  C122  1  0.84124701  0.51467735  0.74680787  1  -0.054622  0  -0.159534  -0.171945  0  3.862276  0
C  C123  1  0.20967431  0.42596230  0.15026642  1  -0.021992  0  -0.162397  -0.172925  0  3.878688  0
C  C124  1  0.79239086  0.57590058  0.84958423  1  -0.002599  0  -0.162683  -0.173353  0  3.88072  0
C  C125  1  0.34548271  0.58939772  0.31264430  1  -0.001478  0  -0.162255  -0.172671  0  3.877383  0
C  C126  1  0.65384802  0.41184292  0.68936901  1  -0.022323  0  -0.163043  -0.174551  0  3.881263  0
C  C127  1  0.28053356  0.42772422  0.22383899  1  -0.007483  0  -0.156183  -0.172482  0  3.853006  0
C  C128  1  0.72157297  0.57418601  0.77604597  1  -0.01093  0  -0.155936  -0.169872  0  3.849326  0
C  C129  1  0.23023690  0.48705528  0.32564635  1  -0.033456  0  -0.160987  -0.172263  0  3.871545  0
C  C130  1  0.30977567  0.80793467  0.99716144  1  0.042388  0  -0.016055  0.027544  0  3.803956  0
C  C131  1  0.76846627  0.51024962  0.67272208  1  -0.011294  0  -0.160925  -0.172959  0  3.871808  0
C  C132  1  0.18863042  0.49723400  0.18865743  1  0.040585  0  -0.01737  0.026174  0  3.802354  0
C  C133  1  0.81167411  0.50306886  0.81131334  1  0.032608  0  -0.016894  0.024935  0  3.804484  0
C  C134  1  0.27282679  0.58723653  0.24052299  1  -0.021436  0  -0.158465  -0.174502  0  3.858395  0
C  C135  1  0.72672576  0.41397760  0.76124542  1  -0.031564  0  -0.15802  -0.171285  0  3.855875  0
C  C136  1  0.32775528  0.73151437  0.98669636  1  -0.045335  0  -0.160211  -0.175072  0  3.868715  0
C  C137  1  0.67224176  0.26847158  0.01331342  1  -0.044748  0  -0.160184  -0.175195  0  3.868389  0
C  C138  1  0.25943458  0.66245659  0.99183341  1  -0.011721  0  -0.161113  -0.171493  0  3.868882  0
C  C139  1  0.74056610  0.33753570  0.00818074  1  -0.012143  0  -0.161043  -0.171345  0  3.868503  0
C  C140  1  0.31348718  0.84734887  0.08548637  1  -0.047192  0  -0.160636  -0.173978  0  3.845039  0
C  C141  1  0.69021969  0.19205360  0.00284611  1  0.042043  0  -0.016008  0.027834  0  3.803468  0
C  C142  1  0.68650566  0.15264110  0.91452352  1  -0.04633  0  -0.160532  -0.174119  0  3.845045  0
C  C143  1  0.67901120  0.89639435  0.89388198  1  -0.065315  0  -0.010974  0.089601  0  3.926076  0
C  C144  1  0.73173034  0.93950192  0.98434692  1  -0.01488  0  -0.095083  -0.130781  0  3.991395  0
C  C145  1  0.81224786  0.01575470  0.02855932  1  -0.022433  0  -0.096931  -0.084584  0  4.054191  0
C  C146  1  0.84193098  0.05115099  0.98289536  1  -0.041955  0  -0.099123  -0.100758  0  4.052315  0
C  C147  1  0.79036565  0.00913500  0.89279211  1  -0.022532  0  -0.097666  -0.088973  0  4.061437  0
C  C148  1  0.71007770  0.93245515  0.84885289  1  -0.045353  0  -0.096451  -0.14635  0  3.991347  0
C  C149  1  0.32098827  0.10359744  0.10612128  1  -0.065351  0  -0.01105  0.089527  0  3.926257  0
C  C150  1  0.26826837  0.06048926  0.01565768  1  -0.014874  0  -0.095074  -0.130767  0  3.991485  0
C  C151  1  0.18775306  0.98423534  0.97144739  1  -0.022254  0  -0.096959  -0.084536  0  4.054332  0
C  C152  1  0.19306347  0.69003827  0.00282858  1  0.025996  0  -0.016714  0.024608  0  3.805776  0
C  C153  1  0.15806826  0.94883941  0.01711105  1  -0.042161  0  -0.099096  -0.10089  0  4.052449  0
C  C154  1  0.20963291  0.99085910  0.10721605  1  -0.022665  0  -0.097559  -0.08897  0  4.061318  0
C  C155  1  0.28991979  0.06753985  0.15115227  1  -0.045391  0  -0.09644  -0.146247  0  3.991169  0
C  C156  1  0.80693463  0.30995335  0.99717775  1  0.025743  0  -0.016657  0.024641  0  3.805174  0
C  C157  1  0.24139100  0.77810337  0.08680167  1  -0.027421  0  -0.162814  -0.170651  0  3.877327  0
O  O158  1  0.55200535  0.90657045  0.96037941  1  -1.1582  0  -0.311263  -0.556121  0  2.336362  0
O  O159  1  0.54697363  0.08899565  0.14506768  1  -1.160061  0  -0.317784  -0.553258  0  2.296667  0
O  O160  1  0.45967080  0.90557606  0.05259789  1  -1.161307  0  -0.319077  -0.553886  0  2.301209  0
O  O161  1  0.54032715  0.09441090  0.94741159  1  -1.161231  0  -0.319196  -0.55395  0  2.30136  0
O  O162  1  0.35729171  0.90630129  0.94638703  1  -1.153598  0  -0.312641  -0.549278  0  2.306469  0
O  O163  1  0.64271042  0.09368857  0.05362340  1  -1.153701  0  -0.312775  -0.549437  0  2.306595  0
O  O164  1  0.09193047  0.44664047  0.03957284  1  -1.156449  0  -0.31519  -0.552472  0  2.301788  0
O  O165  1  0.90820623  0.55346260  0.96037517  1  -1.155862  0  -0.314939  -0.5524  0  2.300136  0
O  O166  1  0.09264611  0.55097529  0.14516978  1  -1.164984  0  -0.319931  -0.558816  0  2.298063  0
O  O167  1  0.90735645  0.44899809  0.85478584  1  -1.167192  0  -0.320133  -0.559389  0  2.298391  0
O  O168  1  0.09379049  0.54050059  0.94803686  1  -1.159616  0  -0.31922  -0.556593  0  2.299383  0
O  O169  1  0.44798903  0.09341842  0.03962223  1  -1.158064  0  -0.311344  -0.556278  0  2.336348  0
O  O170  1  0.90614979  0.45949195  0.05190214  1  -1.159742  0  -0.319395  -0.556786  0  2.299279  0
O  O171  1  0.09433588  0.64448672  0.05371163  1  -1.150716  0  -0.316653  -0.552698  0  2.302127  0
O  O172  1  0.90570957  0.35550124  0.94633720  1  -1.151423  0  -0.316535  -0.552881  0  2.301948  0
O  O173  1  0.64590723  0.55212140  0.59293433  1  -1.153609  0  -0.3182  -0.554998  0  2.299441  0
O  O174  1  0.35409494  0.44796401  0.40720341  1  -1.153598  0  -0.31844  -0.554944  0  2.299962  0
O  O175  1  0.53978510  0.44624619  0.59057488  1  -1.161389  0  -0.316038  -0.552905  0  2.303873  0
O  O176  1  0.46015410  0.55369923  0.40936906  1  -1.159891  0  -0.316242  -0.553282  0  2.302807  0
O  O177  1  0.55217731  0.64523339  0.59375442  1  -1.166416  0  -0.319549  -0.556349  0  2.295333  0
O  O178  1  0.44776859  0.35474649  0.40619470  1  -1.165833  0  -0.319519  -0.556311  0  2.29556  0
O  O179  1  0.44603335  0.53944392  0.59155147  1  -1.153635  0  -0.314774  -0.550221  0  2.29711  0
O  O180  1  0.55400341  0.46055362  0.40850889  1  -1.153359  0  -0.314804  -0.550115  0  2.297205  0
O  O181  1  0.45302371  0.91099434  0.85493313  1  -1.159871  0  -0.317915  -0.553457  0  2.296524  0
