# generated using pymatgen
data_CdH12C12(NO3)2
_symmetry_space_group_name_H-M   'P 1'
_cell_length_a   7.87827838
_cell_length_b   12.44662283
_cell_length_c   14.01340000
_cell_angle_alpha   90.00000000
_cell_angle_beta   97.73887931
_cell_angle_gamma   90.00000000
_symmetry_Int_Tables_number   1
_chemical_formula_structural   CdH12C12(NO3)2
_chemical_formula_sum   'Cd4 H48 C48 N8 O24'
_cell_volume   1361.60994827
_cell_formula_units_Z   4
loop_
 _symmetry_equiv_pos_site_id
 _symmetry_equiv_pos_as_xyz
  1  'x, y, z'
loop_
 _atom_site_type_symbol
 _atom_site_label
 _atom_site_symmetry_multiplicity
 _atom_site_fract_x
 _atom_site_fract_y
 _atom_site_fract_z
 _atom_site_occupancy
 _atom_site_hle17_bader_spin_density
 _atom_site_hle17_ddec_charge
 _atom_site_hle17_ddec_spin_density
 _atom_site_hle17_ddec_sum_bond_order
 _atom_site_hle17_magmom
 _atom_site_hse06_10hf_bader_spin_density
 _atom_site_hse06_10hf_ddec_charge
 _atom_site_hse06_10hf_ddec_spin_density
 _atom_site_hse06_10hf_ddec_sum_bond_order
 _atom_site_hse06_10hf_magmom
 _atom_site_hse06_bader_spin_density
 _atom_site_hse06_ddec_charge
 _atom_site_hse06_ddec_spin_density
 _atom_site_hse06_ddec_sum_bond_order
 _atom_site_hse06_magmom
 _atom_site_pbe_bader_charge
 _atom_site_pbe_bader_spin_density
 _atom_site_pbe_cm5_charge
 _atom_site_pbe_ddec_charge
 _atom_site_pbe_ddec_spin_density
 _atom_site_pbe_ddec_sum_bond_order
 _atom_site_pbe_magmom
Cd  Cd0  1  0.75928934  0.00061382  0.15478994  1  0  1.189122  0  1.585218  0  0  1.006196  0  2.020785  0  0  1.064055  0  1.965403  0  1.287941  0  0.766936  0.964929  0  2.058767  0
Cd  Cd1  1  0.74070872  0.50061210  0.34520898  1  0  1.189119  0  1.585232  0  0  1.006184  0  2.020796  0  0  1.064041  0  1.965417  0  1.28795  0  0.76694  0.964914  0  2.058777  0
Cd  Cd2  1  0.24071022  0.99938515  0.84521060  1  0  1.189087  0  1.585257  0  0  1.00615  0  2.020816  0  0  1.064005  0  1.965437  0  1.287952  0  0.766914  0.964885  0  2.058794  0
Cd  Cd3  1  0.25929340  0.49938607  0.65478889  1  0  1.189123  0  1.585169  0  0  1.006189  0  2.02074  0  0  1.064045  0  1.96536  0  1.287955  0  0.766941  0.964919  0  2.058719  0
H  H4  1  0.71748840  0.09816960  0.34402198  1  0  0.380386  0  0.94298  0  0  0.337184  0  1.025586  0  0  0.349441  0  1.008378  0  0.629536  0  0.270022  0.328579  0  1.037623  0
H  H5  1  0.78251222  0.59816949  0.15597642  1  0  0.380381  0  0.942997  0  0  0.337174  0  1.025608  0  0  0.349431  0  1.008399  0  0.629581  0  0.270021  0.328569  0  1.037644  0
H  H6  1  0.28251372  0.90183258  0.65597661  1  0  0.38042  0  0.942941  0  0  0.337219  0  1.025536  0  0  0.349476  0  1.008328  0  0.629589  0  0.270055  0.328614  0  1.037573  0
H  H7  1  0.21748606  0.40183189  0.84402402  1  0  0.38039  0  0.942985  0  0  0.33718  0  1.025588  0  0  0.349437  0  1.008381  0  0.629559  0  0.270014  0.328575  0  1.037625  0
H  H8  1  0.85494267  0.16934312  0.29777212  1  0  0.426941  0  0.864368  0  0  0.397537  0  0.925422  0  0  0.407923  0  0.910345  0  0.635192  0  0.289015  0.390133  0  0.936161  0
H  H9  1  0.64505667  0.66934140  0.20222476  1  0  0.426923  0  0.864381  0  0  0.39752  0  0.925437  0  0  0.407904  0  0.910362  0  0.635212  0  0.288993  0.390115  0  0.936176  0
H  H10  1  0.14505561  0.83066066  0.70222404  1  0  0.426958  0  0.864342  0  0  0.397559  0  0.925393  0  0  0.407944  0  0.910317  0  0.635227  0  0.289013  0.390155  0  0.936131  0
H  H11  1  0.35494289  0.33065917  0.79777649  1  0  0.426955  0  0.864333  0  0  0.397558  0  0.925379  0  0  0.407942  0  0.910303  0  0.635222  0  0.289008  0.390154  0  0.936118  0
H  H12  1  0.83942872  0.90431920  0.97654042  1  0  0.419415  0  0.89085  0  0  0.386558  0  0.959521  0  0  0.397809  0  0.943111  0  0.660551  0  0.283297  0.378585  0  0.971122  0
H  H13  1  0.66057446  0.40431931  0.52346175  1  0  0.419478  0  0.890765  0  0  0.386588  0  0.959483  0  0  0.397839  0  0.943073  0  0.660599  0  0.283328  0.378615  0  0.971085  0
H  H14  1  0.16056827  0.09568379  0.02346135  1  0  0.419443  0  0.890813  0  0  0.386567  0  0.959507  0  0  0.397818  0  0.943096  0  0.660564  0  0.283288  0.378594  0  0.971108  0
H  H15  1  0.33942766  0.59568046  0.47654041  1  0  0.419475  0  0.890779  0  0  0.386598  0  0.959473  0  0  0.397849  0  0.943063  0  0.660585  0  0.283329  0.378626  0  0.971071  0
H  H16  1  0.65772684  0.96116675  0.95120870  1  0  0.426259  0  0.8702  0  0  0.397098  0  0.930836  0  0  0.407777  0  0.915311  0  0.646043  0  0.290621  0.389516  0  0.941855  0
H  H17  1  0.84227378  0.46116767  0.54878971  1  0  0.426377  0  0.870086  0  0  0.397231  0  0.930685  0  0  0.407909  0  0.915163  0  0.646044  0  0.290705  0.389648  0  0.941705  0
H  H18  1  0.34227016  0.03883704  0.04878879  1  0  0.426264  0  0.870217  0  0  0.397103  0  0.930853  0  0  0.407783  0  0.915327  0  0.646087  0  0.290618  0.389519  0  0.941876  0
H  H19  1  0.15772706  0.53883291  0.45121021  1  0  0.426292  0  0.870173  0  0  0.397132  0  0.930803  0  0  0.407811  0  0.915278  0  0.646045  0  0.290658  0.389547  0  0.941827  0
H  H20  1  0.15074188  0.98383555  0.14011009  1  0  0.085976  0  0.978264  0  0  0.093147  0  1.047822  0  0  0.096409  0  1.043944  0  0.126847  0  0.118947  0.090784  0  1.050528  0
H  H21  1  0.34925790  0.48383486  0.35989125  1  0  0.08597  0  0.978383  0  0  0.093156  0  1.047923  0  0  0.09642  0  1.044041  0  0.126851  0  0.118969  0.090796  0  1.050619  0
H  H22  1  0.84925256  0.01616262  0.85989006  1  0  0.085983  0  0.978539  0  0  0.093178  0  1.048044  0  0  0.096443  0  1.044163  0  0.126782  0  0.118977  0.090812  0  1.05076  0
H  H23  1  0.65075319  0.51616813  0.64010873  1  0  0.085948  0  0.978254  0  0  0.093145  0  1.047802  0  0  0.09641  0  1.043917  0  0.126983  0  0.118933  0.090774  0  1.050518  0
H  H24  1  0.37348636  0.70696446  0.29406521  1  0  0.110866  0  0.957158  0  0  0.119704  0  1.018741  0  0  0.122849  0  1.016361  0  0.120994  0  0.109586  0.117347  0  1.020549  0
H  H25  1  0.12650958  0.20696216  0.20593869  1  0  0.110847  0  0.957113  0  0  0.119702  0  1.018687  0  0  0.122849  0  1.016301  0  0.120899  0  0.109548  0.117344  0  1.020496  0
H  H26  1  0.62651320  0.29303370  0.70593176  1  0  0.110891  0  0.957138  0  0  0.11972  0  1.018723  0  0  0.122861  0  1.016351  0  0.120999  0  0.109583  0.117363  0  1.020532  0
H  H27  1  0.87348614  0.79304404  0.79406227  1  0  0.110745  0  0.95725  0  0  0.119614  0  1.018817  0  0  0.12276  0  1.016436  0  0.120868  0  0.10951  0.117257  0  1.020625  0
H  H28  1  0.08513008  0.67406718  0.34823616  1  0  0.122725  0  0.965126  0  0  0.129677  0  1.027653  0  0  0.133621  0  1.025536  0  0.126313  0  0.111193  0.126807  0  1.029436  0
H  H29  1  0.41486201  0.17406489  0.15176460  1  0  0.122749  0  0.965143  0  0  0.129775  0  1.027579  0  0  0.13372  0  1.025458  0  0.12633  0  0.111189  0.126899  0  1.029376  0
H  H30  1  0.91487204  0.32593179  0.65176528  1  0  0.12278  0  0.965108  0  0  0.129756  0  1.027619  0  0  0.133699  0  1.025502  0  0.126369  0  0.111225  0.126881  0  1.029413  0
H  H31  1  0.58513243  0.82593489  0.84823698  1  0  0.122732  0  0.965116  0  0  0.129685  0  1.027635  0  0  0.133628  0  1.025517  0  0.126261  0  0.111176  0.126814  0  1.029419  0
H  H32  1  0.84497665  0.79776901  0.29248913  1  0  0.091572  0  0.973301  0  0  0.096366  0  1.042538  0  0  0.09944  0  1.039333  0  0.149289  0  0.116482  0.094096  0  1.044835  0
H  H33  1  0.65501373  0.29776993  0.20750636  1  0  0.091551  0  0.973416  0  0  0.096353  0  1.042631  0  0  0.099424  0  1.039422  0  0.149062  0  0.116508  0.094082  0  1.044929  0
H  H34  1  0.15502163  0.20222674  0.70751274  1  0  0.091558  0  0.97332  0  0  0.09638  0  1.042511  0  0  0.099453  0  1.03931  0  0.149263  0  0.116516  0.094111  0  1.044811  0
H  H35  1  0.34498327  0.70222904  0.79249113  1  0  0.091454  0  0.973416  0  0  0.096305  0  1.0426  0  0  0.099378  0  1.039386  0  0.149266  0  0.116473  0.094034  0  1.044899  0
H  H36  1  0.13470401  0.25384315  0.97304612  1  0  0.088226  0  0.947362  0  0  0.09914  0  1.009614  0  0  0.101809  0  1.006995  0  0.116959  0  0.119246  0.097122  0  1.011604  0
H  H37  1  0.36529321  0.75384224  0.52695502  1  0  0.088233  0  0.947322  0  0  0.099138  0  1.009591  0  0  0.101805  0  1.006982  0  0.116924  0  0.119236  0.097119  0  1.011581  0
H  H38  1  0.86529811  0.74615742  0.02695532  1  0  0.088261  0  0.947334  0  0  0.099176  0  1.009586  0  0  0.101845  0  1.006968  0  0.116973  0  0.11926  0.097157  0  1.011577  0
H  H39  1  0.63470251  0.24615995  0.47303737  1  0  0.088171  0  0.947393  0  0  0.09916  0  1.009559  0  0  0.101827  0  1.006949  0  0.116957  0  0.119218  0.09714  0  1.01155  0
H  H40  1  0.61244036  0.33642459  0.00132049  1  0  0.110908  0  0.922165  0  0  0.123842  0  0.97579  0  0  0.127343  0  0.972676  0  0.126861  0  0.115166  0.121263  0  0.978072  0
H  H41  1  0.88755514  0.83642528  0.49867610  1  0  0.110898  0  0.922215  0  0  0.123881  0  0.975783  0  0  0.127382  0  0.972671  0  0.126867  0  0.115182  0.121299  0  0.978066  0
H  H42  1  0.38755920  0.66357357  0.99868005  1  0  0.110907  0  0.922174  0  0  0.12384  0  0.975801  0  0  0.127341  0  0.972686  0  0.126866  0  0.115181  0.12126  0  0.978083  0
H  H43  1  0.11244826  0.16357047  0.50132044  1  0  0.110951  0  0.922238  0  0  0.123856  0  0.975886  0  0  0.127366  0  0.972761  0  0.12675  0  0.1152  0.121278  0  0.978164  0
H  H44  1  0.64857808  0.50245517  0.90238787  1  0  0.110343  0  0.943099  0  0  0.121355  0  0.998306  0  0  0.124278  0  0.998234  0  0.092564  0  0.109091  0.119263  0  0.998545  0
H  H45  1  0.85142126  0.00245448  0.59761115  1  0  0.11032  0  0.943124  0  0  0.121315  0  0.998351  0  0  0.124237  0  0.998281  0  0.092599  0  0.109068  0.119224  0  0.998588  0
H  H46  1  0.35142276  0.49754460  0.09761348  1  0  0.110335  0  0.943087  0  0  0.121338  0  0.998293  0  0  0.12426  0  0.998223  0  0.092574  0  0.109083  0.119247  0  0.998531  0
H  H47  1  0.14858983  0.99753886  0.40239097  1  0  0.110247  0  0.943249  0  0  0.12126  0  0.99846  0  0  0.124182  0  0.99839  0  0.092881  0  0.109031  0.11917  0  0.998697  0
H  H48  1  0.93330534  0.53364757  0.84591984  1  0  0.064072  0  0.973392  0  0  0.072493  0  1.040528  0  0  0.073725  0  1.040363  0  0.113619  0  0.108979  0.071503  0  1.040731  0
H  H49  1  0.56669528  0.03364527  0.65408285  1  0  0.064071  0  0.973404  0  0  0.072478  0  1.040544  0  0  0.073731  0  1.040358  0  0.113606  0  0.109003  0.071489  0  1.040746  0
H  H50  1  0.06669550  0.46635220  0.15408222  1  0  0.064052  0  0.973417  0  0  0.072464  0  1.04055  0  0  0.073718  0  1.040361  0  0.113597  0  0.108976  0.071475  0  1.040752  0
H  H51  1  0.43331324  0.96634968  0.34591980  1  0  0.064048  0  0.973402  0  0  0.072463  0  1.040546  0  0  0.0737  0  1.040376  0  0.113538  0  0.108984  0.071473  0  1.040748  0
C  C52  1  0.14207349  0.91336181  0.18483613  1  0  0.121919  0  3.685664  0  0  0.077339  0  3.938176  0  0  0.086513  0  3.956237  0  0.501626  0  0.049909  0.071307  0  3.926277  0
C  C53  1  0.35792501  0.41336273  0.31516368  1  0  0.121935  0  3.685699  0  0  0.07732  0  3.938207  0  0  0.086496  0  3.956267  0  0.501759  0  0.049891  0.071289  0  3.92631  0
C  C54  1  0.85792351  0.08663234  0.81516421  1  0  0.121854  0  3.685765  0  0  0.077239  0  3.938257  0  0  0.086412  0  3.956318  0  0.501849  0  0.04988  0.071201  0  3.926366  0
C  C55  1  0.64208223  0.58664106  0.68483744  1  0  0.122022  0  3.685432  0  0  0.077367  0  3.937933  0  0  0.086545  0  3.955994  0  0.501728  0  0.049948  0.071347  0  3.926012  0
C  C56  1  0.28448131  0.84810797  0.21230465  1  0  -0.128142  0  3.763754  0  0  -0.100964  0  4.003207  0  0  -0.114385  0  4.026956  0  -0.07599  0  -0.017552  -0.092541  0  3.987433  0
C  C57  1  0.21551591  0.34810728  0.28769721  1  0  -0.128241  0  3.763747  0  0  -0.101012  0  4.003192  0  0  -0.114434  0  4.026945  0  -0.076003  0  -0.017616  -0.092592  0  3.98742  0
C  C58  1  0.71551313  0.15189100  0.78769479  1  0  -0.12814  0  3.763652  0  0  -0.100905  0  4.003065  0  0  -0.114328  0  4.026817  0  -0.075981  0  -0.017606  -0.092482  0  3.987286  0
C  C59  1  0.78448749  0.65189892  0.71230433  1  0  -0.128266  0  3.764042  0  0  -0.101012  0  4.003449  0  0  -0.114435  0  4.0272  0  -0.076241  0  -0.017561  -0.092594  0  3.987678  0
C  C60  1  0.26468504  0.75904365  0.27075289  1  0  -0.006238  0  3.670825  0  0  -0.03671  0  3.918795  0  0  -0.030921  0  3.936248  0  0.02459  0  -0.058959  -0.04004  0  3.906815  0
C  C61  1  0.23531089  0.25904376  0.22925101  1  0  -0.006321  0  3.67095  0  0  -0.03682  0  3.918921  0  0  -0.031035  0  3.936377  0  0.024012  0  -0.05901  -0.04015  0  3.906941  0
C  C62  1  0.73531195  0.24095291  0.72924603  1  0  -0.006418  0  3.671029  0  0  -0.036901  0  3.919002  0  0  -0.031112  0  3.93646  0  0.024647  0  -0.059034  -0.040229  0  3.907016  0
C  C63  1  0.76468739  0.74096244  0.77075085  1  0  -0.006129  0  3.671052  0  0  -0.036635  0  3.918968  0  0  -0.030849  0  3.936424  0  0.023897  0  -0.058942  -0.039967  0  3.906992  0
C  C64  1  0.10611126  0.74079452  0.30119822  1  0  -0.109865  0  3.695607  0  0  -0.119727  0  3.948711  0  0  -0.127939  0  3.968843  0  -0.014951  0  -0.07966  -0.114622  0  3.935319  0
C  C65  1  0.39387956  0.24079383  0.19880244  1  0  -0.10983  0  3.695619  0  0  -0.119742  0  3.948661  0  0  -0.127963  0  3.968814  0  -0.014321  0  -0.079577  -0.114635  0  3.935264  0
C  C66  1  0.89388574  0.25920123  0.69880355  1  0  -0.109788  0  3.695735  0  0  -0.119679  0  3.948815  0  0  -0.127888  0  3.968942  0  -0.01492  0  -0.079603  -0.114574  0  3.935421  0
C  C67  1  0.60611872  0.75920835  0.80119800  1  0  -0.109875  0  3.695575  0  0  -0.119727  0  3.948659  0  0  -0.127955  0  3.968826  0  -0.014118  0  -0.079599  -0.114621  0  3.935264  0
C  C68  1  0.97082780  0.80983172  0.27054247  1  0  0.13702  0  3.680099  0  0  0.100978  0  3.934345  0  0  0.110118  0  3.950841  0  0.426257  0  0.050663  0.095192  0  3.922994  0
C  C69  1  0.52916641  0.30983184  0.22945830  1  0  0.13708  0  3.680124  0  0  0.101037  0  3.934363  0  0  0.110185  0  3.95085  0  0.426585  0  0.050631  0.095251  0  3.923011  0
C  C70  1  0.02917048  0.19016484  0.72946225  1  0  0.136994  0  3.680225  0  0  0.100944  0  3.934441  0  0  0.110082  0  3.950938  0  0.426376  0  0.050578  0.095155  0  3.923091  0
C  C71  1  0.47083571  0.69016794  0.77054171  1  0  0.137149  0  3.680136  0  0  0.101044  0  3.934361  0  0  0.110192  0  3.950848  0  0.426377  0  0.050644  0.095255  0  3.92301  0
C  C72  1  0.45720352  0.87881590  0.18688378  1  0  0.649854  0  3.932434  0  0  0.596684  0  4.226846  0  0  0.631644  0  4.220317  0  1.570807  0  0.204969  0.573097  0  4.230413  0
C  C73  1  0.04279626  0.37882324  0.31311899  1  0  0.649933  0  3.932321  0  0  0.596676  0  4.226844  0  0  0.631635  0  4.22032  0  1.571497  0  0.204947  0.573086  0  4.230409  0
C  C74  1  0.54279604  0.12117423  0.81311819  1  0  0.649901  0  3.932453  0  0  0.596676  0  4.226907  0  0  0.631636  0  4.220382  0  1.571507  0  0.204972  0.573094  0  4.230469  0
C  C75  1  0.95720843  0.62118698  0.68688265  1  0  0.649815  0  3.932539  0  0  0.596591  0  4.227024  0  0  0.631553  0  4.220501  0  1.570866  0  0.20491  0.573003  0  4.230593  0
C  C76  1  0.02430531  0.30731228  0.95960759  1  0  0.115508  0  3.684985  0  0  0.074187  0  3.936854  0  0  0.081817  0  3.954811  0  0.487652  0  0.051217  0.069477  0  3.924527  0
C  C77  1  0.47569319  0.80731216  0.54039294  1  0  0.115397  0  3.684917  0  0  0.07407  0  3.936804  0  0  0.081708  0  3.954774  0  0.487637  0  0.051189  0.069362  0  3.924477  0
C  C78  1  0.97569809  0.69268750  0.04039253  1  0  0.115398  0  3.684993  0  0  0.074061  0  3.936863  0  0  0.081704  0  3.954838  0  0.487649  0  0.051179  0.069353  0  3.924537  0
C  C79  1  0.52430637  0.19268761  0.45960332  1  0  0.115554  0  3.685003  0  0  0.074175  0  3.936854  0  0  0.081817  0  3.95483  0  0.487507  0  0.051247  0.069458  0  3.92452  0
C  C80  1  0.87145194  0.28387700  0.99595417  1  0  -0.121963  0  3.757733  0  0  -0.096023  0  3.999278  0  0  -0.109379  0  4.024517  0  -0.033778  0  -0.016168  -0.087628  0  3.982445  0
C  C81  1  0.62854356  0.78387609  0.50404670  1  0  -0.121783  0  3.757784  0  0  -0.095844  0  3.999322  0  0  -0.109243  0  4.024618  0  -0.033807  0  -0.016133  -0.087453  0  3.98249  0
C  C82  1  0.12854762  0.71612277  0.00404708  1  0  -0.121907  0  3.757856  0  0  -0.095954  0  3.999387  0  0  -0.109367  0  4.024699  0  -0.033837  0  -0.016148  -0.087561  0  3.982554  0
C  C83  1  0.37145344  0.21612851  0.49595079  1  0  -0.12203  0  3.757705  0  0  -0.096066  0  3.999239  0  0  -0.109484  0  4.024556  0  -0.033595  0  -0.01618  -0.087646  0  3.98237  0
C  C84  1  0.73334565  0.35481994  0.97514881  1  0  0.001013  0  3.674052  0  0  -0.029627  0  3.92041  0  0  -0.024166  0  3.937052  0  -0.036031  0  -0.055658  -0.032789  0  3.909003  0
C  C85  1  0.76665241  0.85481983  0.52484941  1  0  0.000945  0  3.674149  0  0  -0.029739  0  3.920526  0  0  -0.024264  0  3.937178  0  -0.03603  0  -0.055673  -0.032897  0  3.909116  0
C  C86  1  0.26665519  0.64517903  0.02485112  1  0  0.001033  0  3.673975  0  0  -0.029629  0  3.920329  0  0  -0.024149  0  3.936981  0  -0.036042  0  -0.055684  -0.032789  0  3.908922  0
C  C87  1  0.23334843  0.14517834  0.47514695  1  0  0.001021  0  3.673776  0  0  -0.029622  0  3.920135  0  0  -0.024149  0  3.936786  0  -0.035739  0  -0.055683  -0.032789  0  3.908721  0
C  C88  1  0.75362356  0.44602380  0.92046346  1  0  -0.117847  0  3.728817  0  0  -0.128655  0  3.984928  0  0  -0.136349  0  4.005739  0  0.014372  0  -0.081909  -0.123849  0  3.970902  0
C  C89  1  0.74637450  0.94602208  0.57953546  1  0  -0.11776  0  3.72877  0  0  -0.128566  0  3.984916  0  0  -0.136259  0  4.005728  0  0.014429  0  -0.081883  -0.12376  0  3.970888  0
C  C90  1  0.24637600  0.55397678  0.07953779  1  0  -0.11782  0  3.728805  0  0  -0.128595  0  3.984881  0  0  -0.136289  0  4.005694  0  0.014483  0  -0.081874  -0.123788  0  3.970855  0
C  C91  1  0.25363403  0.05397127  0.42046290  1  0  -0.117708  0  3.728688  0  0  -0.128502  0  3.984783  0  0  -0.136195  0  4.005593  0  0.01398  0  -0.081813  -0.123698  0  3.97076  0
C  C92  1  0.91119819  0.46283157  0.88801933  1  0  0.133657  0  3.714896  0  0  0.09777  0  3.975775  0  0  0.105414  0  3.993911  0  0.428641  0  0.046766  0.093047  0  3.963282  0
C  C93  1  0.58879731  0.96282905  0.61198225  1  0  0.133579  0  3.714892  0  0  0.097709  0  3.97578  0  0  0.105339  0  3.993905  0  0.428714  0  0.046734  0.092985  0  3.963286  0
C  C94  1  0.08880394  0.53717061  0.11198354  1  0  0.13356  0  3.714941  0  0  0.097669  0  3.975811  0  0  0.105298  0  3.993938  0  0.42854  0  0.046735  0.092947  0  3.963316  0
C  C95  1  0.41120609  0.03716751  0.38801715  1  0  0.133588  0  3.714962  0  0  0.0977  0  3.97583  0  0  0.105342  0  3.993959  0  0.42881  0  0.046705  0.092978  0  3.963336  0
C  C96  1  0.85273170  0.18389486  0.05306095  1  0  0.638394  0  3.94306  0  0  0.584151  0  4.238762  0  0  0.619125  0  4.233184  0  1.57069  0  0.198917  0.560538  0  4.241676  0
C  C97  1  0.64726124  0.68389636  0.44694044  1  0  0.638244  0  3.943283  0  0  0.584021  0  4.238961  0  0  0.619009  0  4.233389  0  1.570321  0  0.198937  0.560408  0  4.241874  0
C  C98  1  0.14726658  0.81610089  0.94694021  1  0  0.638301  0  3.943233  0  0  0.58404  0  4.238945  0  0  0.619033  0  4.233372  0  1.570627  0  0.198894  0.560426  0  4.241857  0
C  C99  1  0.35273192  0.31610824  0.55305818  1  0  0.638558  0  3.943058  0  0  0.584306  0  4.238751  0  0  0.619301  0  4.233172  0  1.570369  0  0.198993  0.560684  0  4.241664  0
N  N100  1  0.98803649  0.89387862  0.21196542  1  0  -0.348359  0  3.285965  0  0  -0.262811  0  3.55495  0  0  -0.285886  0  3.574309  0  -1.231731  0  -0.331505  -0.24709  0  3.541244  0
N  N101  1  0.51196285  0.39388034  0.28803361  1  0  -0.34833  0  3.285934  0  0  -0.262778  0  3.554914  0  0  -0.285856  0  3.574272  0  -1.231861  0  -0.331478  -0.247057  0  3.541206  0
N  N102  1  0.01196051  0.10611634  0.78803493  1  0  -0.348302  0  3.286036  0  0  -0.262764  0  3.555034  0  0  -0.285839  0  3.574393  0  -1.232045  0  -0.331468  -0.247041  0  3.541324  0
N  N103  1  0.48804311  0.60612104  0.71196599  1  0  -0.34835  0  3.285742  0  0  -0.262751  0  3.554704  0  0  -0.285832  0  3.574068  0  -1.231802  0  -0.331474  -0.247029  0  3.540993  0
N  N104  1  0.04379927  0.39474242  0.90616807  1  0  -0.32225  0  3.189773  0  0  -0.254372  0  3.437411  0  0  -0.270157  0  3.454124  0  -1.230837  0  -0.3077  -0.243746  0  3.425834  0
N  N105  1  0.45620051  0.89474150  0.59383398  1  0  -0.322128  0  3.189749  0  0  -0.254247  0  3.437386  0  0  -0.270031  0  3.454102  0  -1.230966  0  -0.307659  -0.243622  0  3.425809  0
N  N106  1  0.95620157  0.60525896  0.09383327  1  0  -0.322086  0  3.189671  0  0  -0.254199  0  3.437307  0  0  -0.269984  0  3.454026  0  -1.230829  0  -0.307641  -0.243573  0  3.425728  0
N  N107  1  0.54380033  0.10525988  0.40616451  1  0  -0.322209  0  3.189896  0  0  -0.254334  0  3.437558  0  0  -0.270118  0  3.454268  0  -1.231136  0  -0.307665  -0.243709  0  3.425982  0
O  O108  1  0.81602010  0.09468914  0.30440134  1  0  -0.842836  0  1.846871  0  0  -0.77912  0  2.041005  0  0  -0.801698  0  2.006207  0  -1.263069  0  -0.593937  -0.762982  0  2.06509  0
O  O109  1  0.68398053  0.59468742  0.19559564  1  0  -0.842835  0  1.846873  0  0  -0.779121  0  2.041036  0  0  -0.801695  0  2.006225  0  -1.263258  0  -0.593924  -0.762983  0  2.06512  0
O  O110  1  0.18398075  0.90531465  0.69559644  1  0  -0.84289  0  1.846804  0  0  -0.779179  0  2.04097  0  0  -0.801751  0  2.00616  0  -1.263288  0  -0.59396  -0.76304  0  2.065054  0
O  O111  1  0.31601775  0.40531316  0.80440338  1  0  -0.842862  0  1.846822  0  0  -0.779135  0  2.040983  0  0  -0.801714  0  2.006186  0  -1.263255  0  -0.593915  -0.762997  0  2.065067  0
O  O112  1  0.46997105  0.97303583  0.15000656  1  0  -0.664594  0  2.026597  0  0  -0.586321  0  2.266492  0  0  -0.61783  0  2.255971  0  -1.162973  0  -0.322679  -0.564155  0  2.272884  0
O  O113  1  0.03003129  0.47304157  0.34999354  1  0  -0.664618  0  2.026604  0  0  -0.586309  0  2.266516  0  0  -0.617819  0  2.256003  0  -1.163101  0  -0.322719  -0.564148  0  2.272922  0
O  O114  1  0.53003107  0.02695510  0.84998989  1  0  -0.664645  0  2.026679  0  0  -0.58634  0  2.266566  0  0  -0.617851  0  2.256058  0  -1.163165  0  -0.322769  -0.564186  0  2.272963  0
O  O115  1  0.96997851  0.52696704  0.65000991  1  0  -0.664575  0  2.026684  0  0  -0.586343  0  2.266667  0  0  -0.617841  0  2.256123  0  -1.163066  0  -0.322741  -0.564166  0  2.273032  0
O  O116  1  0.72839466  0.91844351  0.00126578  1  0  -0.840301  0  1.856951  0  0  -0.785192  0  2.052421  0  0  -0.806692  0  2.017291  0  -1.287255  0  -0.593919  -0.769916  0  2.0769  0
O  O117  1  0.77160980  0.41844363  0.49873720  1  0  -0.840477  0  1.856842  0  0  -0.785338  0  2.052373  0  0  -0.806839  0  2.017238  0  -1.287314  0  -0.594038  -0.770064  0  2.076856  0
O  O118  1  0.27160362  0.08155867  0.99873537  1  0  -0.8403  0  1.856956  0  0  -0.785182  0  2.052458  0  0  -0.806681  0  2.017326  0  -1.28729  0  -0.593883  -0.769906  0  2.076938  0
O  O119  1  0.22839360  0.58155615  0.50126506  1  0  -0.840384  0  1.856857  0  0  -0.785244  0  2.05237  0  0  -0.806746  0  2.017238  0  -1.287313  0  -0.593977  -0.769971  0  2.076853  0
O  O120  1  0.58287534  0.81681755  0.20845902  1  0  -0.631563  0  1.952587  0  0  -0.57433  0  2.177897  0  0  -0.600413  0  2.168308  0  -1.178772  0  -0.311856  -0.556109  0  2.183913  0
O  O121  1  0.91711503  0.31682249  0.29154361  1  0  -0.63153  0  1.95255  0  0  -0.57428  0  2.177909  0  0  -0.600364  0  2.168325  0  -1.179411  0  -0.311736  -0.556054  0  2.183922  0
O  O122  1  0.41711782  0.18317579  0.79154674  1  0  -0.631504  0  1.952594  0  0  -0.574266  0  2.177924  0  0  -0.600351  0  2.168342  0  -1.179362  0  -0.311715  -0.556042  0  2.183936  0
O  O123  1  0.08288068  0.68318773  0.70845521  1  0  -0.631512  0  1.952528  0  0  -0.57427  0  2.177874  0  0  -0.600352  0  2.168287  0  -1.178762  0  -0.311778  -0.556048  0  2.183888  0
O  O124  1  0.70787208  0.16656406  0.08075813  1  0  -0.620532  0  1.978858  0  0  -0.554185  0  2.218881  0  0  -0.583611  0  2.20965  0  -1.1472  0  -0.317519  -0.533633  0  2.224495  0
O  O125  1  0.79211701  0.66656314  0.41923655  1  0  -0.620494  0  1.979015  0  0  -0.554146  0  2.219025  0  0  -0.583574  0  2.209794  0  -1.146993  0  -0.317518  -0.533591  0  2.224634  0
O  O126  1  0.29212107  0.83343491  0.91923550  1  0  -0.620514  0  1.979029  0  0  -0.55412  0  2.219017  0  0  -0.583546  0  2.20978  0  -1.14709  0  -0.317517  -0.533569  0  2.224631  0
O  O127  1  0.20787358  0.33343663  0.58076045  1  0  -0.620551  0  1.978746  0  0  -0.55419  0  2.218754  0  0  -0.583618  0  2.209517  0  -1.147133  0  -0.317543  -0.533642  0  2.224374  0
O  O128  1  0.97961276  0.11985661  0.07164426  1  0  -0.669687  0  2.015072  0  0  -0.603371  0  2.248483  0  0  -0.631684  0  2.23842  0  -1.194639  0  -0.32201  -0.58348  0  2.254705  0
O  O129  1  0.52038401  0.61985007  0.42836099  1  0  -0.669676  0  2.01517  0  0  -0.603366  0  2.248572  0  0  -0.631678  0  2.238506  0  -1.19442  0  -0.322063  -0.583476  0  2.254795  0
O  O130  1  0.02038680  0.88014718  0.92835985  1  0  -0.669662  0  2.014989  0  0  -0.603386  0  2.248467  0  0  -0.631688  0  2.238374  0  -1.194621  0  -0.322018  -0.583491  0  2.254685  0
O  O131  1  0.47960914  0.38015533  0.57163264  1  0  -0.669793  0  2.015058  0  0  -0.603494  0  2.24852  0  0  -0.631794  0  2.238422  0  -1.19441  0  -0.322046  -0.583599  0  2.254743  0
