# generated using pymatgen
data_CoH9C13(NO2)2
_symmetry_space_group_name_H-M   'P 1'
_cell_length_a   11.67381347
_cell_length_b   14.79126709
_cell_length_c   16.29181965
_cell_angle_alpha   90.00109175
_cell_angle_beta   97.25413828
_cell_angle_gamma   90.00049547
_symmetry_Int_Tables_number   1
_chemical_formula_structural   CoH9C13(NO2)2
_chemical_formula_sum   'Co8 H72 C104 N16 O32'
_cell_volume   2790.59987238
_cell_formula_units_Z   8
loop_
 _symmetry_equiv_pos_site_id
 _symmetry_equiv_pos_as_xyz
  1  'x, y, z'
loop_
 _atom_site_type_symbol
 _atom_site_label
 _atom_site_symmetry_multiplicity
 _atom_site_fract_x
 _atom_site_fract_y
 _atom_site_fract_z
 _atom_site_occupancy
 _atom_site_pbe_bader_charge
 _atom_site_pbe_bader_spin_density
 _atom_site_pbe_cm5_charge
 _atom_site_pbe_ddec_charge
 _atom_site_pbe_ddec_spin_density
 _atom_site_pbe_ddec_sum_bond_order
 _atom_site_pbe_magmom
Co  Co0  1  0.79258063  0.85780259  0.11154024  1  1.234592  2.525613  0.651764  0.801796  2.751246  2.569267  2.511
Co  Co1  1  0.20742831  0.35780308  0.38846123  1  1.23496  2.525554  0.651888  0.801935  2.751255  2.569914  2.511
Co  Co2  1  0.20742490  0.14218652  0.88845233  1  1.234836  2.525619  0.651829  0.802004  2.751323  2.569405  2.512
Co  Co3  1  0.79257464  0.64219008  0.61154767  1  1.234796  2.525582  0.651894  0.801959  2.751299  2.569932  2.511
Co  Co4  1  0.74177373  0.99558879  0.27235501  1  1.329661  2.67462  0.666368  1.009541  2.902292  2.378098  2.645
Co  Co5  1  0.25822855  0.49555311  0.22766542  1  1.329241  2.674646  0.666435  1.009711  2.902364  2.377317  2.645
Co  Co6  1  0.25823699  0.00441722  0.72764907  1  1.329784  2.674583  0.666426  1.009622  2.902287  2.377719  2.645
Co  Co7  1  0.74176317  0.50445695  0.77234001  1  1.329353  2.674619  0.666385  1.009535  2.902343  2.377792  2.645
H  H8  1  0.29314821  0.79172074  0.88763289  1  0.460581  5e-05  0.312896  0.313375  2.3e-05  0.927024  0.0
H  H9  1  0.70689146  0.29173301  0.61237822  1  0.460759  5e-05  0.31278  0.313268  2.3e-05  0.927109  0.0
H  H10  1  0.70686165  0.20829473  0.11237418  1  0.460736  5e-05  0.312888  0.313325  2.3e-05  0.927022  0.0
H  H11  1  0.29312530  0.70827435  0.38762272  1  0.460433  5e-05  0.31285  0.313265  2.3e-05  0.927132  0.0
H  H12  1  0.37725331  0.88570697  0.89549942  1  0.471926  -0.000103  0.307023  0.317938  -0.000258  0.945679  0.0
H  H13  1  0.62279807  0.38570566  0.60452850  1  0.472026  -0.000103  0.307034  0.317701  -0.000258  0.9461  0.0
H  H14  1  0.62275050  0.11430580  0.10452000  1  0.4726  -0.000103  0.306964  0.3178  -0.000258  0.94578  0.0
H  H15  1  0.37720747  0.61430170  0.39547327  1  0.47241  -0.000102  0.307061  0.317702  -0.000258  0.94617  0.0
H  H16  1  0.01507882  0.83248170  0.11802561  1  0.451974  -0.000725  0.318903  0.313897  -0.000701  0.904641  -0.001
H  H17  1  0.98490817  0.33246705  0.38198571  1  0.454661  -0.000723  0.318714  0.31356  -0.0007  0.904953  -0.001
H  H18  1  0.98490685  0.16752634  0.88197129  1  0.451586  -0.000724  0.31888  0.313848  -0.0007  0.904605  -0.001
H  H19  1  0.01507405  0.66752070  0.61802132  1  0.452083  -0.000725  0.318787  0.313719  -0.000701  0.9049  -0.001
H  H20  1  0.95681799  0.73003713  0.10325558  1  0.437643  -0.00051  0.317345  0.309148  -0.000442  0.910594  0.0
H  H21  1  0.04317358  0.23002789  0.39674886  1  0.437493  -0.000509  0.317266  0.30894  -0.000441  0.910634  0.0
H  H22  1  0.04317372  0.26997496  0.89674249  1  0.437407  -0.000509  0.317276  0.30907  -0.000441  0.910625  0.0
H  H23  1  0.95682159  0.76996460  0.60325320  1  0.437616  -0.000509  0.317354  0.309078  -0.000441  0.910579  0.0
H  H24  1  0.27606980  0.69051048  0.00644694  1  0.078988  0.000549  0.104604  0.120743  0.000282  0.998819  0.0
H  H25  1  0.72396180  0.19052615  0.49354080  1  0.079117  0.00055  0.104608  0.120641  0.000282  0.998894  0.0
H  H26  1  0.72394265  0.30948201  0.99354993  1  0.079018  0.000549  0.104603  0.120728  0.000282  0.998886  0.0
H  H27  1  0.27605842  0.80948661  0.50646291  1  0.079152  0.000549  0.104616  0.120742  0.000282  0.998746  0.0
H  H28  1  0.45996979  0.76575054  0.24148013  1  0.097901  0.000706  0.098238  0.103954  0.000444  1.062327  0.0
H  H29  1  0.54003094  0.26577895  0.25852575  1  0.098245  0.000706  0.098244  0.104061  0.000444  1.062264  0.0
H  H30  1  0.54002884  0.23422775  0.75852776  1  0.098104  0.000706  0.098236  0.104021  0.000443  1.062223  0.0
H  H31  1  0.45996683  0.73422165  0.74147348  1  0.098261  0.000706  0.098237  0.104029  0.000444  1.062183  0.0
H  H32  1  0.49683112  0.92672784  0.02615366  1  0.042361  0.000168  0.101331  0.113772  -1.8e-05  1.015846  0.0
H  H33  1  0.50319436  0.42674431  0.47387811  1  0.042428  0.000168  0.101301  0.11385  -1.8e-05  1.015848  0.0
H  H34  1  0.50316665  0.07327343  0.97386399  1  0.042082  0.000168  0.101352  0.113805  -1.8e-05  1.015962  0.0
H  H35  1  0.49680945  0.57326778  0.52612903  1  0.041754  0.000168  0.101359  0.113873  -1.8e-05  1.016012  0.0
H  H36  1  0.06105492  0.92763750  0.00624233  1  0.068487  2e-05  0.107203  0.117396  -0.000123  1.024191  0.0
H  H37  1  0.93896279  0.42764315  0.49377341  1  0.068977  2e-05  0.107186  0.117326  -0.000123  1.024318  0.0
H  H38  1  0.93892039  0.07237459  0.99374382  1  0.070856  2e-05  0.107169  0.117304  -0.000123  1.024167  0.0
H  H39  1  0.06103929  0.57234798  0.50622989  1  0.068807  2e-05  0.107175  0.117343  -0.000123  1.024303  0.0
H  H40  1  0.99087273  0.81991340  0.76012628  1  0.082637  0.000648  0.102077  0.112266  0.000252  1.022634  0.0
H  H41  1  0.00913625  0.31991280  0.73988562  1  0.082485  0.000649  0.102012  0.112236  0.000252  1.02261  0.0
H  H42  1  0.00912848  0.18008381  0.23986712  1  0.082744  0.000648  0.102032  0.112226  0.000252  1.022746  0.0
H  H43  1  0.99087188  0.68008104  0.26012375  1  0.082573  0.000649  0.102059  0.112239  0.000252  1.022716  0.0
H  H44  1  0.88452642  0.67185824  0.96476732  1  0.123357  0.000259  0.109642  0.126814  1e-06  1.000413  0.0
H  H45  1  0.11547354  0.17185270  0.53524059  1  0.123278  0.000259  0.109598  0.126733  1e-06  1.000558  0.0
H  H46  1  0.11547480  0.32814439  0.03523406  1  0.123463  0.000259  0.109631  0.126771  1e-06  1.000443  0.0
H  H47  1  0.88452422  0.82814046  0.46476723  1  0.123329  0.000259  0.10962  0.126808  1e-06  1.00044  0.0
H  H48  1  0.75056418  0.67597518  0.20410505  1  0.132021  0.001777  0.114086  0.084631  0.000339  1.025533  0.001
H  H49  1  0.24943439  0.17599632  0.29588682  1  0.131787  0.001777  0.11404  0.084608  0.000339  1.025558  0.001
H  H50  1  0.24943272  0.32403758  0.79589962  1  0.132036  0.001776  0.114074  0.084622  0.000338  1.025637  0.001
H  H51  1  0.75058064  0.82401983  0.70411090  1  0.131809  0.001777  0.114046  0.084647  0.000339  1.025579  0.001
H  H52  1  0.68752160  0.51932397  0.16047786  1  0.074068  0.001194  0.111267  0.116563  0.000594  0.987164  0.0
H  H53  1  0.31248768  0.01933631  0.33949631  1  0.074293  0.001194  0.111264  0.116561  0.000595  0.987075  0.0
H  H54  1  0.31249084  0.48068812  0.83952576  1  0.074628  0.001193  0.111276  0.116577  0.000594  0.987178  0.0
H  H55  1  0.68751871  0.98067645  0.66048896  1  0.074226  0.001194  0.111253  0.116597  0.000594  0.987046  0.0
H  H56  1  0.61733852  0.49110481  0.00930454  1  0.099484  -0.000156  0.111862  0.111261  -0.000351  0.994822  0.0
H  H57  1  0.38265418  0.99111087  0.49066707  1  0.099534  -0.000156  0.111869  0.111285  -0.000351  0.994909  0.0
H  H58  1  0.38267996  0.50889849  0.99070147  1  0.099564  -0.000156  0.111811  0.111157  -0.000351  0.994868  0.0
H  H59  1  0.61732458  0.00888094  0.50931632  1  0.099794  -0.000156  0.111823  0.11125  -0.000351  0.994855  0.0
H  H60  1  0.60315243  0.62058390  0.91202000  1  0.134233  0.000891  0.115405  0.134686  0.000358  1.011415  0.001
H  H61  1  0.39683039  0.12057733  0.58797444  1  0.13453  0.000891  0.115348  0.134657  0.000359  1.011284  0.001
H  H62  1  0.39685051  0.37942278  0.08798706  1  0.134082  0.000891  0.115435  0.13473  0.000358  1.011349  0.001
H  H63  1  0.60313715  0.87940569  0.41202574  1  0.133193  0.000893  0.11537  0.134627  0.000359  1.011272  0.001
H  H64  1  0.56467565  0.74114747  0.84663208  1  0.105205  0.001237  0.110828  0.12032  0.000581  1.026328  0.001
H  H65  1  0.43533307  0.24115740  0.65336371  1  0.105114  0.001237  0.110774  0.120204  0.000581  1.026146  0.001
H  H66  1  0.43532384  0.25885583  0.15337283  1  0.105098  0.001237  0.110873  0.120418  0.000581  1.026318  0.001
H  H67  1  0.56466642  0.75883846  0.34663629  1  0.10518  0.001237  0.110753  0.120171  0.000581  1.02624  0.001
H  H68  1  0.56614608  0.88437167  0.76546892  1  0.144981  -0.000118  0.10892  0.109122  -0.00043  1.01542  0.0
H  H69  1  0.43385950  0.38437519  0.73453887  1  0.144877  -0.000118  0.108977  0.109225  -0.00043  1.015156  0.0
H  H70  1  0.43384650  0.11563636  0.23453352  1  0.145004  -0.000118  0.108879  0.109054  -0.00043  1.015406  0.0
H  H71  1  0.56613567  0.61562135  0.26546012  1  0.144738  -0.000118  0.108971  0.109185  -0.00043  1.015236  0.0
H  H72  1  0.67457328  0.01864501  0.83168777  1  0.097707  0.001148  0.108274  0.1152  0.000565  1.003942  0.0
H  H73  1  0.32541586  0.51864052  0.66832205  1  0.098366  0.001149  0.108334  0.115276  0.000566  1.003752  0.0
H  H74  1  0.32542621  0.98135423  0.16831959  1  0.098319  0.001148  0.108306  0.115189  0.000565  1.003821  0.0
H  H75  1  0.67457068  0.48134994  0.33167432  1  0.098207  0.001148  0.108302  0.115228  0.000565  1.003788  0.0
H  H76  1  0.76800324  0.00443985  0.97864744  1  0.113016  0.00196  0.11778  0.091462  0.000546  1.020029  0.002
H  H77  1  0.23198397  0.50442959  0.52136319  1  0.112709  0.001961  0.11777  0.09144  0.000546  1.020077  0.002
H  H78  1  0.23198761  0.99556548  0.02136467  1  0.112768  0.00196  0.117814  0.091494  0.000546  1.020017  0.002
H  H79  1  0.76799566  0.49555208  0.47863440  1  0.113786  0.00196  0.11779  0.091416  0.000546  1.020093  0.002
C  C80  1  0.37669877  0.81453332  0.00586297  1  0.441086  0.000409  0.097317  0.303633  7e-05  4.124959  0.001
C  C81  1  0.62333459  0.31454765  0.49413688  1  0.440841  0.000409  0.097321  0.303771  6.9e-05  4.124602  0.001
C  C82  1  0.62330763  0.18546187  0.99414563  1  0.440762  0.000409  0.097358  0.303785  7e-05  4.124793  0.001
C  C83  1  0.37666749  0.68545363  0.50585967  1  0.440976  0.000409  0.097442  0.304251  7e-05  4.124647  0.001
C  C84  1  0.33455822  0.73696212  0.04309584  1  -0.017426  -0.000909  -0.098212  -0.218959  -0.001203  3.90751  0.0
C  C85  1  0.66546972  0.23698136  0.45689482  1  -0.01756  -0.000908  -0.098168  -0.218857  -0.001204  3.907785  0.0
C  C86  1  0.66543177  0.26304118  0.95690821  1  -0.017444  -0.000909  -0.09819  -0.21914  -0.001204  3.907632  0.0
C  C87  1  0.33454099  0.76302127  0.54309944  1  -0.017926  -0.000908  -0.09817  -0.219186  -0.001204  3.907778  0.0
C  C88  1  0.36647098  0.71935948  0.12712457  1  -0.01424  0.002464  -0.025204  -0.009888  0.001298  4.044609  0.002
C  C89  1  0.63355239  0.21939026  0.37286537  1  -0.014262  0.002459  -0.025225  -0.009955  0.001295  4.044787  0.002
C  C90  1  0.63355096  0.28062624  0.87287254  1  -0.01429  0.002464  -0.025264  -0.009909  0.001298  4.044684  0.002
C  C91  1  0.36646437  0.78061304  0.62712759  1  -0.014244  0.00246  -0.025241  -0.009829  0.001295  4.045037  0.002
C  C92  1  0.43919411  0.77882844  0.17580248  1  -0.054742  0.001096  -0.106303  -0.169073  0.0003  3.992466  0.001
C  C93  1  0.56080248  0.27885634  0.32420326  1  -0.055213  0.001097  -0.106402  -0.16938  0.000299  3.992424  0.001
C  C94  1  0.56080279  0.22116337  0.82420649  1  -0.054511  0.001094  -0.106328  -0.169265  0.000298  3.992632  0.001
C  C95  1  0.43918837  0.72114087  0.67579719  1  -0.055097  0.001096  -0.106325  -0.169303  0.000299  3.992413  0.001
C  C96  1  0.48789562  0.85191661  0.13870567  1  0.013804  0.002087  -0.024927  -0.021763  0.000766  4.064199  0.002
C  C97  1  0.51212274  0.35195443  0.36130514  1  0.01434  0.002085  -0.024743  -0.021343  0.000765  4.064051  0.002
C  C98  1  0.51210733  0.14807587  0.86130692  1  0.014093  0.002087  -0.024828  -0.021392  0.000766  4.063942  0.002
C  C99  1  0.48787847  0.64805428  0.63868703  1  0.014599  0.002086  -0.024816  -0.021219  0.000765  4.064089  0.002
C  C100  1  0.45824343  0.86930223  0.05432568  1  -0.048937  -0.000628  -0.100217  -0.22082  -0.001102  3.921522  0.0
C  C101  1  0.54175359  0.36931093  0.44569025  1  -0.049347  -0.00063  -0.10023  -0.221187  -0.001104  3.921549  0.0
C  C102  1  0.54175174  0.13069769  0.94568927  1  -0.048985  -0.00063  -0.100275  -0.221008  -0.001104  3.921647  0.0
C  C103  1  0.45823726  0.63069305  0.55430713  1  -0.0485  -0.000631  -0.100349  -0.221518  -0.001105  3.922099  0.0
C  C104  1  0.57342302  0.90805125  0.19141054  1  1.510617  0.00387  0.204393  0.564784  0.001735  4.175097  0.001
C  C105  1  0.42655728  0.40805561  0.30862235  1  1.510856  0.003868  0.204342  0.564803  0.001731  4.175571  0.001
C  C106  1  0.42658510  0.09193515  0.80860804  1  1.510091  0.003872  0.204309  0.56455  0.001737  4.175437  0.001
C  C107  1  0.57342234  0.59193823  0.69137278  1  1.509832  0.003874  0.204189  0.564421  0.001736  4.175704  0.001
C  C108  1  0.32791832  0.63653861  0.16791753  1  1.487227  -0.003693  0.192372  0.546152  -0.005083  4.208524  -0.005
C  C109  1  0.67208832  0.13656812  0.33206088  1  1.48835  -0.00369  0.192412  0.546445  -0.00508  4.207342  -0.005
C  C110  1  0.67208548  0.36345860  0.83207978  1  1.48657  -0.003695  0.192457  0.5463  -0.005088  4.208289  -0.005
C  C111  1  0.32791808  0.86343519  0.66792501  1  1.487016  -0.003699  0.192146  0.545955  -0.005089  4.207651  -0.005
C  C112  1  0.97408397  0.79825575  0.99607691  1  0.312225  -0.00105  0.087131  0.27498  -0.001727  4.071016  -0.001
C  C113  1  0.02592038  0.29825232  0.50392744  1  0.31212  -0.001051  0.087139  0.275019  -0.001728  4.070648  -0.001
C  C114  1  0.02590602  0.20174890  0.00391731  1  0.311808  -0.001047  0.087148  0.274937  -0.001725  4.070786  -0.001
C  C115  1  0.97407479  0.70174490  0.49607646  1  0.312255  -0.00105  0.087104  0.275043  -0.001728  4.070853  -0.001
C  C116  1  0.02689001  0.87353987  0.96489549  1  0.010491  0.002716  -0.08834  -0.192311  0.000978  3.917097  0.002
C  C117  1  0.97312233  0.37353813  0.53511887  1  0.010241  0.002721  -0.088194  -0.192079  0.000981  3.916996  0.002
C  C118  1  0.97310516  0.12646005  0.03510351  1  0.008138  0.002718  -0.088273  -0.192171  0.000979  3.91686  0.002
C  C119  1  0.02687371  0.62645571  0.46489125  1  0.009914  0.002726  -0.088224  -0.192204  0.000983  3.916968  0.002
C  C120  1  0.03502054  0.88008273  0.88020933  1  -0.056711  0.010274  -0.020725  -0.022803  0.005173  4.025574  0.008
C  C121  1  0.96498067  0.38007934  0.61980168  1  -0.057312  0.010275  -0.020876  -0.023092  0.005173  4.026028  0.008
C  C122  1  0.96497981  0.11991313  0.11979136  1  -0.056646  0.010272  -0.020746  -0.02275  0.005172  4.025644  0.008
C  C123  1  0.03501451  0.61991247  0.38020591  1  -0.05739  0.010274  -0.020834  -0.022834  0.005172  4.025566  0.008
C  C124  1  0.98585030  0.81355424  0.82603153  1  0.043822  0.006939  -0.093725  -0.138767  0.003755  3.970119  0.004
C  C125  1  0.01417845  0.31356243  0.67398205  1  0.04562  0.006941  -0.093668  -0.138832  0.003757  3.970393  0.004
C  C126  1  0.01415869  0.18644162  0.17396748  1  0.043714  0.00694  -0.09371  -0.138768  0.003756  3.970195  0.004
C  C127  1  0.98584867  0.68644087  0.32602781  1  0.044992  0.006949  -0.093678  -0.13874  0.003761  3.970473  0.004
C  C128  1  0.93003793  0.73985278  0.85700092  1  -0.021296  0.009102  -0.022594  -0.024666  0.004543  4.026658  0.007
C  C129  1  0.06992846  0.23984176  0.64299715  1  -0.022318  0.009104  -0.022508  -0.02459  0.004544  4.026853  0.007
C  C130  1  0.06996329  0.26014105  0.14299677  1  -0.021103  0.009102  -0.022507  -0.02454  0.004543  4.026528  0.007
C  C131  1  0.93005462  0.76014396  0.35700013  1  -0.022136  0.009103  -0.022533  -0.024775  0.004543  4.02683  0.007
C  C132  1  0.92708508  0.73071517  0.94206707  1  -0.037304  0.002819  -0.089687  -0.193007  0.00093  3.914846  0.002
C  C133  1  0.07293385  0.23072131  0.55793191  1  -0.037139  0.00283  -0.089766  -0.19311  0.000936  3.915153  0.002
C  C134  1  0.07292045  0.26928002  0.05792856  1  -0.037503  0.002823  -0.089763  -0.193046  0.000932  3.914837  0.002
C  C135  1  0.92708550  0.76928334  0.44206988  1  -0.037183  0.002835  -0.089716  -0.193103  0.000939  3.915039  0.002
C  C136  1  0.09808677  0.95734576  0.84726764  1  1.556088  -0.008664  0.217043  0.588111  -0.010089  4.167784  -0.006
C  C137  1  0.90194403  0.45736358  0.65273264  1  1.555157  -0.008661  0.216952  0.588125  -0.010088  4.168161  -0.006
C  C138  1  0.90190753  0.04265011  0.15272084  1  1.555423  -0.008661  0.216883  0.587721  -0.010084  4.168384  -0.006
C  C139  1  0.09806668  0.54264715  0.34725548  1  1.555173  -0.008659  0.216959  0.588021  -0.01008  4.168119  -0.006
C  C140  1  0.86863390  0.67247776  0.79937311  1  1.52963  -0.011303  0.2178  0.589815  -0.013232  4.170827  -0.008
C  C141  1  0.13136175  0.17248392  0.70063565  1  1.530581  -0.011285  0.217875  0.589993  -0.013211  4.170717  -0.008
C  C142  1  0.13136386  0.32751541  0.20063102  1  1.529812  -0.011287  0.2179  0.589865  -0.013216  4.170603  -0.008
C  C143  1  0.86865414  0.82752141  0.29936890  1  1.530152  -0.01128  0.217999  0.590101  -0.013206  4.170444  -0.008
C  C144  1  0.71537942  0.66113388  0.14037358  1  0.404076  -0.010803  0.042381  0.087776  -0.011527  3.96399  -0.006
C  C145  1  0.28463621  0.16115727  0.35961282  1  0.403645  -0.010802  0.042406  0.087749  -0.01153  3.964017  -0.006
C  C146  1  0.28461748  0.33887348  0.85963109  1  0.404142  -0.010798  0.04234  0.087762  -0.011523  3.964049  -0.006
C  C147  1  0.71537105  0.83885346  0.64038051  1  0.403881  -0.010806  0.04241  0.087796  -0.011535  3.963972  -0.006
C  C148  1  0.68120498  0.57412473  0.11540248  1  -0.065248  0.004163  -0.081286  -0.127584  0.001741  3.971843  0.004
C  C149  1  0.31881199  0.07414482  0.38457333  1  -0.06551  0.004163  -0.081095  -0.127282  0.001741  3.971062  0.004
C  C150  1  0.31880573  0.42588195  0.88459791  1  -0.065802  0.004163  -0.081185  -0.127555  0.001741  3.971881  0.004
C  C151  1  0.68119785  0.92586659  0.61541287  1  -0.065844  0.004164  -0.08125  -0.127605  0.001742  3.971438  0.004
C  C152  1  0.64029790  0.55877209  0.03224207  1  0.074221  -0.016623  -0.062344  -0.016397  -0.017744  3.946514  -0.01
C  C153  1  0.35970505  0.05878610  0.46774203  1  0.05513  -0.016654  -0.06235  -0.01652  -0.017762  3.946511  -0.01
C  C154  1  0.35970073  0.44123392  0.96776215  1  0.073608  -0.01662  -0.062304  -0.016212  -0.01774  3.946164  -0.01
C  C155  1  0.64029444  0.94121517  0.53224875  1  0.054486  -0.016652  -0.062251  -0.016389  -0.017759  3.946624  -0.01
C  C156  1  0.63218684  0.63146949  0.97751779  1  0.0029  0.003735  -0.069623  -0.138625  0.001507  3.88772  0.003
C  C157  1  0.36782549  0.13148162  0.52246845  1  0.021378  0.003751  -0.069771  -0.138796  0.001507  3.887585  0.003
C  C158  1  0.36782042  0.36853516  0.02248659  1  0.003313  0.003734  -0.069732  -0.138716  0.001507  3.887409  0.003
C  C159  1  0.63216709  0.86851424  0.47752662  1  0.023087  0.003752  -0.069699  -0.138571  0.001508  3.887617  0.003
C  C160  1  0.66654242  0.71736076  0.00733891  1  0.441588  -0.010028  0.119284  0.163429  -0.011444  3.992351  -0.006
C  C161  1  0.33346020  0.21737715  0.49264789  1  0.441714  -0.010047  0.119487  0.163701  -0.011462  3.992296  -0.006
C  C162  1  0.33344326  0.28264524  0.99266352  1  0.441565  -0.010028  0.119349  0.163423  -0.011443  3.992216  -0.006
C  C163  1  0.66653583  0.78262480  0.50734934  1  0.441638  -0.010043  0.119446  0.163667  -0.011457  3.992373  -0.006
C  C164  1  0.66446351  0.79803724  0.95446956  1  0.459779  -0.011847  0.118022  0.15964  -0.013269  4.003814  -0.007
C  C165  1  0.33553652  0.29804693  0.54551538  1  0.460831  -0.01186  0.1179  0.159349  -0.013283  4.004111  -0.007
C  C166  1  0.33552648  0.20196606  0.04552958  1  0.460326  -0.011844  0.118108  0.159914  -0.013264  4.003787  -0.007
C  C167  1  0.66445693  0.70195096  0.45448162  1  0.460852  -0.011844  0.117911  0.159241  -0.013269  4.004346  -0.007
C  C168  1  0.60940673  0.80081487  0.87329143  1  -0.007153  0.005407  -0.075122  -0.146429  0.002319  3.922895  0.005
C  C169  1  0.39059247  0.30082123  0.62669838  1  -0.006691  0.005409  -0.075112  -0.146072  0.002319  3.922468  0.005
C  C170  1  0.39057981  0.19919046  0.12671046  1  -0.007245  0.005407  -0.075103  -0.146557  0.002318  3.92264  0.005
C  C171  1  0.60940529  0.69917328  0.37330023  1  -0.007097  0.005405  -0.075246  -0.146255  0.002317  3.922741  0.005
C  C172  1  0.61200505  0.88028426  0.82779963  1  -0.080151  -0.019586  -0.069962  -0.027319  -0.020726  3.956936  -0.012
C  C173  1  0.38799184  0.38028278  0.67220424  1  -0.080778  -0.019606  -0.069918  -0.027523  -0.020746  3.956553  -0.012
C  C174  1  0.38798666  0.11971566  0.17220089  1  -0.080331  -0.019582  -0.069943  -0.027215  -0.020721  3.95655  -0.012
C  C175  1  0.61200851  0.61971241  0.32779399  1  -0.080347  -0.019587  -0.069811  -0.027266  -0.020726  3.956433  -0.012
C  C176  1  0.67104291  0.95486737  0.86462977  1  -0.066808  0.00574  -0.084693  -0.131821  0.002388  3.973219  0.005
C  C177  1  0.32895072  0.45486606  0.63536895  1  -0.067086  0.005744  -0.084731  -0.131823  0.002389  3.972968  0.005
C  C178  1  0.32895485  0.04513052  0.13536884  1  -0.067135  0.005737  -0.084742  -0.131834  0.002386  3.973137  0.005
C  C179  1  0.67103063  0.54512169  0.36463002  1  -0.067403  0.005738  -0.08472  -0.131872  0.002387  3.973089  0.005
C  C180  1  0.72322596  0.94781424  0.94604172  1  0.506371  -0.013531  0.048376  0.099451  -0.014306  3.931567  -0.008
C  C181  1  0.27677016  0.44780613  0.55395281  1  0.50614  -0.01354  0.048323  0.099499  -0.014315  3.931766  -0.008
C  C182  1  0.27676662  0.05219244  0.05396011  1  0.506306  -0.013527  0.048353  0.099533  -0.014302  3.931733  -0.008
C  C183  1  0.72322328  0.55218297  0.44604050  1  0.50559  -0.013527  0.048293  0.09945  -0.014302  3.931695  -0.008
N  N184  1  0.33824823  0.83684183  0.92554765  1  -1.270246  0.000425  -0.588201  -0.60957  7e-05  3.358335  0.0
N  N185  1  0.66177395  0.33684286  0.57445837  1  -1.270531  0.000425  -0.588006  -0.609139  7e-05  3.358662  0.0
N  N186  1  0.66174954  0.16317093  0.07446569  1  -1.271074  0.000425  -0.588117  -0.6093  7e-05  3.358306  0.0
N  N187  1  0.33824281  0.66316923  0.42554012  1  -1.270594  0.000425  -0.588166  -0.609224  7e-05  3.358903  0.0
N  N188  1  0.95832626  0.79406319  0.08035262  1  -1.185272  0.054255  -0.585546  -0.590444  0.028124  3.446985  0.045
N  N189  1  0.04167573  0.29405509  0.41965080  1  -1.187721  0.054263  -0.58524  -0.589725  0.028128  3.446728  0.045
N  N190  1  0.04167237  0.20594350  0.91963994  1  -1.184365  0.054251  -0.585463  -0.590304  0.028122  3.446666  0.045
N  N191  1  0.95831426  0.70593807  0.58035263  1  -1.185074  0.054259  -0.585463  -0.590157  0.028127  3.447066  0.045
N  N192  1  0.72012304  0.87137635  0.99026035  1  -1.228076  0.061311  -0.328568  -0.277723  0.033577  3.588139  0.051
N  N193  1  0.27986162  0.37137815  0.50972077  1  -1.227891  0.061311  -0.328617  -0.277809  0.033582  3.588536  0.051
N  N194  1  0.27986781  0.12862898  0.00973886  1  -1.228203  0.061302  -0.328683  -0.278071  0.033576  3.588402  0.051
N  N195  1  0.72012318  0.62861501  0.49027114  1  -1.227919  0.061306  -0.328468  -0.277549  0.033581  3.588244  0.051
N  N196  1  0.70930276  0.73163234  0.08781380  1  -1.234377  0.056342  -0.324217  -0.293482  0.030592  3.565158  0.049
N  N197  1  0.29070006  0.23165823  0.41217143  1  -1.234402  0.056354  -0.324398  -0.293748  0.030601  3.565664  0.049
N  N198  1  0.29068982  0.26836758  0.91218680  1  -1.234218  0.056334  -0.324306  -0.29368  0.030587  3.56497  0.049
N  N199  1  0.70930979  0.76834980  0.58782336  1  -1.234138  0.056337  -0.324357  -0.293758  0.030594  3.56552  0.049
O  O200  1  0.66062942  0.94227681  0.15922853  1  -1.155517  0.108114  -0.315781  -0.596502  0.057167  2.441855  0.092
O  O201  1  0.33934964  0.44229815  0.34079379  1  -1.155887  0.108168  -0.315828  -0.59675  0.057199  2.442392  0.092
O  O202  1  0.33937957  0.05770012  0.84078583  1  -1.155684  0.108129  -0.315718  -0.596546  0.057172  2.442006  0.092
O  O203  1  0.66064294  0.55770988  0.65920681  1  -1.155848  0.108168  -0.315853  -0.596652  0.057197  2.442243  0.092
O  O204  1  0.56528595  0.92187910  0.26692787  1  -1.154278  0.068211  -0.301782  -0.53573  0.034845  2.151285  0.058
O  O205  1  0.43473168  0.42188259  0.23310986  1  -1.15415  0.068247  -0.30185  -0.53571  0.034856  2.15133  0.058
O  O206  1  0.43473945  0.07811271  0.73309104  1  -1.153714  0.068215  -0.301907  -0.535717  0.034844  2.151303  0.058
O  O207  1  0.56527471  0.57810719  0.76688769  1  -1.153561  0.068257  -0.301669  -0.535476  0.034863  2.151715  0.058
O  O208  1  0.34692284  0.62866391  0.24640246  1  -1.129108  0.065485  -0.314817  -0.561937  0.033141  2.226489  0.058
O  O209  1  0.65305951  0.12869772  0.25358160  1  -1.129056  0.065482  -0.314929  -0.562103  0.033138  2.225938  0.057
O  O210  1  0.65310169  0.37131911  0.75359550  1  -1.128618  0.065461  -0.314871  -0.561953  0.033126  2.226341  0.057
O  O211  1  0.34691666  0.87130964  0.74640953  1  -1.128628  0.065504  -0.314701  -0.561754  0.033148  2.225953  0.058
O  O212  1  0.27809766  0.57171122  0.12452695  1  -1.130415  0.100308  -0.318928  -0.542186  0.05149  2.185462  0.083
O  O213  1  0.72194086  0.07173048  0.37542929  1  -1.131284  0.100389  -0.318847  -0.542171  0.051531  2.185643  0.083
O  O214  1  0.72193895  0.42827788  0.87546843  1  -1.130276  0.100299  -0.319038  -0.542307  0.051488  2.185448  0.083
O  O215  1  0.27807848  0.92826876  0.62454856  1  -1.130298  0.100348  -0.318814  -0.542073  0.051514  2.185461  0.083
O  O216  1  0.11691585  0.02655520  0.89391647  1  -1.165782  0.076  -0.31287  -0.548241  0.040063  2.421024  0.066
O  O217  1  0.88310448  0.52656400  0.60607605  1  -1.165291  0.075992  -0.31269  -0.548059  0.040057  2.421066  0.066
O  O218  1  0.88308795  0.97345486  0.10605200  1  -1.165086  0.075972  -0.312706  -0.547947  0.040053  2.420734  0.066
O  O219  1  0.11690018  0.47344268  0.39390600  1  -1.164987  0.075979  -0.312675  -0.548124  0.040049  2.421004  0.066
O  O220  1  0.12808110  0.94762991  0.77535414  1  -1.144212  0.087897  -0.311285  -0.551757  0.045432  2.377741  0.075
O  O221  1  0.87192452  0.44765310  0.72463695  1  -1.144092  0.087872  -0.311276  -0.551778  0.045429  2.377829  0.075
O  O222  1  0.87192443  0.05234770  0.22463965  1  -1.144052  0.087891  -0.311216  -0.551638  0.04544  2.378201  0.075
O  O223  1  0.12806374  0.55236710  0.27534484  1  -1.143813  0.087895  -0.311341  -0.55179  0.045433  2.377717  0.075
O  O224  1  0.86609686  0.68718561  0.72201759  1  -1.168138  0.071905  -0.317846  -0.568308  0.038248  2.463638  0.063
O  O225  1  0.13390419  0.18720694  0.77799008  1  -1.168296  0.071899  -0.317967  -0.568423  0.038246  2.463424  0.063
O  O226  1  0.13388882  0.31280890  0.27798791  1  -1.168218  0.071898  -0.317895  -0.568362  0.038246  2.463356  0.063
O  O227  1  0.86611603  0.81279569  0.22201670  1  -1.168311  0.071865  -0.318011  -0.5685  0.038231  2.463459  0.063
O  O228  1  0.82124279  0.60587985  0.83138147  1  -1.139285  0.088371  -0.307124  -0.545557  0.045931  2.401674  0.075
O  O229  1  0.17874673  0.10588093  0.66863665  1  -1.140272  0.088307  -0.307119  -0.545667  0.045893  2.401519  0.075
O  O230  1  0.17872820  0.39411939  0.16861596  1  -1.139497  0.088333  -0.307232  -0.545701  0.045915  2.401377  0.075
O  O231  1  0.82125017  0.89411832  0.33137171  1  -1.139745  0.08832  -0.307229  -0.545725  0.045899  2.401139  0.075
