# generated using pymatgen
data_CdH27C35N5O12
_symmetry_space_group_name_H-M   'P 1'
_cell_length_a   8.35705390
_cell_length_b   14.20287890
_cell_length_c   16.65440640
_cell_angle_alpha   69.47136878
_cell_angle_beta   87.75493899
_cell_angle_gamma   74.63256766
_symmetry_Int_Tables_number   1
_chemical_formula_structural   CdH27C35N5O12
_chemical_formula_sum   'Cd2 H54 C70 N10 O24'
_cell_volume   1781.89518651
_cell_formula_units_Z   2
loop_
 _symmetry_equiv_pos_site_id
 _symmetry_equiv_pos_as_xyz
  1  'x, y, z'
loop_
 _atom_site_type_symbol
 _atom_site_label
 _atom_site_symmetry_multiplicity
 _atom_site_fract_x
 _atom_site_fract_y
 _atom_site_fract_z
 _atom_site_occupancy
 _atom_site_pbe_bader_charge
 _atom_site_pbe_bader_spin_density
 _atom_site_pbe_cm5_charge
 _atom_site_pbe_ddec_charge
 _atom_site_pbe_ddec_spin_density
 _atom_site_pbe_ddec_sum_bond_order
 _atom_site_pbe_magmom
Cd  Cd0  1  0.99740570  0.64732424  0.38511120  1  1.286955  0  0.779345  0.949201  0  2.09244  0
Cd  Cd1  1  0.42585319  0.36690453  0.17821526  1  1.296381  0  0.780125  0.967998  0  2.047057  0
H  H2  1  0.37295331  0.54518248  0.41428071  1  0.663837  0  0.300616  0.402806  0  0.92309  0
H  H3  1  0.34792482  0.59014034  0.31350666  1  0.658996  0  0.300791  0.411525  0  0.909342  0
H  H4  1  0.05676276  0.47963470  0.15127905  1  0.6529  0  0.296343  0.397779  0  0.931683  0
H  H5  1  0.07461015  0.43028196  0.25224449  1  0.667806  0  0.297687  0.401183  0  0.921712  0
H  H6  1  0.70179008  0.90151570  0.46370427  1  0.113706  0  0.127136  0.095037  0  0.977462  0
H  H7  1  0.79510252  0.04053482  0.49165863  1  0.040045  0  0.084514  0.118012  0  1.029738  0
H  H8  1  0.87868636  0.01632050  0.39904420  1  0.030723  0  0.096216  0.140478  0  1.004705  0
H  H9  1  0.00658890  0.96897577  0.49521044  1  0.058764  0  0.089596  0.133356  0  1.030698  0
H  H10  1  0.34877615  0.83053070  0.68335285  1  0.134043  0  0.112804  0.120211  0  1.012715  0
H  H11  1  0.30209597  0.77485235  0.84179312  1  0.085485  0  0.107003  0.102835  0  1.030615  0
H  H12  1  0.17355969  0.68942767  0.77497790  1  0.104149  0  0.112938  0.115743  0  1.000886  0
H  H13  1  0.12700325  0.61884072  0.93292918  1  0.119507  0  0.122062  0.131629  0  0.97254  0
H  H14  1  0.76052099  0.57892395  0.15625902  1  0.139291  0  0.128779  0.102129  0  0.964174  0
H  H15  1  0.47425533  0.77762991  0.12318041  1  0.106458  0  0.086576  0.133801  0  1.040476  0
H  H16  1  0.68982976  0.77250202  0.12205801  1  0.041657  0  0.083162  0.119265  0  1.031863  0
H  H17  1  0.60748320  0.70442285  0.21800359  1  0.057424  0  0.095108  0.146616  0  1.012506  0
H  H18  1  0.29504055  0.15430331  0.03760402  1  0.120626  0  0.12631  0.098491  0  0.978291  0
H  H19  1  0.55181541  0.98730222  0.06614147  1  0.018243  0  0.087799  0.122543  0  1.03043  0
H  H20  1  0.42675862  0.00203040  0.15064181  1  0.029109  0  0.095918  0.138422  0  1.008828  0
H  H21  1  0.62135857  0.03132778  0.14316042  1  0.045676  0  0.088348  0.123928  0  1.032014  0
H  H22  1  0.19192587  0.35216210  0.74500148  1  0.106354  0  0.11577  0.120793  0  0.995708  0
H  H23  1  0.29738972  0.41921515  0.59934706  1  0.137989  0  0.120407  0.129088  0  0.977114  0
H  H24  1  0.97623979  0.16951538  0.91905899  1  0.156963  0  0.113893  0.124422  0  0.999039  0
H  H25  1  0.08306044  0.21972419  0.77231738  1  0.087479  0  0.107556  0.105165  0  1.036806  0
H  H26  1  0.96597243  0.28772101  0.47995323  1  0.116013  0  0.121233  0.090353  0  1.014604  0
H  H27  1  0.63138177  0.40389405  0.37856268  1  0.078128  0  0.089243  0.132491  0  1.033248  0
H  H28  1  0.69249296  0.26780546  0.44247520  1  0.044616  0  0.085558  0.123466  0  1.01284  0
H  H29  1  0.80553361  0.32008547  0.35343027  1  0.09458  0  0.093725  0.138084  0  1.03926  0
H  H30  1  0.30352373  0.42154700  0.34664862  1  0.165467  0  0.119135  0.082705  0  1.037733  0
H  H31  1  0.25133981  0.32686430  0.49984429  1  0.114621  0  0.117071  0.139714  0  1.007627  0
H  H32  1  0.48907087  0.03779270  0.46264617  1  0.120585  0  0.114134  0.13658  0  1.032948  0
H  H33  1  0.53353627  0.14430887  0.31010780  1  0.159252  0  0.123113  0.100897  0  1.001853  0
H  H34  1  0.89502956  0.03743500  0.61959619  1  0.158558  0  0.117199  0.124664  0  1.006288  0
H  H35  1  0.80212301  0.95568194  0.76658626  1  0.122122  0  0.108819  0.105923  0  1.029488  0
H  H36  1  0.59168907  0.05649655  0.79639684  1  0.114457  0  0.109724  0.108524  0  1.029163  0
H  H37  1  0.49234809  0.98282963  0.94317295  1  0.125042  0  0.116292  0.122233  0  1.00428  0
H  H38  1  0.84636378  0.86903229  0.25251001  1  0.128208  0  0.12404  0.103738  0  0.999632  0
H  H39  1  0.87138164  0.97693084  0.09720627  1  0.171007  0  0.112743  0.131866  0  1.043822  0
H  H40  1  0.16744671  0.69406114  0.06659087  1  0.166908  0  0.11947  0.146965  0  1.006761  0
H  H41  1  0.12646801  0.59818964  0.21995875  1  0.120129  0  0.118923  0.083327  0  1.03577  0
H  H42  1  0.66457806  0.64582894  0.48186952  1  0.119558  0  0.11501  0.045338  0  1.005433  0
H  H43  1  0.24155254  0.82831187  0.33454429  1  0.101497  0  0.104086  0.128071  0  1.03162  0
H  H44  1  0.35003707  0.91542698  0.34685896  1  0.031933  0  0.101877  0.115435  0  0.977213  0
H  H45  1  0.43779787  0.83348597  0.28663564  1  0.077355  0  0.110708  0.131579  0  1.003376  0
H  H46  1  0.25876582  0.69902768  0.48654663  1  0.072481  0  0.098422  0.114871  0  1.02862  0
H  H47  1  0.30622712  0.80048642  0.51237908  1  0.090531  0  0.103358  0.130435  0  1.001852  0
H  H48  1  0.44450813  0.67261468  0.54980156  1  0.064715  0  0.102335  0.110498  0  0.99682  0
H  H49  1  0.76755469  0.19162096  0.14378313  1  0.11486  0  0.117614  0.051107  0  1.033894  0
H  H50  1  0.17405440  0.19318407  0.26528082  1  0.080354  0  0.102224  0.126811  0  1.033508  0
H  H51  1  0.07592337  0.11383308  0.34993940  1  0.072489  0  0.100959  0.118658  0  1.004547  0
H  H52  1  0.97830279  0.24993371  0.29924021  1  0.088492  0  0.108123  0.129392  0  1.027927  0
H  H53  1  0.06896633  0.00029569  0.24485695  1  0.078014  0  0.102838  0.121611  0  1.005139  0
H  H54  1  0.18642093  0.08551111  0.18136208  1  0.086562  0  0.104349  0.124006  0  1.022875  0
H  H55  1  0.99751819  0.08241433  0.13661040  1  0.078009  0  0.105674  0.122474  0  1.025683  0
C  C56  1  0.93027559  0.80090643  0.45859587  1  1.591992  0  0.191491  0.552043  0  4.228307  0
C  C57  1  0.82644372  0.88273137  0.49398662  1  0.271341  0  0.009983  0.038259  0  3.839888  0
C  C58  1  0.88092520  0.98293159  0.46925416  1  -0.031023  0  -0.247719  -0.414673  0  3.938273  0
C  C59  1  0.94322392  0.79368192  0.64428337  1  1.33034  0  0.250853  0.44424  0  4.075129  0
C  C60  1  0.63891431  0.84062698  0.61048801  1  1.324964  0  0.248375  0.437441  0  4.077438  0
C  C61  1  0.61300517  0.79713286  0.70312595  1  0.03538  0  -0.005443  -0.061524  0  3.989402  0
C  C62  1  0.45306915  0.80074903  0.73093419  1  -0.05568  0  -0.066491  -0.078257  0  3.930081  0
C  C63  1  0.42719435  0.76800024  0.81922136  1  0.021802  0  -0.07026  -0.076035  0  3.944673  0
C  C64  1  0.56036308  0.72841411  0.87969133  1  -0.02048  0  0.002456  -0.048804  0  3.964433  0
C  C65  1  0.72434370  0.71632387  0.85266670  1  -0.036562  0  0.00654  0.035915  0  4.006139  0
C  C66  1  0.75097409  0.75334111  0.76349673  1  0.001178  0  0.005488  0.033593  0  4.007702  0
C  C67  1  0.91488354  0.74588700  0.73653475  1  -0.039917  0  -0.002443  -0.061507  0  3.984637  0
C  C68  1  0.04812391  0.69669370  0.79732608  1  -0.007697  0  -0.06378  -0.070495  0  3.927088  0
C  C69  1  0.02207831  0.65732678  0.88549257  1  0.038825  0  -0.058642  -0.064729  0  3.897207  0
C  C70  1  0.86130030  0.66858967  0.91341082  1  -0.015012  0  0.00446  -0.044948  0  3.965067  0
C  C71  1  0.83224891  0.63089719  0.00633356  1  1.339538  0  0.263226  0.457008  0  4.047727  0
C  C72  1  0.53069814  0.70361965  0.97216244  1  1.377051  0  0.257623  0.458087  0  4.054366  0
C  C73  1  0.64040958  0.63006865  0.12381276  1  0.234974  0  0.01523  0.042017  0  3.802115  0
C  C74  1  0.59909490  0.72760137  0.14790228  1  -0.090126  0  -0.251052  -0.410292  0  3.904065  0
C  C75  1  0.51948831  0.56080853  0.15463591  1  1.626353  0  0.206246  0.579818  0  4.188043  0
C  C76  1  0.41955747  0.22445470  0.09970058  1  1.575559  0  0.190855  0.55186  0  4.211663  0
C  C77  1  0.42540943  0.14883811  0.05151343  1  0.269868  0  0.011662  0.035303  0  3.81699  0
C  C78  1  0.51326256  0.03573200  0.10589394  1  0.003215  0  -0.248051  -0.41075  0  3.941259  0
C  C79  1  0.65868560  0.18129626  0.95994391  1  1.359332  0  0.252642  0.451784  0  4.063618  0
C  C80  1  0.37126290  0.23849235  0.89509472  1  1.31222  0  0.247739  0.436167  0  4.082576  0
C  C81  1  0.43422766  0.28259753  0.80930281  1  -0.038819  0  -0.003245  -0.061988  0  3.984035  0
C  C82  1  0.32510449  0.33798599  0.73718363  1  0.027536  0  -0.060849  -0.06255  0  3.907678  0
C  C83  1  0.38477631  0.37553304  0.65505386  1  -0.055538  0  -0.05826  -0.059846  0  3.896466  0
C  C84  1  0.55490803  0.35527488  0.64433433  1  -0.007859  0  0.000878  -0.060115  0  3.977309  0
C  C85  1  0.66786800  0.30004044  0.71682471  1  0.040136  0  0.004375  0.037824  0  4.003197  0
C  C86  1  0.60732376  0.26582713  0.80016165  1  0.008972  0  0.004421  0.032803  0  4.005089  0
C  C87  1  0.72090844  0.21658201  0.87290834  1  -0.050944  0  -0.003026  -0.063503  0  3.979195  0
C  C88  1  0.89016420  0.20321394  0.86258799  1  -0.051317  0  -0.063545  -0.064016  0  3.912859  0
C  C89  1  0.95002126  0.23335910  0.77994314  1  0.015555  0  -0.065999  -0.068053  0  3.936759  0
C  C90  1  0.84118318  0.27996621  0.70741791  1  0.006636  0  -0.003289  -0.063016  0  3.976395  0
C  C91  1  0.90554203  0.30431986  0.62047159  1  1.330607  0  0.250304  0.446  0  4.069397  0
C  C92  1  0.62015935  0.39112186  0.55788677  1  1.35969  0  0.262708  0.461701  0  4.045243  0
C  C93  1  0.85385670  0.35382070  0.46450699  1  0.262104  0  0.010559  0.036481  0  3.807559  0
C  C94  1  0.73716489  0.33611329  0.40657345  1  -0.091972  0  -0.250535  -0.405894  0  3.919947  0
C  C95  1  0.91918775  0.45034044  0.42097970  1  1.601614  0  0.203062  0.572633  0  4.187187  0
C  C96  1  0.34490582  0.33675012  0.37488912  1  0.473169  0  0.059752  0.120624  0  3.930531  0
C  C97  1  0.31765529  0.28465340  0.45991647  1  0.118444  0  -0.075101  -0.195513  0  3.904354  0
C  C98  1  0.37002091  0.17623833  0.49076451  1  0.177207  0  0.108405  0.233899  0  4.014488  0
C  C99  1  0.45127658  0.12272263  0.43881014  1  0.003127  0  -0.077106  -0.199355  0  3.924625  0
C  C100  1  0.47501312  0.18117350  0.35506852  1  0.543046  0  0.060112  0.117244  0  3.922215  0
C  C101  1  0.43743540  0.09934282  0.64507442  1  1.361181  0  0.249821  0.455538  0  4.083261  0
C  C102  1  0.17582216  0.09510301  0.58009678  1  1.380476  0  0.256612  0.454835  0  4.077505  0
C  C103  1  0.12276354  0.04662233  0.66690366  1  -0.057475  0  0.00078  -0.055094  0  3.974296  0
C  C104  1  0.97186477  0.02157165  0.67652605  1  0.062548  0  -0.05838  -0.055636  0  3.892025  0
C  C105  1  0.91852414  0.97758696  0.75887152  1  -0.085451  0  -0.066017  -0.068538  0  3.936118  0
C  C106  1  0.01277927  0.96156702  0.83157706  1  -0.032104  0  -0.006909  -0.073288  0  3.990758  0
C  C107  1  0.16610921  0.98822115  0.82310592  1  -0.073288  0  0.005207  0.027353  0  4.004798  0
C  C108  1  0.22296458  0.02976846  0.73975641  1  0.073878  0  0.007256  0.031289  0  4.00095  0
C  C109  1  0.37778511  0.05436547  0.73133008  1  -0.03812  0  -0.002758  -0.064904  0  3.978821  0
C  C110  1  0.47314921  0.03721958  0.80404832  1  -0.036276  0  -0.067009  -0.074202  0  3.939289  0
C  C111  1  0.41656108  0.99722103  0.88624449  1  0.079553  0  -0.060316  -0.057039  0  3.901875  0
C  C112  1  0.26382525  0.97450435  0.89582104  1  -0.039807  0  0.000819  -0.058194  0  3.980687  0
C  C113  1  0.20321279  0.93519175  0.98236384  1  1.338216  0  0.255142  0.454458  0  4.083568  0
C  C114  1  0.95446597  0.91485373  0.91789322  1  1.369794  0  0.248147  0.449785  0  4.09418  0
C  C115  1  0.91363772  0.83419572  0.20809229  1  0.512057  0  0.058527  0.118401  0  3.913137  0
C  C116  1  0.92812080  0.89316979  0.12307984  1  -0.036885  0  -0.077454  -0.205947  0  3.940651  0
C  C117  1  0.02205740  0.84200510  0.07250447  1  0.279562  0  0.106241  0.229269  0  4.014468  0
C  C118  1  0.09211813  0.73480790  0.10507017  1  0.054691  0  -0.073902  -0.18203  0  3.901557  0
C  C119  1  0.07101730  0.68189373  0.19066932  1  0.479625  0  0.058411  0.121944  0  3.919935  0
C  C120  1  0.61241876  0.70674896  0.41968231  1  1.370004  0  0.165917  0.296553  0  4.119403  0
C  C121  1  0.36524580  0.83819751  0.34192287  1  0.265367  0  -0.135183  -0.271496  0  3.884284  0
C  C122  1  0.35993838  0.73066793  0.49608725  1  0.252061  0  -0.13786  -0.275033  0  3.920517  0
C  C123  1  0.81263752  0.21422391  0.19397072  1  1.35837  0  0.166528  0.288608  0  4.113694  0
C  C124  1  0.05442766  0.18026316  0.28885496  1  0.252209  0  -0.13944  -0.279406  0  3.86923  0
C  C125  1  0.06036752  0.07715165  0.19511867  1  0.225338  0  -0.133895  -0.285133  0  3.89258  0
N  N126  1  0.80251925  0.83757718  0.58663629  1  -1.121987  0  -0.234492  -0.1872  0  3.550195  0
N  N127  1  0.66874384  0.65489252  0.03077988  1  -1.127197  0  -0.223917  -0.177134  0  3.534668  0
N  N128  1  0.48935308  0.18723433  0.96539542  1  -1.1441  0  -0.233296  -0.190697  0  3.559149  0
N  N129  1  0.78862795  0.34749795  0.55018812  1  -1.129121  0  -0.227744  -0.183015  0  3.523032  0
N  N130  1  0.42018356  0.28582445  0.32359181  1  -1.256043  0  -0.325712  -0.230705  0  3.511125  0
N  N131  1  0.32938864  0.11925663  0.57561366  1  -1.1905  0  -0.228345  -0.223809  0  3.60225  0
N  N132  1  0.05899076  0.89995541  0.98716725  1  -1.200499  0  -0.228811  -0.225241  0  3.599884  0
N  N133  1  0.98704254  0.73108972  0.24121575  1  -1.234418  0  -0.329383  -0.231756  0  3.522941  0
N  N134  1  0.45228012  0.75612191  0.41924978  1  -1.216471  0  -0.282927  0.031098  0  3.73638  0
N  N135  1  0.96903633  0.16046865  0.22440280  1  -1.221069  0  -0.28297  0.036871  0  3.71318  0
O  O136  1  0.97778258  0.83534403  0.38355328  1  -1.191359  0  -0.329532  -0.572282  0  2.200227  0
O  O137  1  0.94846455  0.70445366  0.50241462  1  -1.153311  0  -0.349044  -0.576416  0  2.193005  0
O  O138  1  0.52022992  0.88096142  0.55641547  1  -1.130712  0  -0.262721  -0.435916  0  2.162605  0
O  O139  1  0.08243310  0.79838417  0.61908182  1  -1.105167  0  -0.255053  -0.420196  0  2.134613  0
O  O140  1  0.95044130  0.58227089  0.06010943  1  -1.132962  0  -0.25368  -0.448135  0  2.226683  0
O  O141  1  0.38939181  0.72749474  0.99643472  1  -1.10999  0  -0.253571  -0.437897  0  2.211865  0
O  O142  1  0.50504861  0.50847006  0.10770160  1  -1.152708  0  -0.346677  -0.567874  0  2.268461  0
O  O143  1  0.45449975  0.55449754  0.22504618  1  -1.204117  0  -0.325677  -0.578247  0  2.16951  0
O  O144  1  0.40608552  0.18860561  0.18000334  1  -1.163013  0  -0.327891  -0.570348  0  2.208062  0
O  O145  1  0.42508639  0.31752096  0.05754254  1  -1.152811  0  -0.346898  -0.559154  0  2.140999  0
O  O146  1  0.75277036  0.14531054  0.02526241  1  -1.126356  0  -0.257694  -0.437137  0  2.18765  0
O  O147  1  0.22248181  0.24377532  0.90473803  1  -1.101201  0  -0.26494  -0.431396  0  2.133869  0
O  O148  1  0.05627013  0.28409736  0.60999662  1  -1.116425  0  -0.264367  -0.451904  0  2.209125  0
O  O149  1  0.53006963  0.45528376  0.49496134  1  -1.132153  0  -0.251846  -0.440906  0  2.211883  0
O  O150  1  0.93218333  0.50290491  0.46799786  1  -1.149116  0  -0.341718  -0.563025  0  2.259738  0
O  O151  1  0.96227288  0.46869905  0.34490366  1  -1.195675  0  -0.329376  -0.57579  0  2.145156  0
O  O152  1  0.57318073  0.11960323  0.63342443  1  -1.117799  0  -0.273261  -0.448625  0  2.1183  0
O  O153  1  0.09202939  0.11590535  0.51404164  1  -1.10372  0  -0.244637  -0.40667  0  2.153039  0
O  O154  1  0.27087557  0.93238666  0.04752343  1  -1.100664  0  -0.242683  -0.402621  0  2.147259  0
O  O155  1  0.82262872  0.88955097  0.92960986  1  -1.123301  0  -0.275369  -0.450804  0  2.124547  0
O  O156  1  0.29200217  0.59202251  0.36663319  1  -1.290026  0  -0.588107  -0.785963  0  2.017788  0
O  O157  1  0.69972090  0.72617798  0.35599099  1  -1.175386  0  -0.316384  -0.482413  0  2.32723  0
O  O158  1  0.72354495  0.28384201  0.21857526  1  -1.157046  0  -0.311329  -0.472877  0  2.315401  0
O  O159  1  0.12933436  0.42558408  0.19974830  1  -1.295033  0  -0.589647  -0.785065  0  2.013886  0
