# generated using pymatgen
data_CdH3C6NO3
_symmetry_space_group_name_H-M   'P 1'
_cell_length_a   8.68084145
_cell_length_b   9.02688745
_cell_length_c   10.13963142
_cell_angle_alpha   112.70318503
_cell_angle_beta   90.00392551
_cell_angle_gamma   118.73305724
_symmetry_Int_Tables_number   1
_chemical_formula_structural   CdH3C6NO3
_chemical_formula_sum   'Cd4 H12 C24 N4 O12'
_cell_volume   625.58535816
_cell_formula_units_Z   4
loop_
 _symmetry_equiv_pos_site_id
 _symmetry_equiv_pos_as_xyz
  1  'x, y, z'
loop_
 _atom_site_type_symbol
 _atom_site_label
 _atom_site_symmetry_multiplicity
 _atom_site_fract_x
 _atom_site_fract_y
 _atom_site_fract_z
 _atom_site_occupancy
 _atom_site_pbe_bader_spin_density
 _atom_site_pbe_cm5_charge
 _atom_site_pbe_ddec_charge
 _atom_site_pbe_ddec_spin_density
 _atom_site_pbe_ddec_sum_bond_order
 _atom_site_pbe_magmom
Cd  Cd0  1  0.27578190  0.99995696  0.75002968  1  0  0.783474  0.916143  0  2.244327  0
Cd  Cd1  1  0.72421747  0.00004155  0.24996956  1  0  0.783475  0.916151  0  2.244315  0
Cd  Cd2  1  0.00000018  0.99999981  0.99999823  1  0  0.798194  1.103507  0  2.162228  0
Cd  Cd3  1  0.00000084  0.00000091  0.50000042  1  0  0.798408  1.104049  0  2.16194  0
H  H4  1  0.98875642  0.51328922  0.21777497  1  0  0.112516  0.133494  0  0.989166  0
H  H5  1  0.47537601  0.48679892  0.28199868  1  0  0.112344  0.13365  0  0.989281  0
H  H6  1  0.01124363  0.48671066  0.78222277  1  0  0.112519  0.133498  0  0.989132  0
H  H7  1  0.52462406  0.51320100  0.71800202  1  0  0.112346  0.133667  0  0.989254  0
H  H8  1  0.58359951  0.97463925  0.87435319  1  0  0.113761  0.098597  0  1.011351  0
H  H9  1  0.60896970  0.02545947  0.62559094  1  0  0.113538  0.098474  0  1.011269  0
H  H10  1  0.41639871  0.02535928  0.12564803  1  0  0.113747  0.098586  0  1.011342  0
H  H11  1  0.39103038  0.97454046  0.37440976  1  0  0.113528  0.098468  0  1.011281  0
H  H12  1  0.58620011  0.45511294  0.92086592  1  0  0.112838  0.089453  0  1.031483  0
H  H13  1  0.13104136  0.54497087  0.57888085  1  0  0.112794  0.089486  0  1.031087  0
H  H14  1  0.41379740  0.54488415  0.07913185  1  0  0.112804  0.089403  0  1.031438  0
H  H15  1  0.86895687  0.45502766  0.42112037  1  0  0.112793  0.089453  0  1.031079  0
C  C16  1  0.88069455  0.71831612  0.15584801  1  0  0.213547  0.603409  0  4.179218  0
C  C17  1  0.16248720  0.28165540  0.34404363  1  0  0.2132  0.60308  0  4.179893  0
C  C18  1  0.11930667  0.28168380  0.84415269  1  0  0.213558  0.603423  0  4.179129  0
C  C19  1  0.83751357  0.71834592  0.65595656  1  0  0.213226  0.603151  0  4.179829  0
C  C20  1  0.80005767  0.50916127  0.07667452  1  0  -0.01834  -0.06074  0  3.987828  0
C  C21  1  0.29079301  0.49087165  0.42306075  1  0  -0.018636  -0.060811  0  3.988133  0
C  C22  1  0.19994195  0.49084005  0.92332567  1  0  -0.018358  -0.060826  0  3.987875  0
C  C23  1  0.70920634  0.50912685  0.57693750  1  0  -0.018661  -0.060886  0  3.988169  0
C  C24  1  0.87186828  0.42535580  0.12538927  1  0  -0.08186  -0.174072  0  3.896135  0
C  C25  1  0.44638747  0.57473871  0.37434974  1  0  -0.081806  -0.174496  0  3.896713  0
C  C26  1  0.12813133  0.57464551  0.87460993  1  0  -0.081864  -0.17407  0  3.896103  0
C  C27  1  0.55361214  0.42526258  0.62564846  1  0  -0.081797  -0.174533  0  3.89674  0
C  C28  1  0.79321492  0.22918167  0.05557019  1  0  0.075323  0.301325  0  4.156678  0
C  C29  1  0.56396737  0.77091404  0.44421869  1  0  0.075542  0.301686  0  4.157601  0
C  C30  1  0.20678559  0.77081683  0.94442904  1  0  0.075322  0.3013  0  4.156665  0
C  C31  1  0.43603154  0.22908587  0.55578103  1  0  0.075573  0.301753  0  4.157602  0
C  C32  1  0.64480997  0.12662373  0.93507153  1  0  0.030381  -0.032713  0  3.916336  0
C  C33  1  0.51813682  0.87351013  0.56473864  1  0  0.030621  -0.032856  0  3.915107  0
C  C34  1  0.35518940  0.87337479  0.06492870  1  0  0.030422  -0.032636  0  3.916278  0
C  C35  1  0.48186395  0.12649119  0.43526254  1  0  0.030607  -0.03293  0  3.915164  0
C  C36  1  0.64845874  0.39509682  0.95944073  1  0  0.032879  0.046011  0  3.936588  0
C  C37  1  0.25326694  0.60497736  0.54024601  1  0  0.032574  0.045186  0  3.937334  0
C  C38  1  0.35154018  0.60490309  0.04055898  1  0  0.03295  0.04617  0  3.93651  0
C  C39  1  0.74673384  0.39502398  0.45975616  1  0  0.032575  0.045264  0  3.93723  0
N  N40  1  0.57277353  0.20709920  0.89109676  1  0  -0.3378  -0.2431  0  3.577279  0
N  N41  1  0.36557279  0.79297912  0.60863979  1  0  -0.337343  -0.241984  0  3.576487  0
N  N42  1  0.42722468  0.79289931  0.10890248  1  0  -0.337827  -0.243169  0  3.57734  0
N  N43  1  0.63442800  0.20702222  0.39136238  1  0  -0.337362  -0.241982  0  3.576433  0
O  O44  1  0.81613599  0.78922196  0.09975142  1  0  -0.341426  -0.611107  0  2.344782  0
O  O45  1  0.02711650  0.21078544  0.40021558  1  0  -0.340925  -0.610761  0  2.345015  0
O  O46  1  0.18386523  0.21077796  0.90024928  1  0  -0.341426  -0.611076  0  2.344725  0
O  O47  1  0.97288402  0.78921306  0.59978366  1  0  -0.340931  -0.610786  0  2.345035  0
O  O48  1  0.00296993  0.80730863  0.27095577  1  0  -0.321975  -0.55876  0  2.274936  0
O  O49  1  0.19582745  0.19254608  0.22904939  1  0  -0.322234  -0.559007  0  2.274663  0
O  O50  1  0.99703084  0.19269268  0.72904442  1  0  -0.321986  -0.558785  0  2.2749  0
O  O51  1  0.80417402  0.80745664  0.77095127  1  0  -0.322242  -0.559014  0  2.274646  0
O  O52  1  0.85217296  0.14299121  0.10279909  1  0  -0.380679  -0.601688  0  2.456422  0
O  O53  1  0.70917606  0.85702128  0.39708497  1  0  -0.380607  -0.601685  0  2.457453  0
O  O54  1  0.14782596  0.85700870  0.89720063  1  0  -0.380697  -0.601699  0  2.456389  0
O  O55  1  0.29082445  0.14297721  0.60291327  1  0  -0.380601  -0.601665  0  2.457506  0
