# generated using pymatgen
data_CaH18C10N2(ClO2)2
_symmetry_space_group_name_H-M   'P 1'
_cell_length_a   7.55868464
_cell_length_b   9.22568249
_cell_length_c   10.62116821
_cell_angle_alpha   90.00028554
_cell_angle_beta   106.96534413
_cell_angle_gamma   89.99971610
_symmetry_Int_Tables_number   1
_chemical_formula_structural   CaH18C10N2(ClO2)2
_chemical_formula_sum   'Ca2 H36 C20 N4 Cl4 O8'
_cell_volume   708.42447573
_cell_formula_units_Z   2
loop_
 _symmetry_equiv_pos_site_id
 _symmetry_equiv_pos_as_xyz
  1  'x, y, z'
loop_
 _atom_site_type_symbol
 _atom_site_label
 _atom_site_symmetry_multiplicity
 _atom_site_fract_x
 _atom_site_fract_y
 _atom_site_fract_z
 _atom_site_occupancy
 _atom_site_pbe_bader_spin_density
 _atom_site_pbe_cm5_charge
 _atom_site_pbe_ddec_charge
 _atom_site_pbe_ddec_spin_density
 _atom_site_pbe_ddec_sum_bond_order
 _atom_site_pbe_magmom
Ca  Ca0  1  0.49999960  0.50000068  0.99999980  1  0  0.732731  1.343289  0  1.585617  0
Ca  Ca1  1  0.99999836  0.00000088  0.99999900  1  0  0.732679  1.343284  0  1.58564  0
H  H2  1  0.90095061  0.62953364  0.16624348  1  0  0.124787  0.092815  0  1.021363  0
H  H3  1  0.59905048  0.12953418  0.83375540  1  0  0.124792  0.092855  0  1.021366  0
H  H4  1  0.09904818  0.37046588  0.83375774  1  0  0.124792  0.092807  0  1.021382  0
H  H5  1  0.40094692  0.87046752  0.16624553  1  0  0.124787  0.092833  0  1.021321  0
H  H6  1  0.19225125  0.79159400  0.31609867  1  0  0.094827  0.098177  0  1.034613  0
H  H7  1  0.30774836  0.29159497  0.68389860  1  0  0.09486  0.098262  0  1.034588  0
H  H8  1  0.80774892  0.20840444  0.68390189  1  0  0.094845  0.098248  0  1.034581  0
H  H9  1  0.69225319  0.70840672  0.31610036  1  0  0.094858  0.098263  0  1.034593  0
H  H10  1  0.04797238  0.69464776  0.39190945  1  0  0.094121  0.09519  0  0.998281  0
H  H11  1  0.45202907  0.19464553  0.60808780  1  0  0.094103  0.095175  0  0.998265  0
H  H12  1  0.95202917  0.30535177  0.60809046  1  0  0.094119  0.095197  0  0.99829  0
H  H13  1  0.54797249  0.80535399  0.39191117  1  0  0.094116  0.095197  0  0.998268  0
H  H14  1  0.41322134  0.57937522  0.35704787  1  0  0.092226  0.093789  0  1.017678  0
H  H15  1  0.08678203  0.07937686  0.64295211  1  0  0.092246  0.093822  0  1.017678  0
H  H16  1  0.58678021  0.42062322  0.64295204  1  0  0.09224  0.093806  0  1.017678  0
H  H17  1  0.91321952  0.92062484  0.35704874  1  0  0.092239  0.093804  0  1.017686  0
H  H18  1  0.35387763  0.59650080  0.50791080  1  0  0.086984  0.105408  0  1.034029  0
H  H19  1  0.14612152  0.09649698  0.49208931  1  0  0.086965  0.1054  0  1.034051  0
H  H20  1  0.64612254  0.40349872  0.49208882  1  0  0.086973  0.105391  0  1.034044  0
H  H21  1  0.85387866  0.90350255  0.50791125  1  0  0.08697  0.105401  0  1.034044  0
H  H22  1  0.28969809  0.33694252  0.37720985  1  0  0.102803  0.093965  0  1.008877  0
H  H23  1  0.21030408  0.83694110  0.62279191  1  0  0.102798  0.093932  0  1.008907  0
H  H24  1  0.71030485  0.66305484  0.62278940  1  0  0.10278  0.093907  0  1.008894  0
H  H25  1  0.78969471  0.16305843  0.37720930  1  0  0.102795  0.093924  0  1.008832  0
H  H26  1  0.11444126  0.41234995  0.43968872  1  0  0.105981  0.085553  0  0.97806  0
H  H27  1  0.38556333  0.91234744  0.56031481  1  0  0.105976  0.085551  0  0.978054  0
H  H28  1  0.88556168  0.58764849  0.56031054  1  0  0.105991  0.085551  0  0.978029  0
H  H29  1  0.61443684  0.08765208  0.43968669  1  0  0.105972  0.085527  0  0.978046  0
H  H30  1  0.12969546  0.39823852  0.16945095  1  0  0.326236  0.282614  0  0.911647  0
H  H31  1  0.37030366  0.89824199  0.83055232  1  0  0.326283  0.282684  0  0.91158  0
H  H32  1  0.87030471  0.60175993  0.83054867  1  0  0.326228  0.282613  0  0.911648  0
H  H33  1  0.62969513  0.10175970  0.16944890  1  0  0.326253  0.282654  0  0.911615  0
H  H34  1  0.94209881  0.40189422  0.22928086  1  0  0.28518  0.261928  0  0.984463  0
H  H35  1  0.55790101  0.90189536  0.77072362  1  0  0.285179  0.261961  0  0.984477  0
H  H36  1  0.05790275  0.59810531  0.77071999  1  0  0.285174  0.26193  0  0.984469  0
H  H37  1  0.44209916  0.09810525  0.22927788  1  0  0.285163  0.261942  0  0.98449  0
C  C38  1  0.13852259  0.64102466  0.09481753  1  0  0.233559  0.619717  0  4.16942  0
C  C39  1  0.36148603  0.14103212  0.90518757  1  0  0.233489  0.619558  0  4.169632  0
C  C40  1  0.86147897  0.35897812  0.90518238  1  0  0.233538  0.619687  0  4.169458  0
C  C41  1  0.63851276  0.85896632  0.09481459  1  0  0.233455  0.619576  0  4.169526  0
C  C42  1  0.04910311  0.60560555  0.20339918  1  0  0.010835  -0.020771  0  3.727618  0
C  C43  1  0.45089876  0.10560877  0.79660154  1  0  0.010779  -0.020858  0  3.727734  0
C  C44  1  0.95089707  0.39439289  0.79660044  1  0  0.010828  -0.020707  0  3.727648  0
C  C45  1  0.54910002  0.89439076  0.20339780  1  0  0.010813  -0.02073  0  3.727628  0
C  C46  1  0.14555803  0.68272740  0.33343830  1  0  -0.158234  -0.182891  0  3.881778  0
C  C47  1  0.35444348  0.18272917  0.66656173  1  0  -0.158257  -0.182957  0  3.881837  0
C  C48  1  0.85444353  0.31726996  0.66656161  1  0  -0.158233  -0.182977  0  3.881809  0
C  C49  1  0.64555807  0.81727144  0.33343818  1  0  -0.158261  -0.183011  0  3.881762  0
C  C50  1  0.29922097  0.57684786  0.40183988  1  0  -0.171281  -0.190924  0  3.922418  0
C  C51  1  0.20078103  0.07684769  0.59815886  1  0  -0.171259  -0.190912  0  3.922404  0
C  C52  1  0.70078058  0.42315167  0.59816003  1  0  -0.171246  -0.190881  0  3.922442  0
C  C53  1  0.79922052  0.92315401  0.40184105  1  0  -0.171244  -0.1909  0  3.922352  0
C  C54  1  0.20123996  0.43133137  0.37452901  1  0  -0.062713  -0.016604  0  3.763467  0
C  C55  1  0.29876039  0.93133069  0.62547183  1  0  -0.062717  -0.016554  0  3.763517  0
C  C56  1  0.79876298  0.56866599  0.62547024  1  0  -0.062724  -0.016524  0  3.763544  0
C  C57  1  0.70123702  0.06866667  0.37452815  1  0  -0.062696  -0.016476  0  3.763426  0
N  N58  1  0.07261609  0.44639028  0.23665008  1  0  -0.47073  -0.223702  0  3.481312  0
N  N59  1  0.42738281  0.94639205  0.76335241  1  0  -0.470754  -0.223808  0  3.481408  0
N  N60  1  0.92738409  0.55360924  0.76335048  1  0  -0.470726  -0.223759  0  3.481363  0
N  N61  1  0.57261460  0.05360748  0.23664758  1  0  -0.470719  -0.2238  0  3.481419  0
Cl  Cl62  1  0.67693740  0.41108981  0.25331235  1  0  -0.319546  -0.619072  0  0.938524  0
Cl  Cl63  1  0.82306376  0.91108323  0.74668681  1  0  -0.319537  -0.619061  0  0.938521  0
Cl  Cl64  1  0.32306415  0.58891080  0.74668756  1  0  -0.319547  -0.619064  0  0.93852  0
Cl  Cl65  1  0.17693503  0.08891629  0.25331159  1  0  -0.319532  -0.619053  0  0.938519  0
O  O66  1  0.22909929  0.54045186  0.06014659  1  0  -0.368281  -0.621444  0  2.229756  0
O  O67  1  0.27090427  0.04046749  0.93985891  1  0  -0.368144  -0.621278  0  2.229911  0
O  O68  1  0.77090088  0.45954875  0.93985115  1  0  -0.368269  -0.621406  0  2.229864  0
O  O69  1  0.72909452  0.95953420  0.06013854  1  0  -0.368209  -0.621384  0  2.229766  0
O  O70  1  0.11586899  0.76807533  0.04940731  1  0  -0.373126  -0.625448  0  2.25038  0
O  O71  1  0.38413765  0.26809056  0.95058849  1  0  -0.373149  -0.625391  0  2.250395  0
O  O72  1  0.88412565  0.23192311  0.95059116  1  0  -0.373129  -0.625476  0  2.250309  0
O  O73  1  0.61586114  0.73191113  0.04941084  1  0  -0.373084  -0.625365  0  2.250433  0
