# generated using pymatgen
data_Zn2H32C45N2(Cl3O4)2
_symmetry_space_group_name_H-M   'P 1'
_cell_length_a   12.43745226
_cell_length_b   12.63476580
_cell_length_c   22.46738722
_cell_angle_alpha   89.90480356
_cell_angle_beta   89.83361791
_cell_angle_gamma   89.32999288
_symmetry_Int_Tables_number   1
_chemical_formula_structural   Zn2H32C45N2(Cl3O4)2
_chemical_formula_sum   'Zn4 H64 C90 N4 Cl12 O16'
_cell_volume   3530.36079820
_cell_formula_units_Z   2
loop_
 _symmetry_equiv_pos_site_id
 _symmetry_equiv_pos_as_xyz
  1  'x, y, z'
loop_
 _atom_site_type_symbol
 _atom_site_label
 _atom_site_symmetry_multiplicity
 _atom_site_fract_x
 _atom_site_fract_y
 _atom_site_fract_z
 _atom_site_occupancy
 _atom_site_pbe_bader_charge
 _atom_site_pbe_bader_spin_density
 _atom_site_pbe_cm5_charge
 _atom_site_pbe_ddec_charge
 _atom_site_pbe_ddec_spin_density
 _atom_site_pbe_ddec_sum_bond_order
 _atom_site_pbe_magmom
Zn  Zn0  1  0.61843869  0.50072821  0.49752476  1  1.310487  0  0.664629  0.87065  0  2.321887  0
Zn  Zn1  1  0.38645036  0.50171875  0.49997551  1  1.311959  0  0.665513  0.871678  0  2.324611  0
Zn  Zn2  1  0.00645470  0.89044339  0.00089200  1  1.312721  0  0.666001  0.881772  0  2.296207  0
Zn  Zn3  1  0.99772257  0.12026142  0.00012260  1  1.31602  0  0.665099  0.881714  0  2.296739  0
H  H4  1  0.64434771  0.17260339  0.74606619  1  0.076803  0  0.094746  0.103825  0  1.050861  0
H  H5  1  0.34805827  0.84695594  0.73652717  1  0.060682  0  0.095136  0.104472  0  1.047988  0
H  H6  1  0.30939200  0.12908661  0.74899795  1  0.053604  0  0.093767  0.101322  0  1.036983  0
H  H7  1  0.69547182  0.88091790  0.75147623  1  0.071912  0  0.094064  0.101517  0  1.042563  0
H  H8  1  0.37570883  0.04669810  0.65081208  1  0.049168  0  0.098955  0.106255  0  1.011158  0
H  H9  1  0.64304253  0.95151420  0.65762529  1  0.034449  0  0.099309  0.105715  0  1.00751  0
H  H10  1  0.47099339  0.86981341  0.83576617  1  0.063347  0  0.099167  0.105252  0  1.010646  0
H  H11  1  0.52261483  0.13181385  0.83965515  1  0.044907  0  0.098417  0.104006  0  1.012081  0
H  H12  1  0.64445250  0.83323617  0.25373859  1  0.072156  0  0.094777  0.103498  0  1.051898  0
H  H13  1  0.36952656  0.18442417  0.24772770  1  0.063419  0  0.094178  0.103175  0  1.050911  0
H  H14  1  0.30484203  0.89407828  0.25054674  1  0.066539  0  0.094652  0.102734  0  1.042087  0
H  H15  1  0.69807609  0.11717009  0.25247450  1  0.072634  0  0.094156  0.102609  0  1.038364  0
H  H16  1  0.36743163  0.96109026  0.34414670  1  0.056287  0  0.099393  0.105694  0  1.007972  0
H  H17  1  0.62379678  0.03917208  0.34927984  1  0.035089  0  0.098819  0.105562  0  1.011703  0
H  H18  1  0.48247386  0.12967055  0.15525429  1  0.057549  0  0.097974  0.103316  0  1.014496  0
H  H19  1  0.52773506  0.87777720  0.15709225  1  0.083462  0  0.098788  0.104882  0  1.011594  0
H  H20  1  0.32456111  0.60546197  0.66643337  1  0.023126  0  0.078399  0.116383  0  1.045723  0
H  H21  1  0.25445669  0.70138307  0.62486061  1  0.049433  0  0.087747  0.132583  0  1.000396  0
H  H22  1  0.25649252  0.71054424  0.70418967  1  0.028051  0  0.086001  0.121188  0  1.003441  0
H  H23  1  0.69810987  0.88854719  0.56754316  1  0.035305  0  0.08742  0.120939  0  0.999384  0
H  H24  1  0.63255751  0.78553299  0.52789407  1  0.062952  0  0.090965  0.140131  0  1.004193  0
H  H25  1  0.72547972  0.75346562  0.58402709  1  0.021205  0  0.076878  0.111936  0  1.044232  0
H  H26  1  0.86094828  0.80494076  0.85267871  1  0.042204  0  0.080406  0.118581  0  1.030713  0
H  H27  1  0.94435683  0.90976950  0.83188192  1  0.070885  0  0.09082  0.135965  0  1.001713  0
H  H28  1  0.87132706  0.84055046  0.77628328  1  0.023541  0  0.087444  0.121612  0  1.00012  0
H  H29  1  0.58008275  0.20803960  0.92389334  1  0.037363  0  0.086524  0.122027  0  1.00327  0
H  H30  1  0.72054885  0.23557030  0.92193184  1  0.070058  0  0.083543  0.125331  0  1.017743  0
H  H31  1  0.67196773  0.13735457  0.97026864  1  0.067593  0  0.084523  0.12628  0  1.010143  0
H  H32  1  0.72488383  0.32453218  0.72000299  1  0.022586  0  0.085643  0.121777  0  1.001272  0
H  H33  1  0.66133773  0.41696991  0.67092525  1  0.05526  0  0.086265  0.129591  0  1.003356  0
H  H34  1  0.75194128  0.32235725  0.64202345  1  0.066962  0  0.081411  0.121972  0  1.023337  0
H  H35  1  0.33374451  0.10438841  0.55779707  1  0.030858  0  0.088677  0.123922  0  0.996315  0
H  H36  1  0.40684414  0.20368534  0.51928803  1  0.050813  0  0.089981  0.135047  0  1.012303  0
H  H37  1  0.30150128  0.24089302  0.56719017  1  0.036825  0  0.078151  0.115989  0  1.04079  0
H  H38  1  0.13953513  0.20463102  0.84902223  1  0.052607  0  0.080957  0.119415  0  1.030555  0
H  H39  1  0.05560116  0.10165600  0.82635122  1  0.035912  0  0.090994  0.135875  0  0.997034  0
H  H40  1  0.13217915  0.17166855  0.77219193  1  0.011431  0  0.085823  0.119059  0  1.004085  0
H  H41  1  0.40763611  0.78995651  0.91730963  1  0.017831  0  0.086081  0.121282  0  1.003719  0
H  H42  1  0.26635278  0.76700599  0.91415902  1  0.062576  0  0.085039  0.128407  0  1.01009  0
H  H43  1  0.31660437  0.86051099  0.96445129  1  0.041827  0  0.083067  0.124637  0  1.021821  0
H  H44  1  0.29914150  0.34595201  0.27107146  1  0.031595  0  0.085871  0.122183  0  1.001096  0
H  H45  1  0.35904202  0.42941425  0.32537816  1  0.029414  0  0.087316  0.131643  0  1.001368  0
H  H46  1  0.25988550  0.33908279  0.34732620  1  0.057152  0  0.079884  0.11993  0  1.027257  0
H  H47  1  0.66896162  0.09804266  0.44126078  1  0.022278  0  0.088827  0.124159  0  0.997459  0
H  H48  1  0.58797235  0.19204284  0.48019481  1  0.057661  0  0.090702  0.135279  0  1.007596  0
H  H49  1  0.69558359  0.23613432  0.43643859  1  0.055666  0  0.079943  0.119985  0  1.03547  0
H  H50  1  0.87460181  0.18890736  0.15528535  1  0.044217  0  0.080212  0.119343  0  1.03414  0
H  H51  1  0.95322718  0.07987760  0.17764730  1  0.037964  0  0.089772  0.132115  0  1.011384  0
H  H52  1  0.87703729  0.15161525  0.23169569  1  0.040827  0  0.086688  0.121412  0  1.000984  0
H  H53  1  0.72581066  0.76372209  0.08118962  1  0.056621  0  0.079137  0.118126  0  1.031482  0
H  H54  1  0.69559953  0.86578623  0.03028609  1  0.048016  0  0.087804  0.133542  0  1.001216  0
H  H55  1  0.58965201  0.80568848  0.07135996  1  0.040831  0  0.085942  0.12148  0  1.002039  0
H  H56  1  0.65565170  0.58683644  0.32369527  1  0.035496  0  0.081298  0.12026  0  1.028955  0
H  H57  1  0.74192992  0.67565575  0.35926663  1  0.045783  0  0.086261  0.129703  0  1.004624  0
H  H58  1  0.72570714  0.68224720  0.28041982  1  0.030858  0  0.086346  0.122141  0  1.001899  0
H  H59  1  0.31443731  0.89712207  0.43452716  1  0.058243  0  0.08792  0.121345  0  1.000581  0
H  H60  1  0.38419721  0.79373207  0.47297597  1  0.059663  0  0.090981  0.13868  0  1.003887  0
H  H61  1  0.28500396  0.76195027  0.42075671  1  0.03886  0  0.078871  0.114674  0  1.035281  0
H  H62  1  0.13151212  0.82306075  0.15254121  1  0.064508  0  0.080436  0.119888  0  1.036297  0
H  H63  1  0.05358298  0.93350817  0.17331819  1  0.040084  0  0.08931  0.131291  0  1.014753  0
H  H64  1  0.12662381  0.86195205  0.22859305  1  0.03358  0  0.088312  0.123652  0  0.997802  0
H  H65  1  0.28820395  0.24376247  0.07580026  1  0.029942  0  0.078431  0.117069  0  1.035676  0
H  H66  1  0.32100709  0.13998404  0.02654672  1  0.037026  0  0.088641  0.133496  0  0.99568  0
H  H67  1  0.42475133  0.20116823  0.06831062  1  0.017463  0  0.08598  0.121446  0  1.003016  0
C  C68  1  0.52149817  0.65006439  0.41959869  1  1.546678  0  0.217689  0.621071  0  4.125967  0
C  C69  1  0.47193961  0.35277080  0.42177486  1  1.526115  0  0.217354  0.621509  0  4.133161  0
C  C70  1  0.53468057  0.35151843  0.57537620  1  1.547101  0  0.217599  0.621307  0  4.12982  0
C  C71  1  0.48185990  0.65233229  0.57654187  1  1.540573  0  0.216716  0.616658  0  4.127808  0
C  C72  1  0.14798766  0.03903770  0.07992962  1  1.567195  0  0.217761  0.623957  0  4.125592  0
C  C73  1  0.14374431  0.98034010  0.91628194  1  1.536455  0  0.218283  0.621398  0  4.122787  0
C  C74  1  0.85175869  0.02855242  0.92072394  1  1.55829  0  0.217853  0.6232  0  4.120583  0
C  C75  1  0.86337681  0.97115991  0.08401219  1  1.520711  0  0.21793  0.623365  0  4.127234  0
C  C76  1  0.14124318  0.49680899  0.46912692  1  0.707552  0  0.166196  0.260669  0  4.003549  0
C  C77  1  0.15691835  0.45871874  0.56959079  1  0.655704  0  0.138099  0.214335  0  4.063449  0
C  C78  1  0.04573593  0.46205724  0.57819069  1  0.117981  0  0.011459  0.0075  0  4.041143  0
C  C79  1  0.97860041  0.47828197  0.52764553  1  0.090881  0  0.002506  -0.026483  0  3.960306  0
C  C80  1  0.86426805  0.49456142  0.52818458  1  0.701323  0  0.165502  0.260263  0  4.004909  0
C  C81  1  0.85019016  0.45428667  0.42808949  1  0.690456  0  0.137475  0.214341  0  4.068009  0
C  C82  1  0.96119594  0.45963324  0.41941169  1  0.11304  0  0.010962  0.005966  0  4.040458  0
C  C83  1  0.02766229  0.47829024  0.46979063  1  0.087831  0  0.00259  -0.02376  0  3.955994  0
C  C84  1  0.50163400  0.00355371  0.74698060  1  0.055741  0  0.016348  -0.000115  0  3.748298  0
C  C85  1  0.40173002  0.00114632  0.78771248  1  -0.037539  0  -0.004642  0.086741  0  3.975374  0
C  C86  1  0.59819852  0.00558110  0.78996345  1  -0.053595  0  -0.004351  0.087057  0  3.966134  0
C  C87  1  0.49942297  0.90690464  0.70494785  1  -0.055552  0  -0.00425  0.090374  0  3.94954  0
C  C88  1  0.50662330  0.10066144  0.70520965  1  -0.018412  0  -0.004715  0.088947  0  3.946985  0
C  C89  1  0.58682697  0.17651172  0.70969501  1  -0.054051  0  -0.106319  -0.221316  0  3.974013  0
C  C90  1  0.41283039  0.83774784  0.70422169  1  -0.007946  0  -0.107069  -0.224987  0  3.978783  0
C  C91  1  0.31270755  0.06863737  0.78371200  1  -0.053547  0  -0.104188  -0.219846  0  3.961807  0
C  C92  1  0.68887620  0.94010948  0.78659782  1  -0.05776  0  -0.104404  -0.220605  0  3.964073  0
C  C93  1  0.59872638  0.25730726  0.66755719  1  -0.00561  0  -0.005717  0.174356  0  3.958775  0
C  C94  1  0.40343233  0.75731303  0.66190465  1  -0.058853  0  -0.004691  0.176484  0  3.956901  0
C  C95  1  0.22649960  0.06196956  0.82423183  1  0.003677  0  -0.005623  0.167475  0  3.951111  0
C  C96  1  0.77286510  0.94693821  0.82819364  1  -0.027093  0  -0.006028  0.167082  0  3.95569  0
C  C97  1  0.52661576  0.26284789  0.61937870  1  -0.01975  0  -0.025196  -0.167975  0  3.888897  0
C  C98  1  0.48605785  0.74316259  0.61933595  1  -0.010522  0  -0.024272  -0.169676  0  3.878915  0
C  C99  1  0.22979540  0.98406816  0.86936808  1  -0.010745  0  -0.025477  -0.170434  0  3.880439  0
C  C100  1  0.76580237  0.02299940  0.87401396  1  -0.056281  0  -0.024559  -0.167917  0  3.882329  0
C  C101  1  0.44434194  0.18689906  0.61365215  1  -0.03757  0  -0.006901  0.16122  0  3.963602  0
C  C102  1  0.57389734  0.81380249  0.61823696  1  0.018722  0  -0.004104  0.168726  0  3.950848  0
C  C103  1  0.31802808  0.91246317  0.87272667  1  -0.056672  0  -0.005888  0.171792  0  3.961716  0
C  C104  1  0.67500905  0.09124393  0.87762283  1  0.04234  0  -0.007531  0.166908  0  3.966894  0
C  C105  1  0.43622147  0.10762584  0.65676112  1  -0.039051  0  -0.100737  -0.211668  0  3.970122  0
C  C106  1  0.57807996  0.89438569  0.66070885  1  -0.053414  0  -0.099861  -0.211865  0  3.968112  0
C  C107  1  0.40191518  0.92347390  0.83224851  1  -0.015258  0  -0.099453  -0.209258  0  3.97793  0
C  C108  1  0.59337383  0.08033176  0.83594595  1  -0.031479  0  -0.099594  -0.207605  0  3.974062  0
C  C109  1  0.50200229  0.00454029  0.25046267  1  0.040314  0  0.016044  0.00174  0  3.745934  0
C  C110  1  0.40457600  0.01056284  0.20821188  1  -0.055673  0  -0.005082  0.087195  0  3.96629  0
C  C111  1  0.60168536  0.99911460  0.20962638  1  -0.016142  0  -0.0048  0.086678  0  3.97194  0
C  C112  1  0.49914308  0.10179237  0.29215920  1  -0.048498  0  -0.0059  0.08668  0  3.947697  0
C  C113  1  0.50289026  0.90656554  0.29187508  1  0.002811  0  -0.004768  0.088088  0  3.945287  0
C  C114  1  0.58365547  0.82923359  0.28854948  1  -0.079998  0  -0.106825  -0.221617  0  3.976984  0
C  C115  1  0.42405981  0.18386146  0.28551825  1  0.000971  0  -0.106547  -0.219598  0  3.974221  0
C  C116  1  0.31177771  0.95087176  0.21418508  1  -0.070745  0  -0.104978  -0.220861  0  3.968437  0
C  C117  1  0.69347789  0.05997275  0.21627886  1  -0.069835  0  -0.104409  -0.219916  0  3.9651  0
C  C118  1  0.59237664  0.74681839  0.32995944  1  -0.036385  0  -0.006554  0.173662  0  3.96385  0
C  C119  1  0.41316510  0.26530885  0.32730673  1  -0.030597  0  -0.007417  0.170318  0  3.967905  0
C  C120  1  0.22632831  0.96033027  0.17366084  1  -0.009469  0  -0.007454  0.164855  0  3.962604  0
C  C121  1  0.78081676  0.05081754  0.17667169  1  0.015266  0  -0.006983  0.165054  0  3.958172  0
C  C122  1  0.51570950  0.74001918  0.37604653  1  -0.010029  0  -0.02427  -0.16754  0  3.88594  0
C  C123  1  0.48089751  0.26494858  0.37734411  1  0.002261  0  -0.024601  -0.164946  0  3.892106  0
C  C124  1  0.23437572  0.03330385  0.12628295  1  -0.028142  0  -0.025712  -0.167302  0  3.888292  0
C  C125  1  0.77569519  0.97672683  0.12982162  1  -0.012849  0  -0.025781  -0.16889  0  3.888984  0
C  C126  1  0.43245564  0.81711544  0.38050874  1  -0.027088  0  -0.005278  0.165759  0  3.95623  0
C  C127  1  0.55928210  0.18385330  0.38483030  1  -0.039116  0  -0.007904  0.159969  0  3.966252  0
C  C128  1  0.32700054  0.09612067  0.11998130  1  -0.048722  0  -0.007623  0.165809  0  3.967019  0
C  C129  1  0.68419656  0.91251387  0.12309037  1  0.008004  0  -0.007807  0.166205  0  3.965335  0
C  C130  1  0.42844702  0.89904769  0.33861048  1  -0.040088  0  -0.100049  -0.212592  0  3.969542  0
C  C131  1  0.56657234  0.10402815  0.34203164  1  -0.01954  0  -0.099754  -0.211162  0  3.973181  0
C  C132  1  0.41006891  0.08268509  0.16082895  1  0.001448  0  -0.100144  -0.210691  0  3.980398  0
C  C133  1  0.59921287  0.92589688  0.16288137  1  -0.104012  0  -0.100159  -0.21012  0  3.979518  0
C  C134  1  0.05698878  0.36677007  0.99848781  1  0.731724  0  0.166003  0.263677  0  4.005872  0
C  C135  1  0.87772482  0.35408798  0.02481035  1  0.591341  0  0.136751  0.214102  0  4.070709  0
C  C136  1  0.86075759  0.46314503  0.01963755  1  0.193829  0  0.010086  0.006505  0  4.041068  0
C  C137  1  0.95148961  0.52820492  0.00865668  1  0.018107  0  0.001951  -0.026188  0  3.95786  0
C  C138  1  0.95057907  0.64091411  0.00011296  1  0.756756  0  0.164451  0.260076  0  4.012489  0
C  C139  1  0.12994249  0.65287842  0.02529339  1  0.709895  0  0.137023  0.213342  0  4.0754  0
C  C140  1  0.14710033  0.54404908  0.01876039  1  0.136556  0  0.00984  0.006316  0  4.039481  0
C  C141  1  0.05621462  0.47921429  0.00798216  1  0.062974  0  0.001544  -0.027416  0  3.955906  0
C  C142  1  0.30440322  0.69010464  0.66466404  1  -0.032723  0  -0.249061  -0.41345  0  3.995606  0
C  C143  1  0.66156857  0.81012691  0.57172068  1  -0.026961  0  -0.24534  -0.404589  0  3.973199  0
C  C144  1  0.86751008  0.87209808  0.82175279  1  -0.06936  0  -0.243599  -0.404523  0  3.973747  0
C  C145  1  0.66094763  0.17253954  0.92593376  1  -0.117368  0  -0.247603  -0.414628  0  4.001843  0
C  C146  1  0.68890423  0.33449417  0.67575667  1  -0.091469  0  -0.247666  -0.413632  0  3.990111  0
C  C147  1  0.36801100  0.18378594  0.56166149  1  -0.044632  0  -0.245248  -0.404656  0  3.969076  0
C  C148  1  0.13343720  0.13863678  0.81743169  1  -0.030885  0  -0.243611  -0.403803  0  3.972757  0
C  C149  1  0.32784703  0.82783277  0.91960231  1  -0.050835  0  -0.248932  -0.416694  0  4.003419  0
C  C150  1  0.32850094  0.34959867  0.31704162  1  -0.045255  0  -0.247636  -0.413568  0  3.986814  0
C  C151  1  0.63162118  0.17705222  0.43846272  1  -0.068935  0  -0.244526  -0.406275  0  3.96827  0
C  C152  1  0.87651300  0.12109774  0.18596546  1  -0.062336  0  -0.244361  -0.404691  0  3.970553  0
C  C153  1  0.67308704  0.83281407  0.07378680  1  -0.08647  0  -0.247323  -0.410797  0  3.985444  0
C  C154  1  0.68383841  0.66878607  0.32277678  1  -0.037635  0  -0.248403  -0.414906  0  3.996972  0
C  C155  1  0.35015411  0.81763795  0.42993445  1  -0.088366  0  -0.244375  -0.403166  0  3.971239  0
C  C156  1  0.12937023  0.89149279  0.18264903  1  -0.071087  0  -0.245074  -0.406  0  3.97258  0
C  C157  1  0.34112774  0.17433157  0.06996970  1  -0.02061  0  -0.246373  -0.409882  0  3.986877  0
N  N158  1  0.20255320  0.48433724  0.51666261  1  -1.169314  0  -0.290177  -0.281662  0  3.423269  0
N  N159  1  0.80349074  0.48048965  0.48074765  1  -1.170148  0  -0.289622  -0.281901  0  3.421981  0
N  N160  1  0.97220338  0.30751353  0.00891416  1  -1.169111  0  -0.289027  -0.28549  0  3.416632  0
N  N161  1  0.03534713  0.69988975  0.01043413  1  -1.178694  0  -0.287034  -0.284296  0  3.409867  0
Cl  Cl162  1  0.76874546  0.41670146  0.37161959  1  -0.105719  0  0.085337  0.027698  0  1.683197  0
Cl  Cl163  1  0.01272939  0.43175615  0.35054938  1  -0.138632  0  0.03  -0.029744  0  1.64164  0
Cl  Cl164  1  0.20201821  0.55008700  0.40825423  1  -0.093714  0  0.097854  0.031845  0  1.719146  0
Cl  Cl165  1  0.23968217  0.42484348  0.62666233  1  -0.104827  0  0.087429  0.029702  0  1.692815  0
Cl  Cl166  1  0.99552703  0.43481980  0.64734163  1  -0.127409  0  0.0304  -0.029556  0  1.641451  0
Cl  Cl167  1  0.80116223  0.54679346  0.58887037  1  -0.093399  0  0.100541  0.033937  0  1.737509  0
Cl  Cl168  1  0.22877963  0.73178835  0.05147373  1  -0.117164  0  0.084606  0.024066  0  1.678178  0
Cl  Cl169  1  0.27286414  0.49283103  0.03116919  1  -0.136341  0  0.026079  -0.033035  0  1.631585  0
Cl  Cl170  1  0.16458838  0.30425881  0.96648848  1  -0.103586  0  0.093005  0.025091  0  1.688981  0
Cl  Cl171  1  0.77885509  0.27431292  0.05048587  1  -0.107501  0  0.085099  0.024639  0  1.685085  0
Cl  Cl172  1  0.73545026  0.51423890  0.03383803  1  -0.142059  0  0.02651  -0.032612  0  1.629966  0
Cl  Cl173  1  0.84259810  0.70436499  0.96927970  1  -0.102708  0  0.094316  0.025767  0  1.69683  0
O  O174  1  0.61365524  0.62562971  0.44158230  1  -1.152878  0  -0.317838  -0.545588  0  2.311826  0
O  O175  1  0.43405346  0.60333969  0.43133228  1  -1.173943  0  -0.317126  -0.571  0  2.387713  0
O  O176  1  0.37883597  0.37867286  0.44179569  1  -1.150608  0  -0.319143  -0.548191  0  2.313369  0
O  O177  1  0.55929906  0.39679716  0.43611762  1  -1.180952  0  -0.318445  -0.574427  0  2.44403  0
O  O178  1  0.44673390  0.39704660  0.56134023  1  -1.188521  0  -0.319534  -0.575407  0  2.445633  0
O  O179  1  0.62732421  0.37703429  0.55536316  1  -1.151843  0  -0.318379  -0.547083  0  2.321097  0
O  O180  1  0.56995427  0.60409335  0.56549131  1  -1.178844  0  -0.317645  -0.569947  0  2.385885  0
O  O181  1  0.39029768  0.62793181  0.55455687  1  -1.150419  0  -0.316989  -0.544977  0  2.329095  0
O  O182  1  0.11989522  0.95127054  0.05767774  1  -1.17886  0  -0.316858  -0.57376  0  2.418345  0
O  O183  1  0.10976852  0.12984712  0.06501468  1  -1.148618  0  -0.321059  -0.548489  0  2.302947  0
O  O184  1  0.11410952  0.06814085  0.93888208  1  -1.176404  0  -0.315771  -0.573293  0  2.383773  0
O  O185  1  0.10762476  0.88936139  0.93148204  1  -1.150347  0  -0.318709  -0.542987  0  2.310082  0
O  O186  1  0.88764605  0.12002999  0.93474832  1  -1.146267  0  -0.320807  -0.547483  0  2.301449  0
O  O187  1  0.88218595  0.94148660  0.94391141  1  -1.178534  0  -0.316189  -0.57478  0  2.380011  0
O  O188  1  0.90121257  0.88021517  0.06891927  1  -1.14616  0  -0.320088  -0.54665  0  2.306634  0
O  O189  1  0.89264225  0.05893288  0.06206177  1  -1.178694  0  -0.316434  -0.573925  0  2.423868  0
