# generated using pymatgen
data_NdH12C9NO10
_symmetry_space_group_name_H-M   'P 1'
_cell_length_a   7.27213612
_cell_length_b   11.70327562
_cell_length_c   18.70397524
_cell_angle_alpha   99.63298313
_cell_angle_beta   90.00050807
_cell_angle_gamma   90.00001857
_symmetry_Int_Tables_number   1
_chemical_formula_structural   NdH12C9NO10
_chemical_formula_sum   'Nd4 H48 C36 N4 O40'
_cell_volume   1569.40908055
_cell_formula_units_Z   4
loop_
 _symmetry_equiv_pos_site_id
 _symmetry_equiv_pos_as_xyz
  1  'x, y, z'
loop_
 _atom_site_type_symbol
 _atom_site_label
 _atom_site_symmetry_multiplicity
 _atom_site_fract_x
 _atom_site_fract_y
 _atom_site_fract_z
 _atom_site_occupancy
 _atom_site_pbe_bader_charge
 _atom_site_pbe_bader_spin_density
 _atom_site_pbe_cm5_charge
 _atom_site_pbe_ddec_charge
 _atom_site_pbe_ddec_spin_density
 _atom_site_pbe_ddec_sum_bond_order
 _atom_site_pbe_magmom
Nd  Nd0  1  0.26785810  0.30706668  0.36810474  1  2.267737  0  1.479753  2.158373  0  2.07486  0
Nd  Nd1  1  0.76784469  0.19294087  0.13189712  1  2.267563  0  1.479776  2.158457  0  2.074705  0
Nd  Nd2  1  0.73215526  0.69293291  0.63189192  1  2.267707  0  1.479779  2.158452  0  2.074754  0
Nd  Nd3  1  0.23214256  0.80706147  0.86810461  1  2.267727  0  1.479756  2.158405  0  2.074821  0
H  H4  1  0.00092313  0.13044537  0.27955699  1  0.663017  0  0.296014  0.389158  0  0.95428  0
H  H5  1  0.50092552  0.36956365  0.22044621  1  0.663031  0  0.296046  0.389199  0  0.954234  0
H  H6  1  0.99908337  0.86955252  0.72044059  1  0.66314  0  0.296029  0.389199  0  0.954242  0
H  H7  1  0.49907410  0.63043868  0.77955498  1  0.663042  0  0.29606  0.389215  0  0.95422  0
H  H8  1  0.16016289  0.06928123  0.31971065  1  0.630284  0  0.286743  0.384881  0  0.961698  0
H  H9  1  0.66016440  0.43073066  0.18029551  1  0.630303  0  0.286768  0.38496  0  0.961607  0
H  H10  1  0.83983810  0.93071763  0.68029022  1  0.630297  0  0.286757  0.384893  0  0.961685  0
H  H11  1  0.33983385  0.56927257  0.81970684  1  0.63025  0  0.286799  0.38498  0  0.961574  0
H  H12  1  0.83894612  0.41460542  0.36417751  1  0.614732  0  0.334253  0.436101  0  0.850371  0
H  H13  1  0.33895285  0.08539184  0.13582418  1  0.614692  0  0.334256  0.436111  0  0.85037  0
H  H14  1  0.16106312  0.58538911  0.63582296  1  0.614595  0  0.334253  0.436143  0  0.850319  0
H  H15  1  0.66104539  0.91460439  0.86417538  1  0.614749  0  0.334232  0.436095  0  0.850365  0
H  H16  1  0.92580146  0.35235147  0.28995109  1  0.633428  0  0.309492  0.408256  0  0.923482  0
H  H17  1  0.42580163  0.14765366  0.21005057  1  0.633405  0  0.309433  0.408191  0  0.923597  0
H  H18  1  0.07420366  0.64764302  0.71004831  1  0.633438  0  0.309502  0.408213  0  0.923556  0
H  H19  1  0.57420074  0.85234340  0.78994800  1  0.633362  0  0.309438  0.408145  0  0.923618  0
H  H20  1  0.28204467  0.54989806  0.32286708  1  0.611403  0  0.335192  0.426052  0  0.857334  0
H  H21  1  0.78203648  0.95009601  0.17713021  1  0.6116  0  0.335255  0.426035  0  0.857354  0
H  H22  1  0.71795633  0.45009375  0.67712940  1  0.611729  0  0.335244  0.426041  0  0.857325  0
H  H23  1  0.21796176  0.04990353  0.82286485  1  0.611619  0  0.335227  0.42599  0  0.857375  0
H  H24  1  0.28294360  0.57775344  0.40952975  1  0.626056  0  0.303156  0.402934  0  0.925905  0
H  H25  1  0.78293345  0.92224401  0.09046518  1  0.625962  0  0.303207  0.402934  0  0.925856  0
H  H26  1  0.71706015  0.42224434  0.59046461  1  0.625968  0  0.303178  0.402872  0  0.925961  0
H  H27  1  0.21705929  0.07775468  0.90953033  1  0.626064  0  0.303152  0.402898  0  0.92593  0
H  H28  1  0.18477673  0.49159271  0.49822780  1  0.634396  0  0.296981  0.382488  0  0.961796  0
H  H29  1  0.68475206  0.00840947  0.00177113  1  0.634426  0  0.296833  0.382141  0  0.962201  0
H  H30  1  0.81524214  0.50840256  0.50176900  1  0.634376  0  0.296927  0.382374  0  0.961957  0
H  H31  1  0.31522418  0.99159190  0.99822730  1  0.634423  0  0.296992  0.382493  0  0.961786  0
H  H32  1  0.04424859  0.38544618  0.50267556  1  0.645493  0  0.30446  0.397605  0  0.933376  0
H  H33  1  0.54421313  0.11455814  0.99732889  1  0.645259  0  0.304477  0.397773  0  0.933087  0
H  H34  1  0.95577578  0.61455265  0.49732424  1  0.645312  0  0.304456  0.39771  0  0.933189  0
H  H35  1  0.45575623  0.88544679  0.00267255  1  0.645502  0  0.304435  0.397571  0  0.933433  0
H  H36  1  0.25639470  0.83227722  0.44013343  1  0.127635  0  0.114675  0.117897  0  0.997605  0
H  H37  1  0.75637277  0.66773068  0.05986505  1  0.127646  0  0.114615  0.117713  0  0.997777  0
H  H38  1  0.74361867  0.16772330  0.55986546  1  0.127668  0  0.114653  0.117831  0  0.997717  0
H  H39  1  0.24360072  0.33227689  0.94013824  1  0.127722  0  0.11472  0.117976  0  0.997564  0
H  H40  1  0.18664310  0.21270311  0.65485297  1  0.050732  0  0.095848  0.139738  0  0.992382  0
H  H41  1  0.68663315  0.28729271  0.84515120  1  0.05076  0  0.095927  0.139846  0  0.99247  0
H  H42  1  0.81335927  0.78728888  0.34514941  1  0.050705  0  0.09593  0.139839  0  0.992429  0
H  H43  1  0.31337472  0.71270798  0.15485306  1  0.050656  0  0.095933  0.139782  0  0.992412  0
H  H44  1  0.07906851  0.21472042  0.56860591  1  0.095272  0  0.096144  0.141669  0  1.016815  0
H  H45  1  0.57905638  0.28527604  0.93139473  1  0.095105  0  0.096187  0.141732  0  1.016746  0
H  H46  1  0.92093799  0.78527487  0.43139143  1  0.09517  0  0.096164  0.141728  0  1.016791  0
H  H47  1  0.42094324  0.71472370  0.06860676  1  0.095136  0  0.096158  0.141698  0  1.016763  0
H  H48  1  0.31539395  0.24118830  0.57774898  1  0.08724  0  0.101192  0.153361  0  0.987721  0
H  H49  1  0.81538298  0.25881112  0.92225489  1  0.087374  0  0.101208  0.153429  0  0.987675  0
H  H50  1  0.68461255  0.75880890  0.42225387  1  0.087356  0  0.101206  0.153443  0  0.987613  0
H  H51  1  0.18461664  0.74119219  0.07775014  1  0.087385  0  0.101212  0.153435  0  0.98765  0
C  C52  1  0.23862416  0.06309317  0.57669926  1  0.492739  0  0.144364  0.332928  0  3.88844  0
C  C53  1  0.73861053  0.43691130  0.92330321  1  0.492846  0  0.14425  0.332766  0  3.888211  0
C  C54  1  0.76138233  0.93690647  0.42329901  1  0.492885  0  0.144284  0.332764  0  3.888209  0
C  C55  1  0.26138496  0.56309286  0.07670136  1  0.493086  0  0.144273  0.332797  0  3.888249  0
C  C56  1  0.24272530  0.00083561  0.50480867  1  0.02219  0  -0.010791  -0.138127  0  3.88272  0
C  C57  1  0.74270506  0.49916880  0.99519167  1  0.022042  0  -0.010746  -0.138233  0  3.882697  0
C  C58  1  0.75728257  0.99916671  0.49519252  1  0.022057  0  -0.010755  -0.138053  0  3.882618  0
C  C59  1  0.25727668  0.50083531  0.00481129  1  0.022472  0  -0.010802  -0.138183  0  3.882782  0
C  C60  1  0.26170326  0.88067557  0.49517767  1  -0.015336  0  -0.056785  -0.054162  0  3.942574  0
C  C61  1  0.76167733  0.61933059  0.00482013  1  -0.01493  0  -0.05676  -0.053798  0  3.942502  0
C  C62  1  0.73831148  0.11932665  0.50482030  1  -0.01526  0  -0.056813  -0.054149  0  3.942765  0
C  C63  1  0.23829479  0.38067605  0.99518093  1  -0.015497  0  -0.056833  -0.054179  0  3.94269  0
C  C64  1  0.29204713  0.82379149  0.55396389  1  -0.005263  0  -0.010553  -0.129448  0  3.991034  0
C  C65  1  0.79202155  0.67620645  0.94603372  1  -0.005889  0  -0.010479  -0.129547  0  3.991106  0
C  C66  1  0.70796761  0.17620379  0.44603291  1  -0.005491  0  -0.010492  -0.129409  0  3.991043  0
C  C67  1  0.20794507  0.32379932  0.05396726  1  -0.005889  0  -0.010654  -0.129642  0  3.99114  0
C  C68  1  0.29641940  0.89378449  0.62287388  1  0.525599  0  0.129086  0.091983  0  3.98603  0
C  C69  1  0.79640049  0.60620575  0.87712624  1  0.526597  0  0.128977  0.091851  0  3.986094  0
C  C70  1  0.70359259  0.10620742  0.37712581  1  0.526038  0  0.128976  0.091871  0  3.986146  0
C  C71  1  0.20358813  0.39379579  0.12287756  1  0.526412  0  0.129054  0.091916  0  3.986215  0
C  C72  1  0.20297051  0.19041547  0.59597048  1  -0.091479  0  -0.238218  -0.445242  0  3.93184  0
C  C73  1  0.70295364  0.30958024  0.90402945  1  -0.0915  0  -0.238337  -0.445452  0  3.931606  0
C  C74  1  0.79704561  0.80957984  0.40402739  1  -0.091556  0  -0.23831  -0.445454  0  3.931699  0
C  C75  1  0.29704597  0.69042127  0.09597327  1  -0.091518  0  -0.238325  -0.445368  0  3.931558  0
C  C76  1  0.22751306  0.05473811  0.43723593  1  1.606834  0  0.219086  0.615187  0  4.186831  0
C  C77  1  0.72749955  0.44526944  0.06276739  1  1.606638  0  0.219019  0.615143  0  4.187177  0
C  C78  1  0.77249206  0.94526073  0.56276441  1  1.606693  0  0.219045  0.615256  0  4.187009  0
C  C79  1  0.27249182  0.55473555  0.93723619  1  1.606658  0  0.219042  0.615171  0  4.186862  0
C  C80  1  0.31200809  0.69481088  0.54118231  1  1.552132  0  0.237208  0.632064  0  4.17104  0
C  C81  1  0.81198971  0.80518963  0.95881401  1  1.552127  0  0.237105  0.63186  0  4.17109  0
C  C82  1  0.68800528  0.30519046  0.45881505  1  1.552195  0  0.237192  0.631866  0  4.171078  0
C  C83  1  0.18798240  0.19481358  0.04118780  1  1.552292  0  0.237201  0.632112  0  4.170909  0
C  C84  1  0.34180025  0.85130924  0.69274411  1  1.612564  0  0.256805  0.629066  0  4.124991  0
C  C85  1  0.84177702  0.64868356  0.80725320  1  1.612356  0  0.256752  0.629043  0  4.124636  0
C  C86  1  0.65821174  0.14868437  0.30725468  1  1.612598  0  0.256807  0.62911  0  4.124868  0
C  C87  1  0.15821297  0.35131528  0.19274714  1  1.612574  0  0.256747  0.629  0  4.125024  0
N  N88  1  0.26369308  0.00787787  0.63365069  1  -1.169739  0  -0.312903  -0.33066  0  3.259399  0
N  N89  1  0.76368231  0.49212493  0.86635279  1  -1.170305  0  -0.312748  -0.330364  0  3.259489  0
N  N90  1  0.73631753  0.99212186  0.36635027  1  -1.17002  0  -0.312765  -0.33046  0  3.259475  0
N  N91  1  0.23631868  0.50787917  0.13365018  1  -1.17037  0  -0.312771  -0.330435  0  3.2595  0
O  O92  1  0.24610055  0.16547970  0.44433772  1  -1.216921  0  -0.430003  -0.69948  0  2.302213  0
O  O93  1  0.74607583  0.33453141  0.05566813  1  -1.216817  0  -0.430062  -0.699426  0  2.302508  0
O  O94  1  0.75390732  0.83452438  0.55566417  1  -1.217046  0  -0.43001  -0.69953  0  2.302454  0
O  O95  1  0.25390866  0.66547876  0.94433539  1  -1.216973  0  -0.430013  -0.699466  0  2.302296  0
O  O96  1  0.20047923  0.98815476  0.37784495  1  -1.160306  0  -0.306244  -0.526367  0  2.11993  0
O  O97  1  0.70047516  0.51186189  0.12215896  1  -1.160575  0  -0.306162  -0.526437  0  2.119891  0
O  O98  1  0.79952038  0.01185013  0.62215542  1  -1.160393  0  -0.306219  -0.526438  0  2.119935  0
O  O99  1  0.29952171  0.48814573  0.87784594  1  -1.160297  0  -0.306173  -0.52638  0  2.119919  0
O  O100  1  0.20254728  0.63701773  0.49435300  1  -1.213017  0  -0.304273  -0.586557  0  2.229887  0
O  O101  1  0.70253244  0.86299016  0.00564689  1  -1.213217  0  -0.304236  -0.586369  0  2.229878  0
O  O102  1  0.79746884  0.36298542  0.50564720  1  -1.213132  0  -0.304309  -0.586428  0  2.229793  0
O  O103  1  0.29744655  0.13701732  0.99435318  1  -1.213111  0  -0.304293  -0.586675  0  2.229814  0
O  O104  1  0.43044547  0.64659048  0.57583644  1  -1.2027  0  -0.381073  -0.641188  0  2.235971  0
O  O105  1  0.93043871  0.85340677  0.92416212  1  -1.202511  0  -0.381041  -0.641138  0  2.236024  0
O  O106  1  0.56956789  0.35340389  0.42415920  1  -1.202575  0  -0.38104  -0.641093  0  2.236142  0
O  O107  1  0.06954578  0.14659647  0.07584076  1  -1.202669  0  -0.380996  -0.641083  0  2.236044  0
O  O108  1  0.50355610  0.81406467  0.70008983  1  -1.199921  0  -0.378055  -0.634516  0  2.370784  0
O  O109  1  0.00355143  0.68592609  0.79990932  1  -1.19964  0  -0.378041  -0.634533  0  2.370489  0
O  O110  1  0.49645039  0.18592981  0.29990904  1  -1.199765  0  -0.378018  -0.634532  0  2.370775  0
O  O111  1  0.99644818  0.31406934  0.20009231  1  -1.19981  0  -0.378027  -0.634531  0  2.370712  0
O  O112  1  0.22379836  0.86277651  0.74338528  1  -1.184925  0  -0.346461  -0.616358  0  2.328123  0
O  O113  1  0.72379736  0.63720575  0.75661064  1  -1.185108  0  -0.346448  -0.616295  0  2.328205  0
O  O114  1  0.77620539  0.13721100  0.25661187  1  -1.185033  0  -0.346504  -0.616351  0  2.328139  0
O  O115  1  0.27620501  0.36278783  0.24338707  1  -1.185066  0  -0.346439  -0.616217  0  2.328224  0
O  O116  1  0.13371644  0.13547261  0.29181544  1  -1.3046  0  -0.661653  -0.87825  0  2.069012  0
O  O117  1  0.63372405  0.36453919  0.20818902  1  -1.304456  0  -0.661697  -0.87836  0  2.068906  0
O  O118  1  0.86628868  0.86452613  0.70818168  1  -1.304732  0  -0.661696  -0.878289  0  2.069043  0
O  O119  1  0.36627557  0.63546498  0.79181609  1  -1.304602  0  -0.661724  -0.878361  0  2.068888  0
O  O120  1  0.94457234  0.36979337  0.34345518  1  -1.240879  0  -0.630644  -0.876273  0  2.036019  0
O  O121  1  0.44456030  0.13022130  0.15654688  1  -1.240815  0  -0.630565  -0.876227  0  2.036235  0
O  O122  1  0.05543965  0.63020547  0.65654515  1  -1.240802  0  -0.630646  -0.876299  0  2.036112  0
O  O123  1  0.55543519  0.86977663  0.84345177  1  -1.240817  0  -0.630543  -0.876138  0  2.036282  0
O  O124  1  0.32114920  0.52137046  0.36640230  1  -1.216958  0  -0.624411  -0.838096  0  1.994837  0
O  O125  1  0.82112080  0.97863490  0.13359563  1  -1.21703  0  -0.62455  -0.838105  0  1.994883  0
O  O126  1  0.67886004  0.47863084  0.63359398  1  -1.217125  0  -0.624498  -0.838047  0  1.994968  0
O  O127  1  0.17886232  0.02136550  0.86639950  1  -1.217167  0  -0.624438  -0.83799  0  1.99484  0
O  O128  1  0.17004229  0.40554785  0.48917551  1  -1.277241  0  -0.648358  -0.845035  0  2.050515  0
O  O129  1  0.67001510  0.09445874  0.01082699  1  -1.277105  0  -0.648258  -0.844889  0  2.050417  0
O  O130  1  0.82997796  0.59445272  0.51082499  1  -1.277147  0  -0.648322  -0.845062  0  2.050361  0
O  O131  1  0.32995839  0.90554793  0.98917514  1  -1.277223  0  -0.648374  -0.845033  0  2.05057  0
