# generated using pymatgen
data_TmH27C21NO8
_symmetry_space_group_name_H-M   'P 1'
_cell_length_a   9.89765240
_cell_length_b   12.40039498
_cell_length_c   12.74972896
_cell_angle_alpha   74.13691882
_cell_angle_beta   79.23659550
_cell_angle_gamma   78.36124478
_symmetry_Int_Tables_number   1
_chemical_formula_structural   TmH27C21NO8
_chemical_formula_sum   'Tm2 H54 C42 N2 O16'
_cell_volume   1459.83788251
_cell_formula_units_Z   2
loop_
 _symmetry_equiv_pos_site_id
 _symmetry_equiv_pos_as_xyz
  1  'x, y, z'
loop_
 _atom_site_type_symbol
 _atom_site_label
 _atom_site_symmetry_multiplicity
 _atom_site_fract_x
 _atom_site_fract_y
 _atom_site_fract_z
 _atom_site_occupancy
 _atom_site_pbe_bader_charge
 _atom_site_pbe_bader_spin_density
 _atom_site_pbe_cm5_charge
 _atom_site_pbe_ddec_charge
 _atom_site_pbe_ddec_spin_density
 _atom_site_pbe_ddec_sum_bond_order
 _atom_site_pbe_magmom
Tm  Tm0  1  0.53189779  0.63377441  0.37254181  1  2.169986  0  1.553636  2.07454  0  2.176022  0
Tm  Tm1  1  0.46809590  0.36622897  0.62746078  1  2.169912  0  1.553664  2.074495  0  2.175962  0
H  H2  1  0.56813985  0.52399499  0.20536542  1  0.619582  0  0.330644  0.428215  0  0.857683  0
H  H3  1  0.58718503  0.40396958  0.30024689  1  0.656802  0  0.291649  0.407224  0  0.928792  0
H  H4  1  0.16659484  0.99136922  0.44948373  1  0.008391  0  0.083031  0.111824  0  1.029759  0
H  H5  1  0.28296463  0.88784916  0.39060665  1  0.101412  0  0.097195  0.140856  0  1.042849  0
H  H6  1  0.22256779  0.85584471  0.53420439  1  0.04601  0  0.089207  0.122148  0  1.022448  0
H  H7  1  0.69497383  0.87553143  0.71207256  1  0.03635  0  0.096747  0.141504  0  0.991515  0
H  H8  1  0.65817361  0.75944535  0.67303233  1  0.015048  0  0.092759  0.129275  0  1.035059  0
H  H9  1  0.80042105  0.82866032  0.60001430  1  0.005715  0  0.081465  0.100835  0  1.049926  0
H  H10  1  0.17104203  0.39397452  0.27399080  1  0.059664  0  0.0928  0.130351  0  1.019833  0
H  H11  1  0.19618882  0.53738326  0.24077402  1  0.034618  0  0.095172  0.132228  0  1.005382  0
H  H12  1  0.30255944  0.43303544  0.32731126  1  0.067485  0  0.098399  0.137816  0  1.017683  0
H  H13  1  0.08517056  0.57007173  0.72324454  1  0.036051  0  0.099325  0.139819  0  0.978234  0
H  H14  1  0.17777795  0.65225990  0.60758596  1  0.070935  0  0.09739  0.136978  0  1.021204  0
H  H15  1  0.99919108  0.69958101  0.64776913  1  0.025222  0  0.08874  0.119293  0  1.018661  0
H  H16  1  0.20793182  0.03457548  0.19781693  1  0.011379  0  0.088816  0.11815  0  1.0136  0
H  H17  1  0.16057934  0.96401729  0.11029457  1  0.013832  0  0.086179  0.109914  0  1.023331  0
H  H18  1  0.25950587  0.88595268  0.21712922  1  0.052982  0  0.09583  0.134399  0  1.030162  0
H  H19  1  0.84823537  0.86886968  0.99201268  1  0.017304  0  0.084687  0.112716  0  1.030968  0
H  H20  1  0.76296579  0.80223863  0.12215877  1  0.033799  0  0.092411  0.129082  0  1.031858  0
H  H21  1  0.75088125  0.75954811  0.00417066  1  0.070326  0  0.093128  0.132774  0  0.982819  0
H  H22  1  0.73447668  0.78854186  0.42474883  1  0.135191  0  0.13312  0.055121  0  1.021393  0
H  H23  1  0.01381016  0.81286092  0.15211170  1  0.059499  0  0.105736  0.116553  0  0.991824  0
H  H24  1  0.11464985  0.71702637  0.25216579  1  0.110812  0  0.110288  0.135791  0  1.020582  0
H  H25  1  0.96998351  0.67412482  0.21513860  1  0.087935  0  0.116806  0.139635  0  0.989279  0
H  H26  1  0.88121731  0.89593808  0.42131680  1  0.080953  0  0.110781  0.12184  0  1.030154  0
H  H27  1  0.05996898  0.83256956  0.39202663  1  0.065779  0  0.109705  0.131202  0  1.002394  0
H  H28  1  0.98014430  0.94500221  0.29079251  1  0.059086  0  0.11052  0.128122  0  0.977189  0
H  H29  1  0.43183493  0.47598359  0.79464442  1  0.619517  0  0.33055  0.428104  0  0.85785  0
H  H30  1  0.41282022  0.59602877  0.69976604  1  0.656839  0  0.291631  0.407225  0  0.928794  0
H  H31  1  0.83339535  0.00863156  0.55053654  1  0.008347  0  0.083076  0.111826  0  1.029917  0
H  H32  1  0.71703664  0.11216803  0.60938388  1  0.100943  0  0.097177  0.140866  0  1.042931  0
H  H33  1  0.77745686  0.14414561  0.46579291  1  0.046148  0  0.089223  0.122179  0  1.022417  0
H  H34  1  0.30501234  0.12446640  0.28795613  1  0.03653  0  0.096742  0.141595  0  0.991626  0
H  H35  1  0.34181746  0.24055399  0.32697412  1  0.015243  0  0.092714  0.129206  0  1.034987  0
H  H36  1  0.19958079  0.17133083  0.40000824  1  0.006106  0  0.081397  0.100722  0  1.050016  0
H  H37  1  0.82897409  0.60600949  0.72601332  1  0.059747  0  0.092796  0.130399  0  1.01962  0
H  H38  1  0.80383324  0.46260073  0.75921291  1  0.034439  0  0.095156  0.13228  0  1.00524  0
H  H39  1  0.69744647  0.56694657  0.67269938  1  0.066737  0  0.098411  0.137856  0  1.017883  0
H  H40  1  0.91482590  0.42992949  0.27672852  1  0.035883  0  0.099282  0.139705  0  0.978255  0
H  H41  1  0.82220885  0.34773362  0.39240074  1  0.071245  0  0.097328  0.13685  0  1.021208  0
H  H42  1  0.00080754  0.30041407  0.35222199  1  0.025193  0  0.088741  0.119239  0  1.018632  0
H  H43  1  0.79207893  0.96542995  0.80216419  1  0.011421  0  0.088834  0.118143  0  1.013471  0
H  H44  1  0.83941234  0.03598986  0.88969457  1  0.014117  0  0.086088  0.109809  0  1.023186  0
H  H45  1  0.74050125  0.11405777  0.78284690  1  0.052618  0  0.095861  0.13443  0  1.030044  0
H  H46  1  0.15175801  0.13113920  0.00797810  1  0.017324  0  0.08469  0.112714  0  1.030905  0
H  H47  1  0.23701816  0.19777744  0.87783414  1  0.034181  0  0.092365  0.129087  0  1.032174  0
H  H48  1  0.24912257  0.24045130  0.99582563  1  0.070232  0  0.093133  0.132791  0  0.982812  0
H  H49  1  0.26553073  0.21150084  0.57526403  1  0.135262  0  0.133148  0.055226  0  1.021433  0
H  H50  1  0.98617306  0.18714215  0.84789694  1  0.059729  0  0.105772  0.116637  0  0.991921  0
H  H51  1  0.88534494  0.28296184  0.74784274  1  0.110538  0  0.110281  0.135851  0  1.020585  0
H  H52  1  0.02999376  0.32587601  0.78487377  1  0.088102  0  0.116743  0.139585  0  0.989418  0
H  H53  1  0.11882728  0.10405518  0.57870320  1  0.080433  0  0.11081  0.121872  0  1.030326  0
H  H54  1  0.94006275  0.16741687  0.60796393  1  0.066143  0  0.109651  0.131074  0  1.002468  0
H  H55  1  0.01988278  0.05500136  0.70921707  1  0.070763  0  0.110563  0.128118  0  0.97727  0
C  C56  1  0.46054752  0.76573125  0.58424790  1  1.574382  0  0.229697  0.651561  0  4.155502  0
C  C57  1  0.47758052  0.88921933  0.54614188  1  -0.037974  0  -0.019372  -0.152553  0  3.937639  0
C  C58  1  0.38035857  0.96445652  0.48246026  1  0.059067  0  -0.011454  0.093635  0  3.947293  0
C  C59  1  0.25611459  0.92311300  0.46352988  1  -0.102915  0  -0.244689  -0.418827  0  3.974931  0
C  C60  1  0.59583074  0.92332889  0.56562841  1  -0.04595  0  -0.016119  0.072648  0  3.96287  0
C  C61  1  0.69227531  0.84232774  0.64095243  1  -0.028419  0  -0.241249  -0.404579  0  3.975036  0
C  C62  1  0.26434099  0.57721274  0.44689882  1  1.534095  0  0.219665  0.640623  0  4.170394  0
C  C63  1  0.12558555  0.53862526  0.47480478  1  -0.073274  0  -0.018575  -0.150311  0  3.948368  0
C  C64  1  0.09323062  0.47865737  0.40619675  1  -0.004787  0  -0.009903  0.08406  0  3.944563  0
C  C65  1  0.19560029  0.45915131  0.30722504  1  -0.090208  0  -0.239975  -0.414576  0  3.956466  0
C  C66  1  0.03559862  0.56077694  0.56820388  1  0.040048  0  -0.009086  0.087383  0  3.948263  0
C  C67  1  0.07672405  0.62404217  0.63970834  1  -0.053138  0  -0.235723  -0.402994  0  3.956599  0
C  C68  1  0.50534306  0.80963052  0.18999485  1  1.531649  0  0.19064  0.600465  0  4.216278  0
C  C69  1  0.50067853  0.90760433  0.09034903  1  -0.042251  0  -0.018133  -0.131371  0  3.927993  0
C  C70  1  0.37677740  0.98532225  0.07582199  1  -0.010736  0  -0.011107  0.085616  0  3.942473  0
C  C71  1  0.24501105  0.96615978  0.15459282  1  -0.045129  0  -0.239095  -0.403334  0  3.986575  0
C  C72  1  0.62375035  0.92050358  0.01563805  1  0.039399  0  -0.010191  0.086041  0  3.940015  0
C  C73  1  0.75352960  0.83417865  0.03430441  1  -0.077486  0  -0.24104  -0.398696  0  3.972241  0
C  C74  1  0.79629264  0.74973271  0.35917662  1  1.362305  0  0.192609  0.328414  0  4.07179  0
C  C75  1  0.00979400  0.74478120  0.22827458  1  0.236041  0  -0.131662  -0.282041  0  3.871708  0
C  C76  1  0.96216633  0.86974268  0.35783777  1  0.282317  0  -0.124613  -0.2763  0  3.877133  0
C  C77  1  0.53945298  0.23425940  0.41576160  1  1.573981  0  0.229549  0.651453  0  4.155686  0
C  C78  1  0.52241919  0.11078701  0.45387483  1  -0.021572  0  -0.019304  -0.152552  0  3.937765  0
C  C79  1  0.61965131  0.03553905  0.51755059  1  0.043049  0  -0.011408  0.093735  0  3.947157  0
C  C80  1  0.74389534  0.07688932  0.53647896  1  -0.102663  0  -0.244752  -0.418878  0  3.975167  0
C  C81  1  0.40417445  0.07666725  0.43439304  1  -0.046189  0  -0.016135  0.072726  0  3.962796  0
C  C82  1  0.30773129  0.15765978  0.35906826  1  -0.028849  0  -0.241121  -0.404527  0  3.975243  0
C  C83  1  0.73564660  0.42279301  0.55309515  1  1.534349  0  0.219678  0.640591  0  4.170379  0
C  C84  1  0.87439563  0.46137029  0.52518591  1  -0.073847  0  -0.018554  -0.15017  0  3.948363  0
C  C85  1  0.90675552  0.52133364  0.59379077  1  -0.00413  0  -0.010082  0.083813  0  3.944473  0
C  C86  1  0.80439431  0.54084081  0.69277451  1  -0.089765  0  -0.239907  -0.41462  0  3.956216  0
C  C87  1  0.96438952  0.43922235  0.43177859  1  0.040453  0  -0.009361  0.087042  0  3.948403  0
C  C88  1  0.92326672  0.37595888  0.36027722  1  -0.053596  0  -0.235478  -0.402509  0  3.956409  0
C  C89  1  0.49465114  0.19037923  0.80999715  1  1.530946  0  0.190591  0.600213  0  4.216506  0
C  C90  1  0.49931763  0.09238960  0.90963330  1  -0.04253  0  -0.017916  -0.130919  0  3.927925  0
C  C91  1  0.62321642  0.01467796  0.92414540  1  -0.011378  0  -0.011337  0.085267  0  3.943105  0
C  C92  1  0.75497994  0.03384789  0.84538761  1  -0.044599  0  -0.239093  -0.403315  0  3.986396  0
C  C93  1  0.37624091  0.07950009  0.98432862  1  0.038812  0  -0.010362  0.085756  0  3.93993  0
C  C94  1  0.24646698  0.16583305  0.96567416  1  -0.077674  0  -0.241075  -0.398767  0  3.972419  0
C  C95  1  0.20370396  0.25028506  0.64084570  1  1.361614  0  0.192442  0.328244  0  4.072657  0
C  C96  1  0.99019144  0.25521942  0.77173845  1  0.235612  0  -0.13171  -0.282245  0  3.871852  0
C  C97  1  0.03786820  0.13025519  0.64216320  1  0.271046  0  -0.124553  -0.276184  0  3.877512  0
N  N98  1  0.91674403  0.78671461  0.31636054  1  -1.227873  0  -0.272717  0.044751  0  3.711291  0
N  N99  1  0.08326481  0.21328099  0.68365043  1  -1.227798  0  -0.272647  0.044925  0  3.711312  0
O  O100  1  0.51485370  0.70589872  0.51457569  1  -1.209992  0  -0.440207  -0.709924  0  2.333404  0
O  O101  1  0.39727217  0.72611382  0.67804883  1  -1.163573  0  -0.315435  -0.538143  0  2.08898  0
O  O102  1  0.28729628  0.66257791  0.36797214  1  -1.17448  0  -0.360504  -0.621217  0  2.198464  0
O  O103  1  0.36374529  0.52149925  0.50150964  1  -1.210942  0  -0.427557  -0.735895  0  2.430114  0
O  O104  1  0.48981489  0.82888149  0.28536742  1  -1.169063  0  -0.382662  -0.636286  0  2.21933  0
O  O105  1  0.52867509  0.70724970  0.18007016  1  -1.183338  0  -0.396229  -0.656624  0  2.17289  0
O  O106  1  0.75239937  0.67658209  0.32807256  1  -1.187777  0  -0.38607  -0.578327  0  2.395962  0
O  O107  1  0.57263166  0.49159962  0.28350202  1  -1.271389  0  -0.655137  -0.881154  0  2.077249  0
O  O108  1  0.48513603  0.29410087  0.48541514  1  -1.210084  0  -0.440055  -0.709737  0  2.333583  0
O  O109  1  0.60274385  0.27388006  0.32194608  1  -1.163504  0  -0.315502  -0.538247  0  2.088315  0
O  O110  1  0.71270156  0.33742229  0.63201834  1  -1.17465  0  -0.360599  -0.621347  0  2.198332  0
O  O111  1  0.63623241  0.47851481  0.49849246  1  -1.211216  0  -0.427492  -0.735773  0  2.430179  0
O  O112  1  0.51015969  0.17113645  0.71462290  1  -1.168861  0  -0.382685  -0.636148  0  2.219667  0
O  O113  1  0.47134141  0.29275665  0.81993749  1  -1.182938  0  -0.396213  -0.656575  0  2.172783  0
O  O114  1  0.24758746  0.32342354  0.67195924  1  -1.187134  0  -0.386002  -0.578387  0  2.396661  0
O  O115  1  0.42738793  0.50839307  0.71650775  1  -1.271327  0  -0.655021  -0.880998  0  2.077257  0
