# generated using pymatgen
data_ZnH12C18(NO)4
_symmetry_space_group_name_H-M   'P 1'
_cell_length_a   11.43123263
_cell_length_b   12.78144602
_cell_length_c   14.86638591
_cell_angle_alpha   89.99888473
_cell_angle_beta   89.99993510
_cell_angle_gamma   113.70682816
_symmetry_Int_Tables_number   1
_chemical_formula_structural   ZnH12C18(NO)4
_chemical_formula_sum   'Zn4 H48 C72 N16 O16'
_cell_volume   1988.80042783
_cell_formula_units_Z   4
loop_
 _symmetry_equiv_pos_site_id
 _symmetry_equiv_pos_as_xyz
  1  'x, y, z'
loop_
 _atom_site_type_symbol
 _atom_site_label
 _atom_site_symmetry_multiplicity
 _atom_site_fract_x
 _atom_site_fract_y
 _atom_site_fract_z
 _atom_site_occupancy
 _atom_site_pbe_bader_charge
 _atom_site_pbe_bader_spin_density
 _atom_site_pbe_cm5_charge
 _atom_site_pbe_ddec_charge
 _atom_site_pbe_ddec_spin_density
 _atom_site_pbe_ddec_sum_bond_order
 _atom_site_pbe_magmom
Zn  Zn0  1  0.41743341  0.06919983  0.59254472  1  1.32607  0  0.690958  0.834771  0  2.32654  0
Zn  Zn1  1  0.08256746  0.43080234  0.09254818  1  1.32595  0  0.69097  0.834791  0  2.326534  0
Zn  Zn2  1  0.58256339  0.93079178  0.40745562  1  1.325876  0  0.69097  0.834777  0  2.326555  0
Zn  Zn3  1  0.91743826  0.56920218  0.90745889  1  1.325928  0  0.690933  0.834687  0  2.32657  0
H  H4  1  0.31915198  0.82548960  0.65764250  1  0.11032  0  0.1172  0.087913  0  1.015932  0
H  H5  1  0.18083497  0.67450918  0.15764266  1  0.110187  0  0.117227  0.087951  0  1.015888  0
H  H6  1  0.68083986  0.17450272  0.34235381  1  0.110246  0  0.117184  0.087925  0  1.015881  0
H  H7  1  0.81916491  0.32549602  0.84235701  1  0.110127  0  0.117238  0.087976  0  1.015919  0
H  H8  1  0.11936184  0.64337192  0.65039081  1  0.129665  0  0.11468  0.121953  0  1.027522  0
H  H9  1  0.38061852  0.85663194  0.15037636  1  0.129139  0  0.114701  0.121988  0  1.027471  0
H  H10  1  0.88062859  0.35662120  0.34961222  1  0.129758  0  0.114684  0.122008  0  1.027525  0
H  H11  1  0.61937660  0.14337651  0.84961457  1  0.129555  0  0.114675  0.121977  0  1.027538  0
H  H12  1  0.94967786  0.82436877  0.48692620  1  0.159148  0  0.11827  0.139945  0  1.007972  0
H  H13  1  0.55030185  0.67563587  0.98691059  1  0.159321  0  0.118252  0.139771  0  1.007936  0
H  H14  1  0.05031433  0.17562018  0.51307415  1  0.159216  0  0.118262  0.139868  0  1.008012  0
H  H15  1  0.44969470  0.32437599  0.01307562  1  0.159103  0  0.118207  0.139749  0  1.008037  0
H  H16  1  0.15924866  0.99917955  0.49972180  1  0.130682  0  0.123123  0.102073  0  0.998564  0
H  H17  1  0.34073134  0.50083148  0.99970811  1  0.131032  0  0.123094  0.102122  0  0.99848  0
H  H18  1  0.84074587  0.00081706  0.50027787  1  0.13059  0  0.123097  0.102017  0  0.998615  0
H  H19  1  0.65926840  0.49917963  0.00028416  1  0.130761  0  0.123098  0.102064  0  0.99847  0
H  H20  1  0.69853659  0.48405504  0.47652913  1  0.121215  0  0.118715  0.13356  0  1.001329  0
H  H21  1  0.80146994  0.01595691  0.97652936  1  0.121318  0  0.118692  0.133536  0  1.001077  0
H  H22  1  0.30144872  0.51594047  0.52346986  1  0.121318  0  0.118736  0.133589  0  1.001379  0
H  H23  1  0.19852586  0.98404480  0.02346830  1  0.121242  0  0.118734  0.13355  0  1.001322  0
H  H24  1  0.50935524  0.29371842  0.48119634  1  0.137168  0  0.121842  0.095514  0  1.0055  0
H  H25  1  0.99065968  0.20628435  0.98120066  1  0.137388  0  0.121763  0.095437  0  1.005492  0
H  H26  1  0.49063749  0.70627392  0.51881140  1  0.136566  0  0.121826  0.095511  0  1.00549  0
H  H27  1  0.00934548  0.79371255  0.01880304  1  0.13713  0  0.12181  0.095526  0  1.005444  0
H  H28  1  0.67306024  0.17234081  0.68091359  1  0.127821  0  0.119415  0.094589  0  1.005755  0
H  H29  1  0.82695387  0.32766268  0.18090907  1  0.127934  0  0.119417  0.094587  0  1.00582  0
H  H30  1  0.32695025  0.82766047  0.31909214  1  0.127962  0  0.119429  0.094559  0  1.005884  0
H  H31  1  0.17305771  0.67234538  0.81909329  1  0.127994  0  0.119439  0.094542  0  1.005898  0
H  H32  1  0.87239863  0.35679744  0.68295753  1  0.113151  0  0.114795  0.126739  0  1.025235  0
H  H33  1  0.62760577  0.14321838  0.18295556  1  0.113178  0  0.11481  0.126722  0  1.025266  0
H  H34  1  0.12760870  0.64320882  0.31703003  1  0.113142  0  0.114787  0.126668  0  1.025292  0
H  H35  1  0.37239700  0.85679788  0.81703738  1  0.113244  0  0.114772  0.126652  0  1.025153  0
H  H36  1  0.27886440  0.19896305  0.83176125  1  0.092061  0  0.096659  0.097894  0  1.045618  0
H  H37  1  0.22112563  0.30101867  0.33176939  1  0.0918  0  0.09666  0.097854  0  1.045704  0
H  H38  1  0.72112173  0.80101982  0.16823505  1  0.091734  0  0.096648  0.097866  0  1.045687  0
H  H39  1  0.77888821  0.69898017  0.66824912  1  0.091708  0  0.096656  0.097965  0  1.045445  0
H  H40  1  0.18678352  0.30938589  0.92580006  1  0.105891  0  0.101597  0.118552  0  1.065676  0
H  H41  1  0.31322226  0.19060464  0.42580521  1  0.106263  0  0.101553  0.118485  0  1.065742  0
H  H42  1  0.81321309  0.69060318  0.07419961  1  0.106337  0  0.101566  0.118545  0  1.065765  0
H  H43  1  0.68678675  0.80938478  0.57420052  1  0.106343  0  0.101597  0.118587  0  1.065652  0
H  H44  1  0.18270885  0.33391520  0.59187270  1  0.060439  0  0.093563  0.082809  0  1.08142  0
H  H45  1  0.31728619  0.16608767  0.09187825  1  0.060548  0  0.093497  0.082748  0  1.081364  0
H  H46  1  0.81728019  0.66608294  0.40812764  1  0.060374  0  0.093512  0.082742  0  1.081438  0
H  H47  1  0.68273079  0.83393743  0.90813017  1  0.060751  0  0.093559  0.082793  0  1.081422  0
H  H48  1  0.08679559  0.44300150  0.68556578  1  0.069052  0  0.094188  0.089119  0  1.053008  0
H  H49  1  0.41320878  0.05699903  0.18556763  1  0.068841  0  0.094176  0.089121  0  1.052955  0
H  H50  1  0.91320657  0.55699870  0.31444264  1  0.068919  0  0.094175  0.089059  0  1.053  0
H  H51  1  0.58680388  0.94301159  0.81442867  1  0.068797  0  0.094214  0.089158  0  1.052955  0
C  C52  1  0.23570375  0.82043292  0.61955599  1  0.492477  0  0.048383  0.099989  0  3.945867  0
C  C53  1  0.26428551  0.67956697  0.11955531  1  0.492099  0  0.048324  0.099825  0  3.945959  0
C  C54  1  0.76429410  0.17955703  0.38043763  1  0.492158  0  0.04846  0.099879  0  3.946013  0
C  C55  1  0.73571650  0.32043914  0.88044100  1  0.492397  0  0.048401  0.099844  0  3.946029  0
C  C56  1  0.12646024  0.72038487  0.61526463  1  -0.016973  0  -0.073707  -0.188573  0  3.9377  0
C  C57  1  0.37352697  0.77961846  0.11526086  1  -0.016278  0  -0.073746  -0.188583  0  3.937634  0
C  C58  1  0.87353211  0.27960239  0.38473033  1  -0.016763  0  -0.073778  -0.188591  0  3.937886  0
C  C59  1  0.62647204  0.22039094  0.88473478  1  -0.016673  0  -0.073757  -0.188581  0  3.93794  0
C  C60  1  0.03105960  0.82168898  0.52378835  1  0.030595  0  -0.066071  -0.177554  0  3.872357  0
C  C61  1  0.46892056  0.67831585  0.02377875  1  0.030687  0  -0.066056  -0.177287  0  3.872031  0
C  C62  1  0.96893579  0.17830344  0.47620796  1  0.030505  0  -0.066053  -0.177419  0  3.872352  0
C  C63  1  0.53107491  0.32169345  0.97621352  1  0.030667  0  -0.066081  -0.177325  0  3.872252  0
C  C64  1  0.14565703  0.91789150  0.53095939  1  0.477315  0  0.056729  0.109337  0  3.899368  0
C  C65  1  0.35432623  0.58211660  0.03095080  1  0.477162  0  0.05674  0.109201  0  3.899553  0
C  C66  1  0.85433871  0.08210177  0.46903692  1  0.477719  0  0.056797  0.109385  0  3.899467  0
C  C67  1  0.64567279  0.41789280  0.96904349  1  0.477301  0  0.0568  0.10933  0  3.899401  0
C  C68  1  0.02224870  0.72077629  0.56583100  1  0.274123  0  0.108076  0.200602  0  4.010739  0
C  C69  1  0.47773779  0.77922923  0.06582579  1  0.274239  0  0.108152  0.200762  0  4.010397  0
C  C70  1  0.97775007  0.27921790  0.43416396  1  0.27391  0  0.108216  0.200605  0  4.010882  0
C  C71  1  0.52225840  0.22078177  0.93416648  1  0.274401  0  0.108231  0.200728  0  4.010875  0
C  C72  1  0.79874370  0.43333708  0.58047070  1  0.319843  0  0.11032  0.204836  0  4.034461  0
C  C73  1  0.70125515  0.06666707  0.08046722  1  0.319977  0  0.110263  0.204707  0  4.03482  0
C  C74  1  0.20125046  0.56665867  0.41952695  1  0.319621  0  0.110257  0.204746  0  4.034839  0
C  C75  1  0.29874016  0.93334391  0.91952908  1  0.319447  0  0.110235  0.204716  0  4.034775  0
C  C76  1  0.69576410  0.41691654  0.52271374  1  0.00157  0  -0.072012  -0.189184  0  3.901791  0
C  C77  1  0.80423662  0.08309181  0.02271393  1  0.001518  0  -0.071946  -0.189105  0  3.90168  0
C  C78  1  0.30422013  0.58307641  0.47728862  1  0.001523  0  -0.071813  -0.18889  0  3.901749  0
C  C79  1  0.19576294  0.91692098  0.97728372  1  0.00175  0  -0.071951  -0.189003  0  3.901684  0
C  C80  1  0.59166904  0.31200594  0.52501783  1  0.457718  0  0.055188  0.109634  0  3.91789  0
C  C81  1  0.90834085  0.18799922  0.02502091  1  0.457527  0  0.055254  0.109733  0  3.917802  0
C  C82  1  0.40832247  0.68798974  0.47498654  1  0.458463  0  0.055034  0.109366  0  3.917922  0
C  C83  1  0.09166737  0.81200706  0.97498078  1  0.45778  0  0.055151  0.109509  0  3.917492  0
C  C84  1  0.68386988  0.24371928  0.63675701  1  0.512553  0  0.052336  0.103077  0  3.929277  0
C  C85  1  0.81613616  0.25628351  0.13675636  1  0.511805  0  0.052261  0.103008  0  3.929518  0
C  C86  1  0.31613264  0.75628177  0.36324334  1  0.512383  0  0.052394  0.103223  0  3.929331  0
C  C87  1  0.18387079  0.74371767  0.86324398  1  0.511945  0  0.052277  0.103153  0  3.929513  0
C  C88  1  0.28796500  0.19165825  0.64968141  1  1.603953  0  0.190669  0.555954  0  4.243987  0
C  C89  1  0.21204111  0.30834417  0.14969011  1  1.604023  0  0.190438  0.555556  0  4.244365  0
C  C90  1  0.71201938  0.80832879  0.35031220  1  1.604401  0  0.19064  0.555689  0  4.244207  0
C  C91  1  0.78798471  0.69167696  0.85032032  1  1.604271  0  0.190732  0.555968  0  4.243882  0
C  C92  1  0.23473133  0.25912471  0.70638868  1  -0.031623  0  -0.016209  -0.015595  0  3.954794  0
C  C93  1  0.26526102  0.24086815  0.20639641  1  -0.031413  0  -0.016077  -0.015223  0  3.954766  0
C  C94  1  0.76525412  0.74086489  0.29360762  1  -0.031936  0  -0.016218  -0.015237  0  3.954605  0
C  C95  1  0.73475466  0.75914340  0.79361873  1  -0.032748  0  -0.016227  -0.015394  0  3.954936  0
C  C96  1  0.79302599  0.34461828  0.63779135  1  -0.0139  0  -0.070119  -0.179943  0  3.905013  0
C  C97  1  0.70698058  0.15538788  0.13778708  1  -0.01341  0  -0.070165  -0.179939  0  3.905196  0
C  C98  1  0.20697813  0.65538451  0.36220563  1  -0.013827  0  -0.070182  -0.18001  0  3.905178  0
C  C99  1  0.29301629  0.84461639  0.86221259  1  -0.013386  0  -0.070056  -0.179867  0  3.905058  0
C  C100  1  0.23670206  0.25268198  0.80038535  1  -0.098156  0  -0.087058  -0.085474  0  3.958817  0
C  C101  1  0.26329217  0.24730749  0.30039231  1  -0.097552  0  -0.08708  -0.085531  0  3.958655  0
C  C102  1  0.76328819  0.74730861  0.19961163  1  -0.09763  0  -0.087063  -0.085564  0  3.958597  0
C  C103  1  0.73671727  0.75269545  0.69962216  1  -0.097617  0  -0.087016  -0.08552  0  3.958433  0
C  C104  1  0.18448498  0.31344225  0.85259596  1  -0.011304  0  -0.091747  -0.109203  0  3.964429  0
C  C105  1  0.31551383  0.18654589  0.35259982  1  -0.011903  0  -0.091718  -0.109152  0  3.964428  0
C  C106  1  0.81550950  0.68654591  0.14740439  1  -0.011859  0  -0.091683  -0.109146  0  3.96444  0
C  C107  1  0.68449398  0.81345109  0.64740456  1  -0.01207  0  -0.091771  -0.109333  0  3.9643  0
C  C108  1  0.18187566  0.32877999  0.66509229  1  0.021908  0  -0.095279  -0.108763  0  3.995878  0
C  C109  1  0.31812152  0.17121584  0.16509977  1  0.021914  0  -0.095207  -0.108802  0  3.995968  0
C  C110  1  0.81811530  0.67121230  0.33490738  1  0.022458  0  -0.095276  -0.10893  0  3.995982  0
C  C111  1  0.68189540  0.82879659  0.83490999  1  0.02041  0  -0.095312  -0.108956  0  3.996146  0
C  C112  1  0.12897912  0.38923506  0.71704998  1  -0.121099  0  -0.096929  -0.108653  0  4.001838  0
C  C113  1  0.37102019  0.11076192  0.21705436  1  -0.120997  0  -0.096896  -0.108606  0  4.001978  0
C  C114  1  0.87101806  0.61076163  0.28295238  1  -0.121242  0  -0.096884  -0.108463  0  4.001947  0
C  C115  1  0.62899051  0.88924611  0.78294868  1  -0.118912  0  -0.09698  -0.108687  0  4.00204  0
C  C116  1  0.12878568  0.38089319  0.81117581  1  0.01146  0  -0.027888  -0.048584  0  4.006646  0
C  C117  1  0.37121409  0.11910119  0.31118006  1  0.011388  0  -0.027897  -0.04858  0  4.006702  0
C  C118  1  0.87120882  0.61909920  0.18882722  1  0.01149  0  -0.02789  -0.048685  0  4.006879  0
C  C119  1  0.62879303  0.88089830  0.68882230  1  0.011578  0  -0.027809  -0.048432  0  4.006654  0
C  C120  1  0.06719196  0.44086094  0.86809235  1  1.525347  0  0.208371  0.574014  0  4.218684  0
C  C121  1  0.43281178  0.05912860  0.36809280  1  1.525514  0  0.208317  0.574038  0  4.218528  0
C  C122  1  0.93280714  0.55912989  0.13191539  1  1.525034  0  0.208386  0.574172  0  4.218294  0
C  C123  1  0.56719388  0.94086326  0.63191023  1  1.525368  0  0.208288  0.574018  0  4.218685  0
N  N124  1  0.24604056  0.91747705  0.57805956  1  -1.231599  0  -0.308634  -0.208537  0  3.498718  0
N  N125  1  0.25394947  0.58252655  0.07805914  1  -1.23183  0  -0.308593  -0.208467  0  3.499038  0
N  N126  1  0.75395729  0.08251290  0.42193405  1  -1.231459  0  -0.30874  -0.208475  0  3.498738  0
N  N127  1  0.74605379  0.41748043  0.92193852  1  -1.23187  0  -0.308653  -0.208456  0  3.498856  0
N  N128  1  0.90450185  0.62344718  0.55895680  1  -0.437326  0  -0.113915  -0.087677  0  3.199011  0
N  N129  1  0.59548962  0.87656039  0.05895104  1  -0.43746  0  -0.113955  -0.087838  0  3.198663  0
N  N130  1  0.09549320  0.37654860  0.44104018  1  -0.437428  0  -0.113964  -0.087698  0  3.199205  0
N  N131  1  0.40450747  0.12345486  0.94104190  1  -0.437372  0  -0.113945  -0.087697  0  3.199003  0
N  N132  1  0.91340596  0.53254212  0.58381227  1  -0.447874  0  -0.119006  -0.094543  0  3.24654  0
N  N133  1  0.58659263  0.96747002  0.08381041  1  -0.447903  0  -0.119014  -0.094444  0  3.246476  0
N  N134  1  0.08658839  0.46745617  0.41618134  1  -0.447841  0  -0.11904  -0.094564  0  3.246683  0
N  N135  1  0.41340198  0.03254348  0.91618186  1  -0.447762  0  -0.119072  -0.094632  0  3.246597  0
N  N136  1  0.58540832  0.22687859  0.58098641  1  -1.242467  0  -0.308188  -0.210077  0  3.49295  0
N  N137  1  0.91460398  0.27312424  0.08098808  1  -1.242341  0  -0.308046  -0.210015  0  3.493041  0
N  N138  1  0.41459011  0.77311897  0.41901797  1  -1.242453  0  -0.308183  -0.210053  0  3.492998  0
N  N139  1  0.08540740  0.72687707  0.91901360  1  -1.242484  0  -0.30811  -0.210039  0  3.492813  0
O  O140  1  0.34845166  0.14003286  0.69121510  1  -1.171165  0  -0.337633  -0.556475  0  2.257121  0
O  O141  1  0.15153681  0.35995694  0.19122099  1  -1.171167  0  -0.337521  -0.556318  0  2.256981  0
O  O142  1  0.65152650  0.85994979  0.30877986  1  -1.171248  0  -0.337525  -0.55634  0  2.256932  0
O  O143  1  0.84847016  0.64004846  0.80878608  1  -1.171167  0  -0.337628  -0.5565  0  2.256809  0
O  O144  1  0.27190686  0.18804337  0.56552582  1  -1.210318  0  -0.328972  -0.576199  0  2.175217  0
O  O145  1  0.22812159  0.31198058  0.06553512  1  -1.21044  0  -0.328969  -0.576167  0  2.175283  0
O  O146  1  0.72808092  0.81194967  0.43446914  1  -1.210641  0  -0.329031  -0.576172  0  2.17544  0
O  O147  1  0.77192428  0.68804870  0.93447531  1  -1.210226  0  -0.329035  -0.576245  0  2.175273  0
O  O148  1  0.00770506  0.49375685  0.82714924  1  -1.175956  0  -0.322589  -0.556727  0  2.318358  0
O  O149  1  0.49229535  0.00623289  0.32714782  1  -1.176187  0  -0.322694  -0.556866  0  2.318419  0
O  O150  1  0.99230009  0.50624006  0.17286052  1  -1.175827  0  -0.322667  -0.556891  0  2.318132  0
O  O151  1  0.50769983  0.99375277  0.67285118  1  -1.175999  0  -0.322581  -0.556784  0  2.318282  0
O  O152  1  0.07368008  0.43532254  0.95240542  1  -1.201703  0  -0.319103  -0.58106  0  2.473269  0
O  O153  1  0.42632883  0.06465890  0.45240713  1  -1.201931  0  -0.318982  -0.581038  0  2.473341  0
O  O154  1  0.92632039  0.56465905  0.04760165  1  -1.201625  0  -0.319066  -0.581081  0  2.47329  0
O  O155  1  0.57368233  0.93533564  0.54759657  1  -1.201657  0  -0.319083  -0.581069  0  2.473386  0
