# generated using pymatgen
data_H9PbC15NO6
_symmetry_space_group_name_H-M   'P 1'
_cell_length_a   7.60162753
_cell_length_b   8.66571746
_cell_length_c   24.53036593
_cell_angle_alpha   90.00031121
_cell_angle_beta   89.99988168
_cell_angle_gamma   89.99981317
_symmetry_Int_Tables_number   1
_chemical_formula_structural   H9PbC15NO6
_chemical_formula_sum   'H36 Pb4 C60 N4 O24'
_cell_volume   1615.90244403
_cell_formula_units_Z   4
loop_
 _symmetry_equiv_pos_site_id
 _symmetry_equiv_pos_as_xyz
  1  'x, y, z'
loop_
 _atom_site_type_symbol
 _atom_site_label
 _atom_site_symmetry_multiplicity
 _atom_site_fract_x
 _atom_site_fract_y
 _atom_site_fract_z
 _atom_site_occupancy
 _atom_site_pbe_bader_charge
 _atom_site_pbe_bader_spin_density
 _atom_site_pbe_cm5_charge
 _atom_site_pbe_ddec_charge
 _atom_site_pbe_ddec_spin_density
 _atom_site_pbe_ddec_sum_bond_order
 _atom_site_pbe_magmom
H  H0  1  0.31941165  0.88451495  0.76109172  1  0.116432  0  0.107571  0.11143  0  0.992097  0
H  H1  1  0.81940641  0.11548561  0.23891271  1  0.11649  0  0.107555  0.111367  0  0.992156  0
H  H2  1  0.81941649  0.88452098  0.73890925  1  0.116537  0  0.107526  0.111347  0  0.992037  0
H  H3  1  0.31940157  0.11548304  0.26109232  1  0.116424  0  0.107554  0.111425  0  0.992091  0
H  H4  1  0.35290471  0.93849120  0.66113605  1  0.133579  0  0.103228  0.121713  0  1.019674  0
H  H5  1  0.85290164  0.06150465  0.33886672  1  0.133454  0  0.103248  0.121687  0  1.019559  0
H  H6  1  0.85291020  0.93849415  0.83886378  1  0.133647  0  0.103219  0.121651  0  1.019584  0
H  H7  1  0.35289089  0.06150977  0.16113656  1  0.13347  0  0.10323  0.121657  0  1.019519  0
H  H8  1  0.59486038  0.37517137  0.69966564  1  0.056509  0  0.100822  0.104003  0  0.996185  0
H  H9  1  0.09485780  0.62482983  0.30033241  1  0.056539  0  0.100837  0.104032  0  0.996149  0
H  H10  1  0.09484081  0.37517863  0.80033164  1  0.056555  0  0.100806  0.10398  0  0.996142  0
H  H11  1  0.59485632  0.62483180  0.19966559  1  0.056512  0  0.100853  0.104061  0  0.996149  0
H  H12  1  0.55454510  0.32222216  0.79838488  1  0.066146  0  0.101462  0.099902  0  1.011787  0
H  H13  1  0.05453640  0.67778262  0.20161361  1  0.066489  0  0.101468  0.099882  0  1.011768  0
H  H14  1  0.05453408  0.32223021  0.70161314  1  0.065934  0  0.10145  0.099864  0  1.011791  0
H  H15  1  0.55454216  0.67777919  0.29838493  1  0.066176  0  0.101447  0.099861  0  1.01176  0
H  H16  1  0.64913760  0.17622916  0.60426286  1  0.091647  0  0.121523  0.114935  0  1.025216  0
H  H17  1  0.14914154  0.82375573  0.39573679  1  0.091459  0  0.121561  0.114912  0  1.025271  0
H  H18  1  0.14913450  0.17624365  0.89573564  1  0.09155  0  0.121515  0.114885  0  1.025381  0
H  H19  1  0.64912359  0.82376317  0.10426279  1  0.091693  0  0.121551  0.114954  0  1.025376  0
H  H20  1  0.43901569  0.09591632  0.59016400  1  0.110647  0  0.121249  0.113283  0  1.000919  0
H  H21  1  0.93901825  0.90407581  0.40983791  1  0.110628  0  0.121209  0.113185  0  1.000892  0
H  H22  1  0.93901545  0.09592844  0.90983620  1  0.110677  0  0.12125  0.113246  0  1.000934  0
H  H23  1  0.43900139  0.90407523  0.09016326  1  0.110518  0  0.121262  0.113344  0  1.000918  0
H  H24  1  0.18626416  0.27680663  0.60712731  1  0.216627  0  0.132482  0.125246  0  1.04939  0
H  H25  1  0.68626487  0.72318623  0.39287109  1  0.216598  0  0.132487  0.125328  0  1.049307  0
H  H26  1  0.68625482  0.27681502  0.89287503  1  0.217359  0  0.132501  0.125289  0  1.049408  0
H  H27  1  0.18625447  0.72318938  0.10712623  1  0.216623  0  0.132511  0.125222  0  1.049405  0
H  H28  1  0.07574667  0.53459363  0.57609626  1  0.176885  0  0.123472  0.15137  0  0.986434  0
H  H29  1  0.57574023  0.46540070  0.42389732  1  0.176695  0  0.123455  0.151409  0  0.986527  0
H  H30  1  0.57574107  0.53460366  0.92390624  1  0.176721  0  0.123466  0.151393  0  0.986472  0
H  H31  1  0.07573793  0.46540452  0.07609794  1  0.176658  0  0.123439  0.151388  0  0.986544  0
H  H32  1  0.70838771  0.41088575  0.58141832  1  0.185828  0  0.139283  0.130026  0  0.989785  0
H  H33  1  0.20837921  0.58909551  0.41858170  1  0.18588  0  0.139313  0.130054  0  0.989806  0
H  H34  1  0.20837920  0.41090175  0.91858059  1  0.185886  0  0.139281  0.130028  0  0.989795  0
H  H35  1  0.70837194  0.58910028  0.08141902  1  0.185937  0  0.139282  0.130062  0  0.989788  0
Pb  Pb36  1  0.42063916  0.96776158  0.95753930  1  1.421785  0  0.623713  1.094613  0  1.885501  0
Pb  Pb37  1  0.92063423  0.03224792  0.04246343  1  1.421807  0  0.623705  1.094617  0  1.885546  0
Pb  Pb38  1  0.92065057  0.96773806  0.54245973  1  1.421736  0  0.623706  1.094605  0  1.885413  0
Pb  Pb39  1  0.42063729  0.03224374  0.45753689  1  1.421791  0  0.623693  1.094574  0  1.885653  0
C  C40  1  0.41662364  0.06626814  0.84503421  1  1.519494  0  0.206106  0.554988  0  4.211656  0
C  C41  1  0.91661199  0.93374483  0.15496894  1  1.520059  0  0.206387  0.555513  0  4.210778  0
C  C42  1  0.91662772  0.06626250  0.65496635  1  1.519462  0  0.206162  0.555066  0  4.21155  0
C  C43  1  0.41662107  0.93373893  0.34503516  1  1.519599  0  0.206222  0.555141  0  4.211371  0
C  C44  1  0.43616433  0.09933589  0.78562175  1  0.000811  0  -0.017348  -0.040927  0  3.988213  0
C  C45  1  0.93615241  0.90066548  0.21438057  1  0.000892  0  -0.017433  -0.041254  0  3.988359  0
C  C46  1  0.93616275  0.09933463  0.71437805  1  0.000859  0  -0.017335  -0.040957  0  3.988181  0
C  C47  1  0.43616056  0.90066559  0.28562182  1  0.000821  0  -0.017345  -0.040956  0  3.988257  0
C  C48  1  0.38008008  0.99113027  0.74698235  1  -0.008684  0  -0.074965  -0.07156  0  3.955554  0
C  C49  1  0.88006989  0.00886895  0.25302204  1  -0.008803  0  -0.074953  -0.071385  0  3.955654  0
C  C50  1  0.88008351  0.99113768  0.75301960  1  -0.008777  0  -0.074929  -0.071462  0  3.955765  0
C  C51  1  0.38007040  0.00886732  0.24698234  1  -0.008745  0  -0.074961  -0.071578  0  3.955677  0
C  C52  1  0.39917797  0.02111666  0.69151628  1  -0.068936  0  -0.085344  -0.124123  0  3.933246  0
C  C53  1  0.89917434  0.97887675  0.30848647  1  -0.068875  0  -0.085366  -0.124139  0  3.933225  0
C  C54  1  0.89917840  0.02112261  0.80848258  1  -0.069445  0  -0.085343  -0.124085  0  3.933382  0
C  C55  1  0.39916602  0.97888234  0.19151691  1  -0.068864  0  -0.085304  -0.124011  0  3.933084  0
C  C56  1  0.47719659  0.15895151  0.67411958  1  -0.040316  0  -0.009839  0.096935  0  3.97063  0
C  C57  1  0.97719862  0.84104398  0.32588230  1  -0.040554  0  -0.009916  0.096862  0  3.970675  0
C  C58  1  0.97719822  0.15896234  0.82587908  1  -0.040056  0  -0.009924  0.096862  0  3.970719  0
C  C59  1  0.47718778  0.84105046  0.17411954  1  -0.040278  0  -0.0099  0.096886  0  3.970695  0
C  C60  1  0.53248442  0.26787866  0.71274159  1  -0.063527  0  -0.095228  -0.14728  0  4.002343  0
C  C61  1  0.03247495  0.73211926  0.28725772  1  -0.063522  0  -0.095212  -0.147289  0  4.002243  0
C  C62  1  0.03246362  0.26788802  0.78725552  1  -0.063367  0  -0.095199  -0.147205  0  4.002429  0
C  C63  1  0.53247338  0.73212144  0.21274216  1  -0.063473  0  -0.095233  -0.147356  0  4.002372  0
C  C64  1  0.51119017  0.23861552  0.76808278  1  -0.034571  0  -0.083016  -0.083696  0  3.992426  0
C  C65  1  0.01118490  0.76139169  0.23191737  1  -0.034897  0  -0.082994  -0.083557  0  3.992408  0
C  C66  1  0.01118815  0.23862058  0.73191634  1  -0.034442  0  -0.082958  -0.083608  0  3.992342  0
C  C67  1  0.51118560  0.76138663  0.26808299  1  -0.034575  0  -0.08299  -0.083582  0  3.992365  0
C  C68  1  0.50895968  0.18347523  0.61410989  1  0.267176  0  -0.045133  -0.140181  0  3.843313  0
C  C69  1  0.00896239  0.81651584  0.38589107  1  0.267547  0  -0.045074  -0.13995  0  3.843338  0
C  C70  1  0.00895533  0.18348380  0.88588871  1  0.267301  0  -0.045098  -0.140073  0  3.84343  0
C  C71  1  0.50894702  0.81652342  0.11410980  1  0.267157  0  -0.045161  -0.140297  0  3.843512  0
C  C72  1  0.27578434  0.36860953  0.59410636  1  0.364147  0  0.068637  0.044411  0  3.820227  0
C  C73  1  0.77578530  0.63138653  0.40588750  1  0.363953  0  0.068697  0.044452  0  3.820324  0
C  C74  1  0.77577491  0.36861467  0.90589283  1  0.363662  0  0.068651  0.04448  0  3.82006  0
C  C75  1  0.27577499  0.63138948  0.09410878  1  0.364735  0  0.068726  0.044556  0  3.820299  0
C  C76  1  0.21671652  0.51111010  0.57734240  1  -0.025732  0  -0.06293  -0.129436  0  3.895328  0
C  C77  1  0.71671131  0.48888268  0.42265190  1  -0.025325  0  -0.062914  -0.129578  0  3.895252  0
C  C78  1  0.71671619  0.51112587  0.92265710  1  -0.025584  0  -0.062872  -0.129458  0  3.895296  0
C  C79  1  0.21670638  0.48887960  0.07734576  1  -0.025676  0  -0.062895  -0.129561  0  3.89529  0
C  C80  1  0.33801801  0.62489842  0.56162032  1  0.037937  0  0.03867  0.05587  0  3.84717  0
C  C81  1  0.83800655  0.37508824  0.43837472  1  0.03814  0  0.03874  0.056186  0  3.846675  0
C  C82  1  0.83800969  0.62491443  0.93837932  1  0.038142  0  0.038669  0.055913  0  3.847248  0
C  C83  1  0.33800303  0.37509068  0.06162347  1  0.038212  0  0.038724  0.056069  0  3.84695  0
C  C84  1  0.51860966  0.59090560  0.56335604  1  0.038654  0  0.003143  -0.07942  0  3.894751  0
C  C85  1  0.01860302  0.40907389  0.43664084  1  0.038539  0  0.003136  -0.079648  0  3.894924  0
C  C86  1  0.01860365  0.59092649  0.93664130  1  0.038657  0  0.003098  -0.07968  0  3.895064  0
C  C87  1  0.51859850  0.40907954  0.06335843  1  0.038237  0  0.003135  -0.07955  0  3.894964  0
C  C88  1  0.57063952  0.44472041  0.58023619  1  0.459106  0  0.083645  0.050621  0  3.793531  0
C  C89  1  0.07063114  0.55526470  0.41976107  1  0.459245  0  0.083582  0.050787  0  3.794023  0
C  C90  1  0.07062705  0.44473066  0.91976328  1  0.459201  0  0.083693  0.050844  0  3.793997  0
C  C91  1  0.57062519  0.55527176  0.08023804  1  0.459546  0  0.083652  0.050624  0  3.793743  0
C  C92  1  0.65850191  0.70733419  0.54840036  1  1.600048  0  0.208943  0.580685  0  4.236104  0
C  C93  1  0.15849297  0.29264836  0.45159887  1  1.599501  0  0.209015  0.580711  0  4.235627  0
C  C94  1  0.15849843  0.70734839  0.95160201  1  1.600014  0  0.209065  0.580768  0  4.235707  0
C  C95  1  0.65849249  0.29265609  0.04840171  1  1.599534  0  0.208962  0.580751  0  4.23573  0
C  C96  1  0.26438883  0.77697696  0.54286578  1  1.616056  0  0.210017  0.562126  0  4.296586  0
C  C97  1  0.76436728  0.22301337  0.45712890  1  1.615716  0  0.209913  0.562007  0  4.296527  0
C  C98  1  0.76438564  0.77699788  0.95713461  1  1.61622  0  0.210008  0.562051  0  4.296523  0
C  C99  1  0.26437178  0.22301091  0.04286700  1  1.615967  0  0.209912  0.561955  0  4.296689  0
N  N100  1  0.45091268  0.33776591  0.59517760  1  -1.222322  0  -0.204121  0.102494  0  3.745174  0
N  N101  1  0.95090958  0.66222042  0.40482022  1  -1.222587  0  -0.204091  0.102268  0  3.745818  0
N  N102  1  0.95091115  0.33777911  0.90482264  1  -1.22281  0  -0.204167  0.102331  0  3.745528  0
N  N103  1  0.45090058  0.66222684  0.09517885  1  -1.222823  0  -0.204169  0.10255  0  3.745341  0
O  O104  1  0.35499702  0.93577511  0.86002261  1  -1.140645  0  -0.302437  -0.530747  0  2.135128  0
O  O105  1  0.85500711  0.06424034  0.13998384  1  -1.140943  0  -0.302511  -0.5309  0  2.135146  0
O  O106  1  0.85500778  0.93577040  0.63997844  1  -1.140675  0  -0.302477  -0.530796  0  2.135227  0
O  O107  1  0.35500687  0.06423813  0.36002148  1  -1.140855  0  -0.302522  -0.530849  0  2.135148  0
O  O108  1  0.46131245  0.16984315  0.87981159  1  -1.192797  0  -0.315051  -0.569286  0  2.168986  0
O  O109  1  0.96128431  0.83016162  0.12018867  1  -1.193141  0  -0.315246  -0.569578  0  2.168269  0
O  O110  1  0.96131150  0.16984505  0.62018954  1  -1.192789  0  -0.315094  -0.569327  0  2.168799  0
O  O111  1  0.46130763  0.83016433  0.37981317  1  -1.192748  0  -0.315081  -0.569347  0  2.168848  0
O  O112  1  0.81794283  0.66589482  0.54978223  1  -1.167635  0  -0.30957  -0.561186  0  2.131952  0
O  O113  1  0.31793375  0.33409189  0.45022220  1  -1.167316  0  -0.309677  -0.561251  0  2.131496  0
O  O114  1  0.31793411  0.66590322  0.95021995  1  -1.167456  0  -0.309693  -0.561244  0  2.131594  0
O  O115  1  0.81793064  0.33410311  0.04978081  1  -1.167401  0  -0.309666  -0.561283  0  2.131601  0
O  O116  1  0.60549726  0.84297787  0.53599262  1  -1.181337  0  -0.298838  -0.599254  0  2.259363  0
O  O117  1  0.10549268  0.15700137  0.46400257  1  -1.18114  0  -0.298887  -0.599253  0  2.259287  0
O  O118  1  0.10549502  0.84299919  0.96400515  1  -1.181563  0  -0.29891  -0.599265  0  2.259276  0
O  O119  1  0.60549887  0.15700776  0.03599697  1  -1.181145  0  -0.298836  -0.599256  0  2.25933  0
O  O120  1  0.22421292  0.87422141  0.57935006  1  -1.165386  0  -0.291574  -0.54884  0  2.196019  0
O  O121  1  0.72418145  0.12577134  0.42064954  1  -1.165094  0  -0.2916  -0.548846  0  2.196204  0
O  O122  1  0.72420997  0.87424523  0.92065463  1  -1.165531  0  -0.291579  -0.548849  0  2.196047  0
O  O123  1  0.22418965  0.12576829  0.07934701  1  -1.165292  0  -0.291514  -0.548777  0  2.196148  0
O  O124  1  0.23353374  0.78920757  0.49214907  1  -1.167593  0  -0.298551  -0.588685  0  2.247154  0
O  O125  1  0.73353163  0.21078169  0.50784849  1  -1.167511  0  -0.298465  -0.58865  0  2.247044  0
O  O126  1  0.73353353  0.78921467  0.00785283  1  -1.167654  0  -0.298531  -0.58862  0  2.247085  0
O  O127  1  0.23352657  0.21078613  0.99214880  1  -1.167656  0  -0.298526  -0.588661  0  2.247204  0
