# generated using pymatgen
data_UAg2H12C24N4(Cl2O5)2
_symmetry_space_group_name_H-M   'P 1'
_cell_length_a   7.39182984
_cell_length_b   9.42269427
_cell_length_c   11.24783234
_cell_angle_alpha   91.94669578
_cell_angle_beta   88.56509155
_cell_angle_gamma   81.11107065
_symmetry_Int_Tables_number   1
_chemical_formula_structural   UAg2H12C24N4(Cl2O5)2
_chemical_formula_sum   'U1 Ag2 H12 C24 N4 Cl4 O10'
_cell_volume   773.20236229
_cell_formula_units_Z   1
loop_
 _symmetry_equiv_pos_site_id
 _symmetry_equiv_pos_as_xyz
  1  'x, y, z'
loop_
 _atom_site_type_symbol
 _atom_site_label
 _atom_site_symmetry_multiplicity
 _atom_site_fract_x
 _atom_site_fract_y
 _atom_site_fract_z
 _atom_site_occupancy
 _atom_site_hle17_bader_spin_density
 _atom_site_hle17_ddec_charge
 _atom_site_hle17_ddec_spin_density
 _atom_site_hle17_ddec_sum_bond_order
 _atom_site_hle17_magmom
 _atom_site_hse06_10hf_bader_spin_density
 _atom_site_hse06_10hf_ddec_charge
 _atom_site_hse06_10hf_ddec_spin_density
 _atom_site_hse06_10hf_ddec_sum_bond_order
 _atom_site_hse06_10hf_magmom
 _atom_site_hse06_bader_spin_density
 _atom_site_hse06_ddec_charge
 _atom_site_hse06_ddec_spin_density
 _atom_site_hse06_ddec_sum_bond_order
 _atom_site_hse06_magmom
 _atom_site_pbe_bader_spin_density
 _atom_site_pbe_cm5_charge
 _atom_site_pbe_ddec_charge
 _atom_site_pbe_ddec_spin_density
 _atom_site_pbe_ddec_sum_bond_order
 _atom_site_pbe_magmom
U  U0  1  0.99998875  0.99998624  0.99999136  1  0  2.468374  0  4.070427  0  0  2.540551  0  4.709196  0  0  2.652437  0  4.673386  0  0  2.103039  2.461298  0  4.734981  0
Ag  Ag1  1  0.41840342  0.10791399  0.18880128  1  0  0.609784  0  1.322266  0  0  0.468232  0  1.757193  0  0  0.497446  0  1.708771  0  0  0.48428  0.449981  0  1.789963  0
Ag  Ag2  1  0.58158192  0.89209060  0.81119582  1  0  0.609723  0  1.322192  0  0  0.468125  0  1.757131  0  0  0.497343  0  1.70872  0  0  0.484295  0.449839  0  1.789937  0
H  H3  1  0.13236935  0.26069938  0.64119251  1  0  0.108801  0  0.963052  0  0  0.114854  0  1.02845  0  0  0.118745  0  1.026151  0  0  0.103227  0.112047  0  1.030357  0
H  H4  1  0.86765796  0.73928715  0.35880967  1  0  0.108818  0  0.963005  0  0  0.11488  0  1.028395  0  0  0.118769  0  1.026103  0  0  0.103235  0.112081  0  1.030295  0
H  H5  1  0.34884874  0.85183716  0.36560344  1  0  0.100043  0  0.944368  0  0  0.105253  0  1.010539  0  0  0.108648  0  1.007898  0  0  0.114542  0.102754  0  1.012609  0
H  H6  1  0.65118839  0.14816013  0.63439579  1  0  0.100224  0  0.944241  0  0  0.105318  0  1.010493  0  0  0.108712  0  1.00785  0  0  0.114529  0.102822  0  1.012552  0
H  H7  1  0.24481576  0.29227210  0.43250729  1  0  0.076957  0  0.92709  0  0  0.0847  0  0.989311  0  0  0.087845  0  0.986828  0  0  0.111824  0.082511  0  0.991077  0
H  H8  1  0.75522962  0.70772106  0.56750221  1  0  0.076835  0  0.927117  0  0  0.084617  0  0.989292  0  0  0.087754  0  0.986817  0  0  0.111817  0.082428  0  0.991056  0
H  H9  1  0.69269847  0.32214854  0.17387705  1  0  0.111735  0  0.956622  0  0  0.116261  0  1.025007  0  0  0.120274  0  1.020579  0  0  0.118065  0.113337  0  1.028288  0
H  H10  1  0.30727578  0.67785708  0.82611965  1  0  0.111849  0  0.956697  0  0  0.116325  0  1.025072  0  0  0.120335  0  1.020647  0  0  0.118104  0.113402  0  1.028341  0
H  H11  1  0.11301650  0.63964083  0.11701087  1  0  0.121292  0  0.963945  0  0  0.12986  0  1.02674  0  0  0.133398  0  1.024604  0  0  0.111434  0.127419  0  1.028395  0
H  H12  1  0.88694627  0.36036379  0.88299430  1  0  0.121312  0  0.964083  0  0  0.129818  0  1.026959  0  0  0.13336  0  1.024822  0  0  0.111405  0.127375  0  1.028618  0
H  H13  1  0.12820963  0.37418040  0.14590048  1  0  0.090994  0  0.950289  0  0  0.098788  0  1.015815  0  0  0.10187  0  1.01205  0  0  0.114912  0.096664  0  1.018555  0
H  H14  1  0.87176287  0.62581980  0.85409355  1  0  0.09105  0  0.950329  0  0  0.098819  0  1.015853  0  0  0.101895  0  1.012103  0  0  0.114955  0.096704  0  1.018575  0
C  C15  1  0.12156449  0.01695073  0.75129976  1  0  0.6469  0  3.899886  0  0  0.604172  0  4.20082  0  0  0.641207  0  4.191562  0  0  0.207308  0.578882  0  4.206287  0
C  C16  1  0.87845308  0.98304216  0.24869757  1  0  0.647003  0  3.899764  0  0  0.604277  0  4.200764  0  0  0.641294  0  4.191549  0  0  0.207332  0.578986  0  4.206238  0
C  C17  1  0.18294669  0.02974130  0.62458134  1  0  -0.049788  0  3.681553  0  0  -0.036206  0  3.910301  0  0  -0.038906  0  3.928126  0  0  0.003039  -0.034506  0  3.898588  0
C  C18  1  0.81707601  0.97025379  0.37541847  1  0  -0.049776  0  3.681245  0  0  -0.036363  0  3.910254  0  0  -0.039052  0  3.928063  0  0  0.003035  -0.034669  0  3.898563  0
C  C19  1  0.18088493  0.16806691  0.58208152  1  0  -0.099981  0  3.706988  0  0  -0.122273  0  3.958111  0  0  -0.126363  0  3.977986  0  0  -0.075761  -0.11975  0  3.944946  0
C  C20  1  0.81914330  0.83192178  0.41792064  1  0  -0.099992  0  3.706873  0  0  -0.122254  0  3.958054  0  0  -0.126342  0  3.977924  0  0  -0.075744  -0.119735  0  3.944887  0
C  C21  1  0.24475171  0.91379881  0.54473366  1  0  0.078007  0  3.755084  0  0  0.084636  0  4.023843  0  0  0.084957  0  4.045925  0  0  0.022843  0.084121  0  4.009113  0
C  C22  1  0.75527602  0.08619734  0.45526328  1  0  0.078076  0  3.755348  0  0  0.084756  0  4.024058  0  0  0.08508  0  4.046137  0  0  0.022822  0.084236  0  4.009332  0
C  C23  1  0.30158895  0.94051932  0.42915660  1  0  0.067701  0  3.697522  0  0  0.029084  0  3.958648  0  0  0.033555  0  3.976262  0  0  0.039467  0.026166  0  3.946759  0
C  C24  1  0.69845051  0.05947369  0.57084425  1  0  0.067315  0  3.697766  0  0  0.028793  0  3.958891  0  0  0.033265  0  3.976506  0  0  0.039397  0.025877  0  3.946989  0
C  C25  1  0.24265693  0.18548852  0.46671847  1  0  0.101469  0  3.751672  0  0  0.067497  0  4.019733  0  0  0.072323  0  4.037735  0  0  0.036615  0.064378  0  4.007306  0
C  C26  1  0.75738166  0.81450347  0.53328686  1  0  0.101664  0  3.751617  0  0  0.06765  0  4.019726  0  0  0.072481  0  4.037729  0  0  0.036589  0.06453  0  4.007292  0
C  C27  1  0.38528657  0.79351820  0.11398284  1  0  0.690278  0  3.864005  0  0  0.645881  0  4.158871  0  0  0.684764  0  4.145563  0  0  0.231418  0.619112  0  4.167143  0
C  C28  1  0.61468499  0.20648741  0.88601396  1  0  0.690119  0  3.864159  0  0  0.64573  0  4.158913  0  0  0.684608  0  4.145604  0  0  0.231341  0.618961  0  4.167184  0
C  C29  1  0.56617853  0.54319628  0.15381262  1  0  0.072328  0  3.769906  0  0  0.079033  0  4.035779  0  0  0.078339  0  4.058683  0  0  0.019181  0.079114  0  4.020656  0
C  C30  1  0.43378225  0.45681044  0.84618911  1  0  0.072266  0  3.770128  0  0  0.079019  0  4.035835  0  0  0.07832  0  4.058745  0  0  0.019197  0.079097  0  4.020713  0
C  C31  1  0.40206914  0.63472565  0.13447753  1  0  -0.055678  0  3.679959  0  0  -0.043979  0  3.910951  0  0  -0.046006  0  3.928996  0  0  0.002099  -0.042793  0  3.899172  0
C  C32  1  0.59789876  0.36528649  0.86552575  1  0  -0.055617  0  3.68041  0  0  -0.043833  0  3.911187  0  0  -0.045848  0  3.929229  0  0  0.002201  -0.042647  0  3.899404  0
C  C33  1  0.56555451  0.39611639  0.16519487  1  0  0.047336  0  3.7078  0  0  0.005742  0  3.967998  0  0  0.012368  0  3.983706  0  0  0.03428  0.001173  0  3.957687  0
C  C34  1  0.43441673  0.60389028  0.83480019  1  0  0.047063  0  3.708297  0  0  0.005516  0  3.968559  0  0  0.012136  0  3.984274  0  0  0.034109  0.000949  0  3.958241  0
C  C35  1  0.24241997  0.57183159  0.13278403  1  0  -0.112835  0  3.715968  0  0  -0.135958  0  3.968702  0  0  -0.141054  0  3.989082  0  0  -0.078594  -0.132725  0  3.955328  0
C  C36  1  0.75754887  0.42816983  0.86722084  1  0  -0.11276  0  3.716344  0  0  -0.135874  0  3.96896  0  0  -0.140978  0  3.989332  0  0  -0.078619  -0.132646  0  3.955591  0
C  C37  1  0.25025423  0.42578259  0.14887496  1  0  0.102607  0  3.717341  0  0  0.067202  0  3.974651  0  0  0.073568  0  3.992963  0  0  0.034667  0.062615  0  3.962952  0
C  C38  1  0.74972040  0.57422199  0.85112437  1  0  0.102453  0  3.717392  0  0  0.067128  0  3.974682  0  0  0.073497  0  3.992991  0  0  0.034615  0.062528  0  3.963004  0
N  N39  1  0.30226448  0.07346083  0.39112345  1  0  -0.28753  0  3.235556  0  0  -0.22631  0  3.527575  0  0  -0.240534  0  3.542666  0  0  -0.317469  -0.216544  0  3.517097  0
N  N40  1  0.69777872  0.92652793  0.60887985  1  0  -0.287494  0  3.235352  0  0  -0.226239  0  3.527334  0  0  -0.240465  0  3.542418  0  0  -0.317397  -0.216463  0  3.516839  0
N  N41  1  0.41044470  0.33860569  0.16315571  1  0  -0.273706  0  3.324431  0  0  -0.191405  0  3.610536  0  0  -0.209061  0  3.626241  0  0  -0.337997  -0.179463  0  3.599618  0
N  N42  1  0.58952717  0.66139888  0.83684285  1  0  -0.273635  0  3.324844  0  0  -0.191414  0  3.61097  0  0  -0.20907  0  3.626673  0  0  -0.337947  -0.179469  0  3.600045  0
Cl  Cl43  1  0.24993532  0.73630730  0.57999805  1  0  -0.076306  0  1.350812  0  0  -0.058878  0  1.564885  0  0  -0.062956  0  1.560865  0  0  0.016376  -0.055765  0  1.567899  0
Cl  Cl44  1  0.75008980  0.26368016  0.41999355  1  0  -0.076234  0  1.350897  0  0  -0.058814  0  1.564971  0  0  -0.062895  0  1.560952  0  0  0.016428  -0.055698  0  1.567987  0
Cl  Cl45  1  0.77475303  0.60295777  0.15791199  1  0  -0.045106  0  1.447065  0  0  -0.022424  0  1.687632  0  0  -0.027946  0  1.683597  0  0  0.050104  -0.018178  0  1.690587  0
Cl  Cl46  1  0.22521416  0.39705226  0.84209486  1  0  -0.044969  0  1.447168  0  0  -0.02232  0  1.68771  0  0  -0.027833  0  1.683678  0  0  0.050168  -0.01808  0  1.690664  0
O  O47  1  0.20229700  0.91886158  0.81501721  1  0  -0.634536  0  2.06938  0  0  -0.603015  0  2.339977  0  0  -0.634854  0  2.332548  0  0  -0.326695  -0.580782  0  2.344361  0
O  O48  1  0.79769684  0.08113444  0.18497941  1  0  -0.634595  0  2.069187  0  0  -0.603011  0  2.339727  0  0  -0.634854  0  2.332315  0  0  -0.326657  -0.580776  0  2.344116  0
O  O49  1  0.11832821  0.14619208  0.04813904  1  0  -0.749552  0  1.643086  0  0  -0.753015  0  1.965601  0  0  -0.772536  0  1.946915  0  0  -0.766145  -0.742112  0  1.979261  0
O  O50  1  0.88167745  0.85383305  0.95186013  1  0  -0.749068  0  1.644123  0  0  -0.752476  0  1.966704  0  0  -0.771973  0  1.948008  0  0  -0.766474  -0.741585  0  1.980369  0
O  O51  1  0.99033337  0.10871956  0.79516389  1  0  -0.624554  0  1.983676  0  0  -0.602678  0  2.239579  0  0  -0.634646  0  2.236817  0  0  -0.332432  -0.580168  0  2.24075  0
O  O52  1  0.00969092  0.89129379  0.20483433  1  0  -0.624648  0  1.983978  0  0  -0.602723  0  2.239823  0  0  -0.634639  0  2.236968  0  0  -0.332419  -0.580216  0  2.241001  0
O  O53  1  0.27022400  0.83943001  0.03605122  1  0  -0.677436  0  2.135057  0  0  -0.662674  0  2.427827  0  0  -0.698567  0  2.420253  0  0  -0.375096  -0.636324  0  2.431526  0
O  O54  1  0.72977268  0.16057362  0.96395071  1  0  -0.677505  0  2.134845  0  0  -0.662774  0  2.427629  0  0  -0.698673  0  2.420067  0  0  -0.375122  -0.63642  0  2.431323  0
O  O55  1  0.48045306  0.86675521  0.17475204  1  0  -0.573614  0  2.063769  0  0  -0.512924  0  2.328828  0  0  -0.542398  0  2.315949  0  0  -0.296913  -0.492053  0  2.336844  0
O  O56  1  0.51953315  0.13325491  0.82525577  1  0  -0.57346  0  2.06397  0  0  -0.512685  0  2.328866  0  0  -0.542146  0  2.315979  0  0  -0.296812  -0.491821  0  2.336886  0
