# generated using pymatgen
data_ZnH12C23Br2(NO)4
_symmetry_space_group_name_H-M   'P 1'
_cell_length_a   21.55034663
_cell_length_b   21.54929810
_cell_length_c   21.69101894
_cell_angle_alpha   60.24343581
_cell_angle_beta   63.15172105
_cell_angle_gamma   90.00635706
_symmetry_Int_Tables_number   1
_chemical_formula_structural   ZnH12C23Br2(NO)4
_chemical_formula_sum   'Zn4 H48 C92 Br8 N16 O16'
_cell_volume   7468.11597275
_cell_formula_units_Z   4
loop_
 _symmetry_equiv_pos_site_id
 _symmetry_equiv_pos_as_xyz
  1  'x, y, z'
loop_
 _atom_site_type_symbol
 _atom_site_label
 _atom_site_symmetry_multiplicity
 _atom_site_fract_x
 _atom_site_fract_y
 _atom_site_fract_z
 _atom_site_occupancy
 _atom_site_pbe_bader_charge
 _atom_site_pbe_bader_spin_density
 _atom_site_pbe_cm5_charge
 _atom_site_pbe_ddec_charge
 _atom_site_pbe_ddec_spin_density
 _atom_site_pbe_ddec_sum_bond_order
 _atom_site_pbe_magmom
Zn  Zn0  1  0.54282274  0.04623136  0.90660485  1  1.296192  0  0.682759  0.856624  0  2.329906  0
Zn  Zn1  1  0.45697707  0.95293376  0.09347645  1  1.296612  0  0.67907  0.853754  0  2.338824  0
Zn  Zn2  1  0.95782193  0.45483636  0.09056926  1  1.290605  0  0.675495  0.838846  0  2.387424  0
Zn  Zn3  1  0.04196092  0.54534326  0.90926044  1  1.296091  0  0.672589  0.838299  0  2.392272  0
H  H4  1  0.80713931  0.38707336  0.22015623  1  0.102942  0  0.121109  0.102343  0  0.980286  0
H  H5  1  0.72886166  0.31516403  0.37628292  1  0.133979  0  0.110414  0.123659  0  1.015512  0
H  H6  1  0.57944914  0.19881937  0.61279885  1  0.066523  0  0.108488  0.132467  0  1.005938  0
H  H7  1  0.77786646  0.19335178  0.61615172  1  0.034431  0  0.098787  0.118815  0  1.042479  0
H  H8  1  0.19229588  0.60760910  0.77995915  1  0.109101  0  0.121052  0.101907  0  0.982578  0
H  H9  1  0.27094923  0.69226742  0.62360225  1  0.118933  0  0.110657  0.123972  0  1.016248  0
H  H10  1  0.42055901  0.81105030  0.38759300  1  0.065795  0  0.108273  0.131628  0  1.005457  0
H  H11  1  0.22205942  0.81039392  0.38452811  1  0.051773  0  0.098659  0.118249  0  1.044014  0
H  H12  1  0.57634944  0.07210978  0.13344094  1  0.086764  0  0.107058  0.117315  0  1.003705  0
H  H13  1  0.61144315  0.10289429  0.21125742  1  0.083273  0  0.107443  0.125824  0  0.986796  0
H  H14  1  0.69980513  0.20292667  0.86677153  1  0.087776  0  0.095073  0.105365  0  1.049803  0
H  H15  1  0.91993546  0.42852877  0.86740525  1  0.08886  0  0.104047  0.112922  0  1.009149  0
H  H16  1  0.88655915  0.39607166  0.78923121  1  0.076671  0  0.105712  0.123032  0  0.989253  0
H  H17  1  0.80057036  0.29335479  0.13402238  1  0.131969  0  0.096666  0.107657  0  1.046468  0
H  H18  1  0.30289388  0.79386175  0.13218943  1  0.101613  0  0.105755  0.115708  0  1.005816  0
H  H19  1  0.19805363  0.68398959  0.20948588  1  0.085252  0  0.106897  0.124561  0  0.986744  0
H  H20  1  0.42133223  0.93089245  0.86556247  1  0.133207  0  0.09288  0.100829  0  1.053218  0
H  H21  1  0.20183323  0.70597277  0.86397703  1  0.082325  0  0.108491  0.118538  0  0.9972  0
H  H22  1  0.30551795  0.81665408  0.78674782  1  0.082549  0  0.108717  0.126674  0  0.984149  0
H  H23  1  0.07857950  0.57310890  0.13036041  1  0.090462  0  0.092754  0.102397  0  1.053987  0
H  H24  1  0.29939055  0.07061718  0.13453042  1  0.072254  0  0.103711  0.110356  0  1.006643  0
H  H25  1  0.19476043  0.10354290  0.21168160  1  0.073062  0  0.105389  0.12316  0  0.989591  0
H  H26  1  0.42320012  0.20401513  0.86786617  1  0.127989  0  0.095788  0.108322  0  1.049562  0
H  H27  1  0.19961238  0.42646898  0.86514033  1  0.10764  0  0.107045  0.114889  0  1.000089  0
H  H28  1  0.30492654  0.39474311  0.78844742  1  0.067866  0  0.10816  0.125785  0  0.985871  0
H  H29  1  0.07982188  0.29765162  0.13170584  1  0.114157  0  0.094024  0.105575  0  1.050671  0
H  H30  1  0.57689876  0.79301232  0.13604079  1  0.086743  0  0.104588  0.111423  0  1.004672  0
H  H31  1  0.61088983  0.68304175  0.21314006  1  0.086248  0  0.106495  0.123584  0  0.988346  0
H  H32  1  0.69587880  0.92656009  0.86933577  1  0.12942  0  0.095298  0.107555  0  1.050422  0
H  H33  1  0.92257618  0.70657172  0.86759783  1  0.088051  0  0.102597  0.110477  0  1.009062  0
H  H34  1  0.88639866  0.81493242  0.79012610  1  0.087216  0  0.105329  0.121686  0  0.99103  0
H  H35  1  0.79871017  0.56897215  0.13389976  1  0.117273  0  0.096549  0.108035  0  1.044288  0
H  H36  1  0.03995779  0.40954368  0.15729021  1  0.482491  0  0.307001  0.326269  0  0.964099  0
H  H37  1  0.03828997  0.40074220  0.24166631  1  0.438327  0  0.313562  0.307539  0  0.938365  0
H  H38  1  0.90330474  0.27232949  0.45329743  1  0.483266  0  0.30774  0.296649  0  0.962913  0
H  H39  1  0.98272790  0.29652814  0.36418163  1  0.465677  0  0.310143  0.298115  0  0.94674  0
H  H40  1  0.46656565  0.06468424  0.83732915  1  0.508819  0  0.302117  0.321709  0  0.988849  0
H  H41  1  0.46965093  0.12306860  0.74477765  1  0.430569  0  0.318687  0.316397  0  0.921839  0
H  H42  1  0.68226550  0.09495160  0.84052800  1  0.49805  0  0.299765  0.317922  0  0.993535  0
H  H43  1  0.76423837  0.13099958  0.74926170  1  0.408873  0  0.314371  0.311303  0  0.925414  0
H  H44  1  0.96034893  0.56328539  0.84196985  1  0.488981  0  0.306088  0.327813  0  0.973793  0
H  H45  1  0.96107699  0.63864206  0.75802192  1  0.456399  0  0.315802  0.308729  0  0.932661  0
H  H46  1  0.09734305  0.72623351  0.54577201  1  0.467287  0  0.306776  0.294785  0  0.961852  0
H  H47  1  0.01809060  0.66035619  0.63392293  1  0.447159  0  0.310777  0.298717  0  0.945174  0
H  H48  1  0.53312358  0.90129673  0.16290410  1  0.515491  0  0.301412  0.324481  0  0.98915  0
H  H49  1  0.53007196  0.86675984  0.25564798  1  0.426838  0  0.32045  0.317075  0  0.919545  0
H  H50  1  0.31757645  0.93554963  0.15990113  1  0.518506  0  0.299877  0.317528  0  0.996269  0
H  H51  1  0.23552893  0.88077975  0.25149661  1  0.436872  0  0.315878  0.311851  0  0.924271  0
C  C52  1  0.41497011  0.91550490  0.99960905  1  1.57565  0  0.220495  0.602168  0  4.155224  0
C  C53  1  0.41477437  0.08419950  0.00056026  1  1.564266  0  0.220411  0.601013  0  4.156871  0
C  C54  1  0.58454293  0.08363860  0.00090183  1  1.563737  0  0.219573  0.600554  0  4.157488  0
C  C55  1  0.58360404  0.91363004  0.00211742  1  1.577371  0  0.219325  0.601233  0  4.157452  0
C  C56  1  0.08736201  0.41654145  0.99672883  1  1.584757  0  0.218994  0.599228  0  4.157872  0
C  C57  1  0.08701979  0.58613040  0.99689362  1  1.584389  0  0.21597  0.595656  0  4.166572  0
C  C58  1  0.91392667  0.58420943  0.00066001  1  1.582631  0  0.214781  0.593886  0  4.168558  0
C  C59  1  0.91266217  0.41364455  0.00240333  1  1.574496  0  0.219263  0.600127  0  4.157865  0
C  C60  1  0.83039429  0.36901964  0.25947513  1  0.38474  0  0.027154  0.076301  0  4.007293  0
C  C61  1  0.78781758  0.33005684  0.34452631  1  0.023204  0  -0.102378  -0.222205  0  4.034605  0
C  C62  1  0.82203968  0.30777298  0.39143812  1  0.392387  0  0.087  0.098793  0  4.048222  0
C  C63  1  0.89844437  0.32714117  0.34970976  1  0.402674  0  0.11436  0.123858  0  4.009223  0
C  C64  1  0.93866129  0.36910054  0.26057765  1  1.077835  0  0.233057  0.36132  0  4.036303  0
C  C65  1  0.60738061  0.18023038  0.64706781  1  0.000182  0  -0.112464  -0.349881  0  3.919028  0
C  C66  1  0.68307760  0.20113686  0.60444355  1  0.364452  0  0.089243  0.239117  0  4.132146  0
C  C67  1  0.71891071  0.17696235  0.64842853  1  0.001943  0  -0.133302  -0.385026  0  3.970975  0
C  C68  1  0.67712956  0.13263683  0.73547578  1  0.955363  0  0.223246  0.481501  0  4.08628  0
C  C69  1  0.56819870  0.13360411  0.73452588  1  0.999824  0  0.228714  0.480595  0  4.083855  0
C  C70  1  0.16930315  0.62848032  0.74035223  1  0.335814  0  0.02663  0.075859  0  4.012146  0
C  C71  1  0.21200610  0.67486913  0.65535613  1  0.091205  0  -0.102738  -0.223874  0  4.040036  0
C  C72  1  0.17785984  0.69920951  0.60840049  1  0.395918  0  0.086594  0.09786  0  4.057418  0
C  C73  1  0.10153490  0.67628805  0.64978994  1  0.530903  0  0.11273  0.120996  0  4.014926  0
C  C74  1  0.06127560  0.62821568  0.73879660  1  0.9463  0  0.232149  0.360674  0  4.040012  0
C  C75  1  0.39265762  0.82712512  0.35327642  1  -0.006633  0  -0.112097  -0.349771  0  3.921718  0
C  C76  1  0.31699732  0.80594199  0.39590603  1  0.337657  0  0.088153  0.238172  0  4.137386  0
C  C77  1  0.28101967  0.82605420  0.35208797  1  0.104298  0  -0.134209  -0.387309  0  3.973329  0
C  C78  1  0.32270540  0.86847877  0.26507545  1  0.865198  0  0.222616  0.47835  0  4.090343  0
C  C79  1  0.43167700  0.86790284  0.26583028  1  1.012717  0  0.228551  0.479385  0  4.088165  0
C  C80  1  0.62196626  0.11890335  0.07547106  1  -0.047869  0  -0.079555  -0.137415  0  3.919379  0
C  C81  1  0.66775794  0.16414945  0.07642809  1  0.030043  0  -0.005473  0.090524  0  4.042536  0
C  C82  1  0.65651313  0.14999305  0.15310071  1  0.095812  0  -0.097349  -0.193586  0  3.996802  0
C  C83  1  0.69176468  0.19282338  0.92462854  1  0.019009  0  -0.089664  -0.141475  0  3.936521  0
C  C84  1  0.73821197  0.24020250  0.92262067  1  0.01801  0  -0.01148  0.032785  0  4.021571  0
C  C85  1  0.79786659  0.30337326  0.84721711  1  -0.10517  0  -0.015188  0.071631  0  3.964259  0
C  C86  1  0.87542624  0.38066627  0.92547190  1  0.013678  0  -0.080385  -0.140428  0  3.920924  0
C  C87  1  0.83061749  0.33468192  0.92416655  1  0.028237  0  -0.007135  0.089428  0  4.041586  0
C  C88  1  0.84187567  0.34861747  0.84750420  1  -0.03509  0  -0.097178  -0.192017  0  3.992485  0
C  C89  1  0.80763253  0.30413012  0.07629474  1  -0.017041  0  -0.083816  -0.130864  0  3.934485  0
C  C90  1  0.76083429  0.25748834  0.07799444  1  -0.045933  0  -0.009756  0.033178  0  4.021631  0
C  C91  1  0.70105148  0.19454714  0.15350418  1  -0.161435  0  -0.01322  0.074185  0  3.970314  0
C  C92  1  0.63408532  0.13301258  0.00021504  1  -0.013323  0  -0.017064  -0.020847  0  3.997481  0
C  C93  1  0.72657187  0.22594084  0.99962813  1  0.016575  0  0.007037  0.010925  0  3.90907  0
C  C94  1  0.86411075  0.36519821  0.00099895  1  -0.028141  0  -0.018165  -0.022  0  3.997823  0
C  C95  1  0.77228203  0.27230682  0.00086145  1  -0.025587  0  0.005807  0.009232  0  3.910778  0
C  C96  1  0.30999720  0.80522985  0.07412101  1  0.006833  0  -0.077446  -0.134957  0  3.91602  0
C  C97  1  0.26369540  0.75893579  0.07473689  1  -0.029453  0  -0.006048  0.089275  0  4.03971  0
C  C98  1  0.20568810  0.69569650  0.15113878  1  0.080422  0  -0.095474  -0.190921  0  3.993073  0
C  C99  1  0.37699555  0.88288772  0.92331631  1  -0.039497  0  -0.086308  -0.133425  0  3.939953  0
C  C100  1  0.33263956  0.83764683  0.92094603  1  -0.006685  0  -0.013295  0.028535  0  4.024734  0
C  C101  1  0.34153312  0.85063328  0.84525344  1  -0.114435  0  -0.01433  0.072071  0  3.966927  0
C  C102  1  0.19355225  0.69545069  0.92216038  1  0.039476  0  -0.078156  -0.138203  0  3.917862  0
C  C103  1  0.23927947  0.74231316  0.92153563  1  0.014782  0  -0.006666  0.089438  0  4.042162  0
C  C104  1  0.29737197  0.80542645  0.84512450  1  0.011456  0  -0.094667  -0.18946  0  3.990191  0
C  C105  1  0.12426534  0.61997674  0.07290187  1  -0.012399  0  -0.088611  -0.136884  0  3.940524  0
C  C106  1  0.16955521  0.66424746  0.07531969  1  0.006347  0  -0.012956  0.029439  0  4.02571  0
C  C107  1  0.16117925  0.65088566  0.15095089  1  -0.164511  0  -0.01384  0.074786  0  3.963246  0
C  C108  1  0.36604836  0.86676675  0.99896795  1  -0.020789  0  -0.018647  -0.024216  0  4.00123  0
C  C109  1  0.27461408  0.77444290  0.99776945  1  -0.016279  0  0.00587  0.012385  0  3.905004  0
C  C110  1  0.13629312  0.63509389  0.99719692  1  -0.070533  0  -0.015741  -0.016476  0  3.98906  0
C  C111  1  0.22798582  0.72708876  0.99852118  1  0.017898  0  0.005454  0.009647  0  3.908087  0
C  C112  1  0.30777554  0.11804097  0.07614694  1  -0.001901  0  -0.081033  -0.140059  0  3.928449  0
C  C113  1  0.26187213  0.16412274  0.07680731  1  -0.026402  0  -0.005901  0.089  0  4.044185  0
C  C114  1  0.20331986  0.15072509  0.15311285  1  0.060034  0  -0.098619  -0.194739  0  3.994926  0
C  C115  1  0.37764039  0.19369607  0.92530148  1  -0.071002  0  -0.084178  -0.13103  0  3.929629  0
C  C116  1  0.33236002  0.24035521  0.92294969  1  -0.004106  0  -0.010418  0.032098  0  4.020581  0
C  C117  1  0.34148434  0.30294090  0.84707940  1  -0.100992  0  -0.016108  0.06973  0  3.972047  0
C  C118  1  0.19211880  0.37988090  0.92343130  1  -0.012684  0  -0.075525  -0.131266  0  3.922383  0
C  C119  1  0.23830066  0.33416734  0.92315645  1  0.002852  0  -0.005611  0.089315  0  4.045779  0
C  C120  1  0.29680725  0.34774061  0.84683391  1  0.019138  0  -0.096309  -0.191213  0  3.995466  0
C  C121  1  0.12425634  0.30693038  0.07422627  1  0.04403  0  -0.08511  -0.132614  0  3.931376  0
C  C122  1  0.16846003  0.25910055  0.07694211  1  -0.003203  0  -0.011492  0.02967  0  4.022545  0
C  C123  1  0.15919477  0.19613170  0.15270323  1  -0.148253  0  -0.015316  0.073982  0  3.961561  0
C  C124  1  0.36532457  0.13300136  0.00100315  1  0.045609  0  -0.018368  -0.023328  0  4.000484  0
C  C125  1  0.27350764  0.22607261  0.99975156  1  0.038037  0  0.007116  0.011361  0  3.906808  0
C  C126  1  0.13582810  0.36657064  0.99824642  1  -0.086076  0  -0.018411  -0.02388  0  3.999127  0
C  C127  1  0.22686658  0.27266367  0.00032091  1  -0.030036  0  0.006809  0.011794  0  3.908004  0
C  C128  1  0.62159851  0.80401242  0.07760590  1  -0.04225  0  -0.082747  -0.14351  0  3.927987  0
C  C129  1  0.66677171  0.75716313  0.07827896  1  0.044024  0  -0.006652  0.090993  0  4.044617  0
C  C130  1  0.65571068  0.69433009  0.15466205  1  -0.004518  0  -0.097051  -0.193312  0  3.995586  0
C  C131  1  0.68908459  0.87928791  0.92673158  1  -0.022011  0  -0.084313  -0.13064  0  3.930146  0
C  C132  1  0.73631988  0.83476312  0.92443012  1  0.025882  0  -0.012787  0.02992  0  4.021381  0
C  C133  1  0.79624409  0.84776358  0.84871965  1  -0.116519  0  -0.013475  0.074238  0  3.966899  0
C  C134  1  0.87654344  0.69470410  0.92570163  1  -0.07792  0  -0.081327  -0.141611  0  3.930938  0
C  C135  1  0.83049938  0.74068725  0.92494648  1  0.001438  0  -0.007971  0.087917  0  4.046798  0
C  C136  1  0.84131191  0.80334462  0.84859151  1  0.003891  0  -0.097667  -0.193089  0  3.999108  0
C  C137  1  0.80668093  0.61717523  0.07640018  1  -0.026303  0  -0.083646  -0.1299  0  3.928712  0
C  C138  1  0.75998562  0.66224901  0.07873684  1  0.004501  0  -0.012714  0.028519  0  4.020446  0
C  C139  1  0.70018916  0.64929883  0.15451653  1  -0.073732  0  -0.013695  0.073513  0  3.967831  0
C  C140  1  0.63252832  0.86429111  0.00249171  1  -0.032097  0  -0.017758  -0.023306  0  4.001163  0
C  C141  1  0.72523916  0.77221652  0.00122254  1  -0.012338  0  0.005646  0.009535  0  3.906265  0
C  C142  1  0.86450719  0.63328970  0.00077532  1  0.034435  0  -0.017289  -0.018128  0  3.990835  0
C  C143  1  0.77143369  0.72510174  0.00193904  1  -0.032518  0  0.005774  0.012751  0  3.905133  0
Br  Br144  1  0.68261219  0.17235687  0.25800020  1  -0.076981  0  0.008916  -0.085132  0  1.337565  0
Br  Br145  1  0.81665244  0.32546329  0.74244131  1  -0.085441  0  0.001517  -0.094131  0  1.336623  0
Br  Br146  1  0.08548012  0.56717942  0.25542808  1  -0.092454  0  -0.000216  -0.097466  0  1.340102  0
Br  Br147  1  0.41772067  0.93374889  0.74082831  1  -0.081927  0  0.00437  -0.091012  0  1.336573  0
Br  Br148  1  0.08231032  0.17446436  0.25707395  1  -0.088578  0  -0.001054  -0.097366  0  1.340316  0
Br  Br149  1  0.41842377  0.32459963  0.74297080  1  -0.080505  0  0.008741  -0.084296  0  1.340936  0
Br  Br150  1  0.68200001  0.56671838  0.25876365  1  -0.076919  0  0.008423  -0.085238  0  1.336811  0
Br  Br151  1  0.81377518  0.92986668  0.74445695  1  -0.080173  0  0.002727  -0.0911  0  1.340037  0
N  N152  1  0.90455927  0.38891875  0.21798466  1  -1.219218  0  -0.335549  -0.307291  0  3.488484  0
N  N153  1  0.78664525  0.26348437  0.47828922  1  -0.548535  0  -0.148933  -0.121705  0  3.317894  0
N  N154  1  0.71778402  0.24736230  0.51657135  1  -0.423227  0  -0.147543  -0.130313  0  3.22052  0
N  N155  1  0.60262511  0.11085301  0.77818093  1  -1.212955  0  -0.341386  -0.426751  0  3.311371  0
N  N156  1  0.09523308  0.60604533  0.78152204  1  -1.22835  0  -0.334382  -0.30362  0  3.485874  0
N  N157  1  0.21342811  0.74206767  0.52162399  1  -0.548866  0  -0.150239  -0.122845  0  3.32408  0
N  N158  1  0.28224699  0.76420674  0.48369867  1  -0.438821  0  -0.146402  -0.128585  0  3.223257  0
N  N159  1  0.39716224  0.88903331  0.22232142  1  -1.222333  0  -0.340256  -0.422952  0  3.30827  0
N  N160  1  0.01269560  0.38479326  0.22020084  1  -1.203997  0  -0.581946  -0.625742  0  3.304695  0
N  N161  1  0.93580793  0.30822375  0.39055462  1  -1.265119  0  -0.584176  -0.578986  0  3.346135  0
N  N162  1  0.49429771  0.11116560  0.77779692  1  -1.278668  0  -0.577388  -0.628197  0  3.297256  0
N  N163  1  0.70989583  0.10817320  0.78092825  1  -1.214831  0  -0.584441  -0.633377  0  3.293819  0
N  N164  1  0.98734756  0.60194209  0.77904196  1  -1.23872  0  -0.583322  -0.633293  0  3.305255  0
N  N165  1  0.06446978  0.69856342  0.60858126  1  -1.22919  0  -0.584145  -0.579668  0  3.341487  0
N  N166  1  0.50560929  0.88834961  0.22249176  1  -1.277963  0  -0.578924  -0.633529  0  3.289335  0
N  N167  1  0.28981292  0.88939458  0.21971381  1  -1.257127  0  -0.58598  -0.635234  0  3.29266  0
O  O168  1  0.45462123  0.97920452  0.93181382  1  -1.194205  0  -0.313587  -0.560065  0  2.376448  0
O  O169  1  0.41360446  0.89032453  0.06702117  1  -1.16094  0  -0.312295  -0.540139  0  2.329975  0
O  O170  1  0.39229853  0.02052087  0.06862901  1  -1.191923  0  -0.315963  -0.566765  0  2.388219  0
O  O171  1  0.47484353  0.10896619  0.93356179  1  -1.163522  0  -0.309328  -0.531954  0  2.319137  0
O  O172  1  0.52448469  0.04150284  0.06817322  1  -1.174746  0  -0.310108  -0.538551  0  2.324128  0
O  O173  1  0.60677332  0.08763773  0.93313602  1  -1.180446  0  -0.314794  -0.560061  0  2.384738  0
O  O174  1  0.58464210  0.95586862  0.93501343  1  -1.169027  0  -0.305931  -0.528212  0  2.325288  0
O  O175  1  0.54410402  0.90943207  0.07013214  1  -1.193822  0  -0.318115  -0.572014  0  2.385224  0
O  O176  1  0.04450398  0.40977152  0.06527757  1  -1.185287  0  -0.31339  -0.55732  0  2.365839  0
O  O177  1  0.09225469  0.46171315  0.92765591  1  -1.164142  0  -0.313611  -0.540091  0  2.313982  0
O  O178  1  0.10697943  0.59502777  0.92732505  1  -1.161828  0  -0.318959  -0.550231  0  2.327933  0
O  O179  1  0.02955228  0.53970787  0.06608891  1  -1.183476  0  -0.318262  -0.549876  0  2.329387  0
O  O180  1  0.97137896  0.60720197  0.93120954  1  -1.174838  0  -0.321523  -0.558177  0  2.330032  0
O  O181  1  0.89417932  0.52350866  0.06994634  1  -1.170024  0  -0.314765  -0.538619  0  2.32917  0
O  O182  1  0.90809372  0.38999324  0.07118554  1  -1.15446  0  -0.307874  -0.527733  0  2.307481  0
O  O183  1  0.95552733  0.47542399  0.93365360  1  -1.198337  0  -0.3164  -0.567052  0  2.377943  0
