# generated using pymatgen
data_MnH4C7O5
_symmetry_space_group_name_H-M   'P 1'
_cell_length_a   9.22104109
_cell_length_b   9.22104848
_cell_length_c   21.03689145
_cell_angle_alpha   90.01709754
_cell_angle_beta   89.98329059
_cell_angle_gamma   119.98567408
_symmetry_Int_Tables_number   1
_chemical_formula_structural   MnH4C7O5
_chemical_formula_sum   'Mn6 H24 C42 O30'
_cell_volume   1549.29853562
_cell_formula_units_Z   6
loop_
 _symmetry_equiv_pos_site_id
 _symmetry_equiv_pos_as_xyz
  1  'x, y, z'
loop_
 _atom_site_type_symbol
 _atom_site_label
 _atom_site_symmetry_multiplicity
 _atom_site_fract_x
 _atom_site_fract_y
 _atom_site_fract_z
 _atom_site_occupancy
 _atom_site_pbe_bader_charge
 _atom_site_pbe_bader_spin_density
 _atom_site_pbe_cm5_charge
 _atom_site_pbe_ddec_charge
 _atom_site_pbe_ddec_spin_density
 _atom_site_pbe_ddec_sum_bond_order
 _atom_site_pbe_magmom
Mn  Mn0  1  0.00559920  0.01659430  0.08327397  1  1.50664  4.545039  0.605347  1.008356  4.668924  2.343111  4.46
Mn  Mn1  1  0.98346490  0.98916186  0.41667560  1  1.507605  4.545141  0.605327  1.008987  4.669397  2.343096  4.461
Mn  Mn2  1  0.01092298  0.99423544  0.75013607  1  1.507065  4.545168  0.605531  1.008884  4.6752  2.342741  4.461
Mn  Mn3  1  0.01659090  0.00557622  0.91673884  1  1.506659  4.545048  0.605323  1.008224  4.668822  2.34337  4.46
Mn  Mn4  1  0.98916997  0.98346365  0.58333066  1  1.507836  4.545093  0.605351  1.008894  4.669423  2.343385  4.461
Mn  Mn5  1  0.99423534  0.01093658  0.24987395  1  1.507019  4.545202  0.605584  1.008813  4.675249  2.342789  4.461
H  H6  1  0.64124692  0.75870550  0.14297279  1  0.630571  0.002277  0.354103  0.389963  0.001181  0.841771  0.001
H  H7  1  0.24080999  0.88254850  0.47628975  1  0.628734  0.002297  0.353963  0.389885  0.001204  0.84173  0.001
H  H8  1  0.11699870  0.35893665  0.80969324  1  0.628748  0.002274  0.353933  0.389597  0.001189  0.841982  0.001
H  H9  1  0.75872843  0.64125452  0.85703498  1  0.63087  0.002275  0.354107  0.389846  0.001179  0.841919  0.001
H  H10  1  0.88256392  0.24081149  0.52371807  1  0.629001  0.002295  0.354007  0.389766  0.001204  0.842026  0.001
H  H11  1  0.35893496  0.11700223  0.19031884  1  0.627794  0.002278  0.354005  0.389749  0.001189  0.841942  0.001
H  H12  1  0.90869061  0.28101537  0.02075261  1  0.62369  0.002511  0.354491  0.389783  0.001316  0.840709  0.001
H  H13  1  0.71912101  0.62743375  0.35428410  1  0.638926  0.002445  0.354252  0.389445  0.001303  0.841719  0.001
H  H14  1  0.37298003  0.09139371  0.68778567  1  0.629759  0.002473  0.354395  0.389737  0.001302  0.840915  0.001
H  H15  1  0.28103473  0.90871731  0.97925531  1  0.624461  0.00251  0.354413  0.389797  0.001317  0.840557  0.001
H  H16  1  0.62744257  0.71912080  0.64572216  1  0.638804  0.002444  0.354224  0.389422  0.001302  0.841902  0.001
H  H17  1  0.09138174  0.37296201  0.31222353  1  0.629821  0.002474  0.354401  0.389693  0.001303  0.840897  0.001
H  H18  1  0.41628872  0.50070305  0.09747686  1  0.066792  0.000743  0.10484  0.127889  3.1e-05  1.005406  0.0
H  H19  1  0.49911138  0.91609177  0.43096876  1  0.066225  0.000745  0.104803  0.127704  3.5e-05  1.00515  0.0
H  H20  1  0.08373835  0.58356682  0.76408316  1  0.071023  0.000736  0.105012  0.128378  2.9e-05  1.005556  0.0
H  H21  1  0.50069652  0.41628591  0.90252875  1  0.066877  0.000743  0.104863  0.127979  3.1e-05  1.005374  0.0
H  H22  1  0.91609655  0.49911586  0.56904046  1  0.066285  0.000745  0.104868  0.127823  3.5e-05  1.005061  0.0
H  H23  1  0.58356820  0.08375361  0.23592920  1  0.071663  0.000736  0.104968  0.128256  2.9e-05  1.005611  0.0
H  H24  1  0.93790520  0.53576836  0.06659841  1  0.070947  0.000757  0.104707  0.127578  4.3e-05  1.007209  0.0
H  H25  1  0.46465025  0.40185745  0.40020970  1  0.057014  0.000761  0.104755  0.127587  4.2e-05  1.007101  0.0
H  H26  1  0.59843089  0.06233667  0.73377084  1  0.113745  0.000722  0.104623  0.127245  3.9e-05  1.007028  0.0
H  H27  1  0.53579312  0.93794716  0.93341137  1  0.070825  0.000757  0.104609  0.127473  4.4e-05  1.007281  0.0
H  H28  1  0.40185726  0.46464253  0.59979393  1  0.056929  0.000761  0.104775  0.127671  4.2e-05  1.007049  0.0
H  H29  1  0.06232426  0.59842234  0.26623581  1  0.113735  0.000722  0.104677  0.127372  3.9e-05  1.006965  0.0
C  C30  1  0.74828700  0.74825404  0.00000778  1  0.673747  0.010727  0.068152  0.13672  0.010005  4.107903  0.009
C  C31  1  0.25136721  0.99974082  0.33327945  1  0.61519  0.01072  0.067712  0.136065  0.009996  4.10874  0.009
C  C32  1  0.99973333  0.25136577  0.66672904  1  0.614969  0.010719  0.067604  0.135948  0.009996  4.108757  0.009
C  C33  1  0.64393052  0.69517733  0.05411880  1  0.376293  0.009926  0.060288  0.196101  0.007041  4.106618  0.006
C  C34  1  0.30453765  0.94884385  0.38745845  1  0.393709  0.009877  0.0595  0.19568  0.007007  4.105732  0.006
C  C35  1  0.05074932  0.35579538  0.72082817  1  0.40009  0.009837  0.060392  0.197258  0.006973  4.103927  0.006
C  C36  1  0.69519763  0.64391299  0.94589029  1  0.376764  0.009928  0.060413  0.196409  0.007044  4.106194  0.006
C  C37  1  0.94882736  0.30453473  0.61255148  1  0.394086  0.009876  0.059699  0.195893  0.007006  4.105963  0.006
C  C38  1  0.35580123  0.05076544  0.27918285  1  0.400276  0.009838  0.060265  0.197194  0.006974  4.103769  0.006
C  C39  1  0.28294699  0.28295310  0.00000233  1  1.537263  0.02584  0.219043  0.601341  0.025643  4.186174  0.022
C  C40  1  0.71703828  0.00004968  0.33349608  1  1.528677  0.02599  0.21938  0.602101  0.02573  4.186894  0.022
C  C41  1  0.00005222  0.71703964  0.66651398  1  1.528993  0.025995  0.219428  0.602298  0.025732  4.186562  0.022
C  C42  1  0.44373193  0.44373671  0.00000067  1  0.12329  0.013488  -0.038379  -0.021788  0.010046  4.075173  0.008
C  C43  1  0.55615211  0.99993148  0.33344099  1  -0.009501  0.013538  -0.038499  -0.023845  0.009978  4.077059  0.008
C  C44  1  0.99991949  0.55614600  0.66657177  1  -0.009179  0.013537  -0.038549  -0.023818  0.009977  4.077359  0.008
C  C45  1  0.49544940  0.54274689  0.05517266  1  -0.022299  0.005113  -0.119855  -0.264146  0.003892  4.049899  0.002
C  C46  1  0.45706817  0.95290172  0.38859309  1  0.042863  0.005062  -0.119246  -0.26267  0.003907  4.049102  0.003
C  C47  1  0.04685808  0.50434378  0.72180268  1  0.062303  0.005071  -0.12034  -0.265092  0.003921  4.050272  0.003
C  C48  1  0.54275194  0.49544057  0.94483218  1  -0.022002  0.005112  -0.119984  -0.264451  0.003892  4.050011  0.002
C  C49  1  0.95289478  0.45706844  0.61141707  1  0.043199  0.005062  -0.119446  -0.26302  0.003908  4.049426  0.003
C  C50  1  0.50434699  0.04687273  0.27821046  1  0.062647  0.005069  -0.12028  -0.264898  0.003921  4.04981  0.003
C  C51  1  0.99996562  0.27718669  0.16650758  1  0.671244  0.01072  0.066895  0.13583  0.010007  4.105959  0.009
C  C52  1  0.72302750  0.72303235  0.50000083  1  0.643941  0.010777  0.066355  0.134777  0.009986  4.107148  0.009
C  C53  1  0.27720049  0.99999547  0.83349335  1  0.671104  0.010726  0.066935  0.135971  0.010011  4.105608  0.009
C  C54  1  0.96095384  0.33629937  0.11093542  1  0.426773  0.009728  0.060881  0.196504  0.006889  4.104785  0.006
C  C55  1  0.66392639  0.62466833  0.44447522  1  0.39674  0.009776  0.060741  0.197184  0.006878  4.105349  0.006
C  C56  1  0.37560314  0.03909209  0.77798170  1  0.400785  0.009722  0.060158  0.195998  0.006847  4.104755  0.006
C  C57  1  0.33630468  0.96097018  0.88906649  1  0.426215  0.009726  0.060952  0.196525  0.006886  4.104778  0.006
C  C58  1  0.62465991  0.66392775  0.55552905  1  0.396775  0.009773  0.060762  0.197332  0.006876  4.105306  0.006
C  C59  1  0.03908053  0.37559056  0.22201982  1  0.400789  0.009722  0.060071  0.195833  0.006847  4.10504  0.006
C  C60  1  0.00008085  0.74276714  0.16635669  1  1.553705  0.025652  0.217866  0.600296  0.025649  4.186073  0.022
C  C61  1  0.25755578  0.25755086  0.49999680  1  1.542194  0.025595  0.21827  0.602601  0.025555  4.182921  0.022
C  C62  1  0.74276884  0.00009263  0.83365341  1  1.553519  0.025658  0.217834  0.600287  0.025657  4.186212  0.022
C  C63  1  0.00010571  0.58193212  0.16641694  1  0.044534  0.013329  -0.037625  -0.020435  0.009815  4.073455  0.008
C  C64  1  0.41839981  0.41840983  0.49999989  1  -0.040011  0.013392  -0.037287  -0.020005  0.009832  4.072986  0.008
C  C65  1  0.58194899  0.00013025  0.83359482  1  0.044531  0.013326  -0.037281  -0.020059  0.009813  4.07337  0.008
C  C66  1  0.96543154  0.48906686  0.10996547  1  -0.020563  0.005212  -0.12046  -0.2658  0.003966  4.050438  0.003
C  C67  1  0.51130242  0.47630697  0.44354357  1  0.054086  0.005112  -0.120687  -0.26625  0.003944  4.050994  0.003
C  C68  1  0.52398219  0.03480228  0.77709818  1  -0.086108  0.005286  -0.120356  -0.265227  0.00398  4.04948  0.003
C  C69  1  0.48907612  0.96546803  0.89004523  1  -0.02029  0.005215  -0.120634  -0.265896  0.003969  4.050673  0.003
C  C70  1  0.47630613  0.51130275  0.55646024  1  0.054001  0.005111  -0.120729  -0.266396  0.003943  4.050994  0.003
C  C71  1  0.03478322  0.52395953  0.22291069  1  -0.086285  0.005283  -0.120235  -0.265087  0.003976  4.049605  0.003
O  O72  1  0.89297563  0.89293633  0.00000705  1  -1.19735  0.137352  -0.342533  -0.546574  0.09741  2.546521  0.059
O  O73  1  0.10661594  0.99972194  0.33321222  1  -1.204343  0.137216  -0.34158  -0.546666  0.097498  2.545227  0.059
O  O74  1  0.99971886  0.10661899  0.66679653  1  -1.20431  0.137173  -0.341481  -0.546539  0.097478  2.545265  0.059
O  O75  1  0.70288647  0.80838657  0.10388599  1  -1.159146  0.032401  -0.330186  -0.452205  0.023525  2.38661  0.014
O  O76  1  0.19129927  0.89481057  0.43721477  1  -1.151991  0.032737  -0.329332  -0.451666  0.02362  2.387757  0.015
O  O77  1  0.10469250  0.29685903  0.77068323  1  -1.16217  0.03255  -0.329786  -0.451688  0.023509  2.385944  0.014
O  O78  1  0.80841250  0.70285320  0.89612859  1  -1.159521  0.032409  -0.330241  -0.452153  0.023523  2.386723  0.014
O  O79  1  0.89480843  0.19129576  0.56279538  1  -1.152363  0.032746  -0.329422  -0.451493  0.023612  2.388147  0.015
O  O80  1  0.29684886  0.10469260  0.22932731  1  -1.16139  0.032556  -0.329819  -0.451835  0.023512  2.385773  0.014
O  O81  1  0.23798709  0.19919272  0.05182201  1  -1.214184  0.083734  -0.325225  -0.586171  0.05755  2.313063  0.039
O  O82  1  0.80066768  0.03879721  0.38535168  1  -1.210708  0.083815  -0.325276  -0.586102  0.057462  2.313041  0.039
O  O83  1  0.96139869  0.76223684  0.71833499  1  -1.208428  0.083875  -0.325685  -0.586458  0.057549  2.31376  0.039
O  O84  1  0.19917230  0.23799069  0.94818478  1  -1.213829  0.083739  -0.325126  -0.586145  0.057552  2.313238  0.039
O  O85  1  0.03880655  0.80067579  0.61466094  1  -1.210439  0.083815  -0.325314  -0.586206  0.057468  2.313077  0.039
O  O86  1  0.76222877  0.96139767  0.28167327  1  -1.208101  0.083866  -0.325672  -0.58637  0.057542  2.313812  0.039
O  O87  1  0.99983506  0.13230880  0.16658837  1  -1.202324  0.136604  -0.342569  -0.547624  0.097056  2.543282  0.058
O  O88  1  0.86780362  0.86780714  0.50000580  1  -1.19496  0.136533  -0.342264  -0.547671  0.097142  2.54449  0.058
O  O89  1  0.13230593  0.99983581  0.83341899  1  -1.202184  0.136584  -0.34257  -0.547699  0.097055  2.543263  0.058
O  O90  1  0.91820158  0.22880980  0.05955753  1  -1.158346  0.03236  -0.329619  -0.45052  0.023492  2.382069  0.014
O  O91  1  0.77134482  0.68920762  0.39308284  1  -1.163118  0.032227  -0.329384  -0.450488  0.023414  2.382695  0.014
O  O92  1  0.31101706  0.08177564  0.72654760  1  -1.157215  0.032251  -0.329435  -0.450628  0.023408  2.38099  0.014
O  O93  1  0.22882463  0.91822502  0.94044843  1  -1.159142  0.03237  -0.329475  -0.450487  0.023496  2.38184  0.014
O  O94  1  0.68921047  0.77133858  0.60692312  1  -1.163074  0.032223  -0.329366  -0.450521  0.023409  2.382928  0.014
O  O95  1  0.08176055  0.31100973  0.27345675  1  -1.157649  0.032264  -0.329408  -0.450502  0.023416  2.381003  0.014
O  O96  1  0.05394776  0.83395138  0.11649444  1  -1.210685  0.083339  -0.324713  -0.586053  0.057142  2.310828  0.039
O  O97  1  0.16650236  0.21974578  0.45008024  1  -1.212423  0.083194  -0.325138  -0.587703  0.057172  2.311036  0.039
O  O98  1  0.78038221  0.94616630  0.78385224  1  -1.206449  0.083126  -0.324717  -0.58668  0.057155  2.313019  0.039
O  O99  1  0.83394520  0.05392779  0.88351873  1  -1.210474  0.083331  -0.324783  -0.586034  0.057144  2.310736  0.039
O  O100  1  0.21973465  0.16649774  0.54991459  1  -1.212602  0.083199  -0.325123  -0.587636  0.057174  2.311098  0.039
O  O101  1  0.94616533  0.78037701  0.21615935  1  -1.206213  0.083075  -0.324739  -0.586542  0.057145  2.312786  0.039
