# generated using pymatgen
data_RbSi2H30C12NO3
_symmetry_space_group_name_H-M   'P 1'
_cell_length_a   10.99600462
_cell_length_b   11.59796182
_cell_length_c   16.30952803
_cell_angle_alpha   92.19340907
_cell_angle_beta   90.00025688
_cell_angle_gamma   89.99966012
_symmetry_Int_Tables_number   1
_chemical_formula_structural   RbSi2H30C12NO3
_chemical_formula_sum   'Rb4 Si8 H120 C48 N4 O12'
_cell_volume   2078.45041723
_cell_formula_units_Z   4
loop_
 _symmetry_equiv_pos_site_id
 _symmetry_equiv_pos_as_xyz
  1  'x, y, z'
loop_
 _atom_site_type_symbol
 _atom_site_label
 _atom_site_symmetry_multiplicity
 _atom_site_fract_x
 _atom_site_fract_y
 _atom_site_fract_z
 _atom_site_occupancy
 _atom_site_pbe_bader_charge
 _atom_site_pbe_bader_spin_density
 _atom_site_pbe_cm5_charge
 _atom_site_pbe_ddec_charge
 _atom_site_pbe_ddec_spin_density
 _atom_site_pbe_ddec_sum_bond_order
 _atom_site_pbe_magmom
Rb  Rb0  1  0.51935602  0.14071837  0.43386684  1  0.865663  0  0.840902  0.864392  0  0.772294  0
Rb  Rb1  1  0.01935612  0.35927837  0.06612974  1  0.865696  0  0.840961  0.86439  0  0.772298  0
Rb  Rb2  1  0.48064014  0.85927609  0.56613053  1  0.865673  0  0.840916  0.864378  0  0.772278  0
Rb  Rb3  1  0.98064367  0.64072464  0.93387162  1  0.865697  0  0.840896  0.864368  0  0.772249  0
Si  Si4  1  0.42761652  0.84243648  0.33473673  1  2.792468  0  0.140448  1.123473  0  4.102824  0
Si  Si5  1  0.92762723  0.65756019  0.16526332  1  2.792827  0  0.140485  1.12342  0  4.102936  0
Si  Si6  1  0.57237418  0.15756395  0.66526393  1  2.792647  0  0.14046  1.123452  0  4.102765  0
Si  Si7  1  0.07237438  0.34243753  0.83474337  1  2.792867  0  0.14047  1.123503  0  4.102799  0
Si  Si8  1  0.22418072  0.96895826  0.42687678  1  2.789178  0  0.138284  1.125973  0  4.088485  0
Si  Si9  1  0.72418707  0.53104207  0.07312462  1  2.789086  0  0.138215  1.125954  0  4.088419  0
Si  Si10  1  0.77581089  0.03104131  0.57312384  1  2.789023  0  0.13822  1.125901  0  4.088534  0
Si  Si11  1  0.27581182  0.46895573  0.92687777  1  2.789119  0  0.138198  1.125897  0  4.088517  0
H  H12  1  0.33594439  0.90876105  0.20315972  1  -0.003265  0  0.077796  0.145391  0  1.055865  0
H  H13  1  0.83596823  0.59122578  0.29683906  1  -0.004832  0  0.077745  0.145332  0  1.056039  0
H  H14  1  0.66404085  0.09123514  0.79683710  1  -0.003032  0  0.077749  0.145335  0  1.055998  0
H  H15  1  0.16404066  0.40876943  0.70316385  1  -0.004945  0  0.077741  0.145343  0  1.056058  0
H  H16  1  0.48047674  0.97412060  0.22084329  1  0.007782  0  0.08109  0.146941  0  1.057725  0
H  H17  1  0.98049996  0.52586297  0.27915029  1  0.007573  0  0.081139  0.146925  0  1.057862  0
H  H18  1  0.51950941  0.02587124  0.77915520  1  0.007745  0  0.081082  0.146898  0  1.057777  0
H  H19  1  0.01951074  0.47413055  0.72085071  1  0.007751  0  0.081098  0.146897  0  1.057823  0
H  H20  1  0.47086540  0.82835977  0.18310648  1  0.021684  0  0.079747  0.153931  0  1.045971  0
H  H21  1  0.97089159  0.67161943  0.31689181  1  0.021905  0  0.079703  0.153874  0  1.045896  0
H  H22  1  0.52912166  0.17163287  0.81689510  1  0.021803  0  0.079711  0.153916  0  1.045968  0
H  H23  1  0.02911729  0.32837051  0.68311520  1  0.021848  0  0.079692  0.15386  0  1.045821  0
H  H24  1  0.40256884  0.63416509  0.29036467  1  0.015497  0  0.079657  0.148876  0  1.057576  0
H  H25  1  0.90256944  0.86582982  0.20964381  1  0.015524  0  0.079588  0.148789  0  1.057576  0
H  H26  1  0.59743277  0.36583524  0.70964089  1  0.015441  0  0.079592  0.148814  0  1.057578  0
H  H27  1  0.09742944  0.13417219  0.79036425  1  0.015454  0  0.079645  0.148845  0  1.057548  0
H  H28  1  0.25771788  0.70060438  0.30343098  1  0.042309  0  0.083308  0.156288  0  1.055704  0
H  H29  1  0.75772609  0.79938699  0.19657754  1  0.04248  0  0.083296  0.15626  0  1.055689  0
H  H30  1  0.74227919  0.29938810  0.69657857  1  0.042397  0  0.083305  0.156299  0  1.055618  0
H  H31  1  0.24227734  0.20060907  0.80342540  1  0.042474  0  0.083293  0.156262  0  1.055711  0
H  H32  1  0.34225718  0.66231168  0.39093090  1  -0.00268  0  0.07997  0.139031  0  1.07617  0
H  H33  1  0.84225820  0.83768443  0.10907683  1  -0.002823  0  0.079969  0.139024  0  1.076247  0
H  H34  1  0.65774352  0.33768344  0.60907630  1  -0.002826  0  0.079964  0.139015  0  1.076239  0
H  H35  1  0.15774887  0.16231676  0.89092876  1  -0.002589  0  0.079969  0.139041  0  1.076149  0
H  H36  1  0.63406896  0.75458590  0.30781746  1  0.023312  0  0.085502  0.160585  0  1.048341  0
H  H37  1  0.13407609  0.74541334  0.19217626  1  0.023389  0  0.08553  0.160653  0  1.048267  0
H  H38  1  0.36592719  0.24542239  0.69217858  1  0.023269  0  0.085549  0.160632  0  1.048396  0
H  H39  1  0.86592825  0.25458100  0.80782662  1  0.023335  0  0.085552  0.160592  0  1.048349  0
H  H40  1  0.60135015  0.75756590  0.41371751  1  0.001321  0  0.07808  0.126539  0  1.097916  0
H  H41  1  0.10134749  0.74243869  0.08627692  1  0.001147  0  0.078075  0.126534  0  1.097959  0
H  H42  1  0.39864782  0.24243811  0.58627714  1  0.001168  0  0.078093  0.12654  0  1.097896  0
H  H43  1  0.89865412  0.25756256  0.91372621  1  0.001089  0  0.078054  0.126518  0  1.097941  0
H  H44  1  0.64915787  0.88519571  0.36696069  1  0.001796  0  0.087771  0.147264  0  1.057148  0
H  H45  1  0.14916360  0.61480526  0.13302885  1  0.001757  0  0.087732  0.147271  0  1.057059  0
H  H46  1  0.35083738  0.11481084  0.63303651  1  0.001821  0  0.087742  0.147286  0  1.057118  0
H  H47  1  0.85083528  0.38518831  0.86696909  1  0.001817  0  0.087756  0.147286  0  1.057103  0
H  H48  1  0.10798666  0.15225948  0.46317250  1  0.005237  0  0.08106  0.158855  0  1.052524  0
H  H49  1  0.60799077  0.34773755  0.03682865  1  0.005274  0  0.081028  0.158816  0  1.052525  0
H  H50  1  0.89200767  0.84774095  0.53682815  1  0.005316  0  0.081035  0.158798  0  1.052523  0
H  H51  1  0.39200538  0.65226209  0.96316830  1  0.005321  0  0.080997  0.15877  0  1.052495  0
H  H52  1  0.24917176  0.15021856  0.51410242  1  -0.002815  0  0.082692  0.145977  0  1.082293  0
H  H53  1  0.74917978  0.34978556  0.98589816  1  -0.002448  0  0.082645  0.145893  0  1.082318  0
H  H54  1  0.75081712  0.84978706  0.48589782  1  -0.002494  0  0.082672  0.14593  0  1.082322  0
H  H55  1  0.25081547  0.65022189  0.01409724  1  -0.002271  0  0.082665  0.145917  0  1.082278  0
H  H56  1  0.24271895  0.18463467  0.40890322  1  0.011358  0  0.076263  0.128232  0  1.122339  0
H  H57  1  0.74271726  0.31536595  0.09109786  1  0.011323  0  0.076297  0.128269  0  1.122361  0
H  H58  1  0.75728084  0.81536400  0.59109921  1  0.011337  0  0.076307  0.128245  0  1.122283  0
H  H59  1  0.25727252  0.68462772  0.90889579  1  0.012452  0  0.076248  0.12824  0  1.1223  0
H  H60  1  0.01769552  0.96053819  0.35979489  1  0.024762  0  0.08188  0.155853  0  1.045991  0
H  H61  1  0.51770408  0.53945645  0.14020076  1  0.024895  0  0.081873  0.155819  0  1.045941  0
H  H62  1  0.98229790  0.03945889  0.64020073  1  0.024874  0  0.081878  0.15585  0  1.045859  0
H  H63  1  0.48229843  0.46053696  0.85980514  1  0.024978  0  0.081847  0.155814  0  1.045917  0
H  H64  1  0.10485657  0.83682435  0.33209706  1  0.039504  0  0.085831  0.15767  0  1.05231  0
H  H65  1  0.60485453  0.66317396  0.16790758  1  0.039515  0  0.085853  0.157689  0  1.05233  0
H  H66  1  0.89514231  0.16317780  0.66790366  1  0.039472  0  0.085823  0.15763  0  1.052338  0
H  H67  1  0.39514344  0.33682023  0.83210265  1  0.03944  0  0.085856  0.157667  0  1.05226  0
H  H68  1  0.13322084  0.96822999  0.28363840  1  -0.018472  0  0.077439  0.141566  0  1.064637  0
H  H69  1  0.63323178  0.53176485  0.21636007  1  -0.018432  0  0.077453  0.141578  0  1.064627  0
H  H70  1  0.86676804  0.03176966  0.71635855  1  -0.018367  0  0.077469  0.141568  0  1.064588  0
H  H71  1  0.36677529  0.46822778  0.78364213  1  -0.018376  0  0.077478  0.141612  0  1.064518  0
H  H72  1  0.06707235  0.91579470  0.53086554  1  0.006546  0  0.084067  0.158528  0  1.06126  0
H  H73  1  0.56708012  0.58420485  0.96913407  1  0.006543  0  0.084037  0.1585  0  1.061427  0
H  H74  1  0.93292198  0.08420143  0.46913433  1  0.006534  0  0.084051  0.15853  0  1.061364  0
H  H75  1  0.43292604  0.41579731  0.03086664  1  0.006563  0  0.084075  0.158548  0  1.061275  0
H  H76  1  0.21274722  0.91988781  0.57638261  1  -0.013097  0  0.078098  0.131154  0  1.099493  0
H  H77  1  0.71275289  0.58012049  0.92361532  1  -0.013119  0  0.078124  0.131138  0  1.099483  0
H  H78  1  0.78724529  0.08012300  0.42361720  1  -0.012979  0  0.078119  0.131117  0  1.099532  0
H  H79  1  0.28725418  0.41988428  0.07638426  1  -0.013108  0  0.078119  0.131143  0  1.099582  0
H  H80  1  0.16980906  0.79938905  0.51237838  1  -0.02378  0  0.082218  0.147875  0  1.042229  0
H  H81  1  0.66981622  0.70060986  0.98762582  1  -0.023722  0  0.082246  0.147868  0  1.042266  0
H  H82  1  0.83018163  0.20060788  0.48762459  1  -0.023724  0  0.082227  0.14787  0  1.042301  0
H  H83  1  0.33019358  0.29938704  0.01237899  1  -0.023788  0  0.082204  0.147869  0  1.042248  0
H  H84  1  0.41680180  0.36682447  0.19686146  1  0.042004  0  0.101436  0.068606  0  1.001748  0
H  H85  1  0.91681724  0.13316935  0.30313070  1  0.042024  0  0.101441  0.068658  0  1.001648  0
H  H86  1  0.58318980  0.63317610  0.80313245  1  0.042017  0  0.101439  0.068657  0  1.00169  0
H  H87  1  0.08317528  0.86682753  0.69687473  1  0.042011  0  0.101477  0.068733  0  1.001817  0
H  H88  1  0.43405458  0.42949417  0.29843070  1  0.046232  0  0.106099  0.074517  0  1.021167  0
H  H89  1  0.93405881  0.07051264  0.20155526  1  0.046155  0  0.106274  0.074792  0  1.02107  0
H  H90  1  0.56593885  0.57050735  0.70155896  1  0.04604  0  0.106275  0.07479  0  1.020978  0
H  H91  1  0.06593461  0.92947995  0.79844878  1  0.046012  0  0.106274  0.074768  0  1.021237  0
H  H92  1  0.20926753  0.43126589  0.31686399  1  0.04031  0  0.099785  0.064959  0  0.981324  0
H  H93  1  0.70927529  0.06874974  0.18312958  1  0.040309  0  0.099794  0.065018  0  0.981275  0
H  H94  1  0.79072680  0.56873370  0.68313541  1  0.040367  0  0.09977  0.064931  0  0.981325  0
H  H95  1  0.29072359  0.93125598  0.81686575  1  0.040229  0  0.099811  0.065002  0  0.981372  0
H  H96  1  0.24638776  0.50279148  0.22501889  1  0.045787  0  0.11352  0.090492  0  0.98866  0
H  H97  1  0.74639798  0.99720636  0.27497145  1  0.045892  0  0.113548  0.090634  0  0.988563  0
H  H98  1  0.75360203  0.49720293  0.77498031  1  0.045972  0  0.113502  0.090496  0  0.988641  0
H  H99  1  0.25358544  0.00279667  0.72502869  1  0.045944  0  0.113473  0.090454  0  0.988503  0
H  H100  1  0.11933710  0.17308724  0.19833083  1  0.063574  0  0.109753  0.078225  0  1.012331  0
H  H101  1  0.61934130  0.32691411  0.30166745  1  0.063586  0  0.109788  0.078239  0  1.01232  0
H  H102  1  0.88066178  0.82690979  0.80166725  1  0.063635  0  0.109768  0.078219  0  1.012315  0
H  H103  1  0.38065576  0.67309349  0.69832059  1  0.063552  0  0.109778  0.078191  0  1.012285  0
H  H104  1  0.13208098  0.23185639  0.30081658  1  0.051822  0  0.104641  0.078698  0  0.979675  0
H  H105  1  0.63208850  0.26814838  0.19917941  1  0.051871  0  0.104631  0.078683  0  0.97968  0
H  H106  1  0.86791881  0.76814238  0.69918094  1  0.052017  0  0.10463  0.07865  0  0.979636  0
H  H107  1  0.36791038  0.73185837  0.80080738  1  0.051409  0  0.104633  0.078673  0  0.979765  0
H  H108  1  0.30628276  0.09966694  0.27439626  1  0.079592  0  0.117454  0.093384  0  1.007468  0
H  H109  1  0.80628599  0.40033854  0.22560397  1  0.079471  0  0.11745  0.093396  0  1.007419  0
H  H110  1  0.69372521  0.90033803  0.72559353  1  0.079753  0  0.117504  0.093434  0  1.007336  0
H  H111  1  0.19372289  0.59966288  0.77439058  1  0.079575  0  0.117513  0.09345  0  1.007472  0
H  H112  1  0.34397319  0.17245427  0.18274990  1  0.040259  0  0.09886  0.062083  0  0.980484  0
H  H113  1  0.84397840  0.32755537  0.31724815  1  0.040263  0  0.098892  0.062134  0  0.980446  0
H  H114  1  0.65602296  0.82755407  0.81724431  1  0.040332  0  0.098885  0.062077  0  0.980243  0
H  H115  1  0.15601139  0.67244776  0.68274708  1  0.040283  0  0.098899  0.062141  0  0.98042  0
H  H116  1  0.57399630  0.53839377  0.39416968  1  0.04877  0  0.10448  0.0744  0  0.990179  0
H  H117  1  0.07399602  0.96160727  0.10583681  1  0.049105  0  0.10445  0.074365  0  0.990091  0
H  H118  1  0.42602532  0.46159726  0.60582633  1  0.047718  0  0.104488  0.074436  0  0.990202  0
H  H119  1  0.92602468  0.03841036  0.89416755  1  0.047535  0  0.104492  0.074414  0  0.99013  0
H  H120  1  0.68851195  0.44539058  0.43414523  1  0.061619  0  0.115881  0.091138  0  0.95863  0
H  H121  1  0.18850306  0.05461539  0.06586202  1  0.06174  0  0.115866  0.091049  0  0.958526  0
H  H122  1  0.31150966  0.55459696  0.56585249  1  0.061919  0  0.11586  0.091135  0  0.958323  0
H  H123  1  0.81151401  0.94541007  0.93413896  1  0.062036  0  0.11586  0.091168  0  0.958349  0
H  H124  1  0.33436464  0.36489651  0.48226300  1  0.079235  0  0.114866  0.089061  0  0.983373  0
H  H125  1  0.83435632  0.13510718  0.01773296  1  0.079145  0  0.114881  0.089013  0  0.983412  0
H  H126  1  0.66565061  0.63509628  0.51773124  1  0.079468  0  0.114917  0.089014  0  0.983423  0
H  H127  1  0.16565256  0.86491646  0.98227285  1  0.079547  0  0.114914  0.08907  0  0.983541  0
H  H128  1  0.36171763  0.49021766  0.42424035  1  0.085405  0  0.101124  0.063829  0  1.028261  0
H  H129  1  0.86170776  0.00977478  0.07574975  1  0.085553  0  0.10108  0.063828  0  1.028308  0
H  H130  1  0.63830217  0.50978116  0.57575473  1  0.085399  0  0.101109  0.063831  0  1.028325  0
H  H131  1  0.13830659  0.99023337  0.92425364  1  0.085457  0  0.101124  0.063838  0  1.028328  0
C  C132  1  0.42891010  0.89326423  0.22525605  1  -0.72804  0  -0.305385  -0.746754  0  3.867746  0
C  C133  1  0.92893278  0.60672127  0.27474113  1  -0.726491  0  -0.305391  -0.746649  0  3.867994  0
C  C134  1  0.57107423  0.10672932  0.77474312  1  -0.728343  0  -0.305319  -0.74668  0  3.867936  0
C  C135  1  0.07107883  0.39327562  0.72526369  1  -0.726417  0  -0.305303  -0.746614  0  3.8678  0
C  C136  1  0.34993511  0.69598018  0.32903321  1  -0.760057  0  -0.304155  -0.746568  0  3.850046  0
C  C137  1  0.84993857  0.80401423  0.17097142  1  -0.760349  0  -0.304084  -0.746408  0  3.850031  0
C  C138  1  0.65006377  0.30401669  0.67097283  1  -0.760056  0  -0.304088  -0.746471  0  3.849939  0
C  C139  1  0.15006304  0.19598615  0.82903168  1  -0.760532  0  -0.304132  -0.746501  0  3.850007  0
C  C140  1  0.59280398  0.80735306  0.35792478  1  -0.733623  0  -0.30335  -0.747854  0  3.856208  0
C  C141  1  0.09280928  0.69264899  0.14206892  1  -0.733613  0  -0.303339  -0.747911  0  3.856158  0
C  C142  1  0.40719127  0.19265262  0.64207239  1  -0.733575  0  -0.303365  -0.747895  0  3.856268  0
C  C143  1  0.90719233  0.30734883  0.85793286  1  -0.733572  0  -0.303353  -0.747854  0  3.856202  0
C  C144  1  0.20426713  0.12870679  0.45522852  1  -0.722897  0  -0.318551  -0.764679  0  3.864342  0
C  C145  1  0.70426842  0.37129488  0.04477371  1  -0.723239  0  -0.318499  -0.764634  0  3.864422  0
C  C146  1  0.79572993  0.87129540  0.54477098  1  -0.723255  0  -0.31854  -0.764594  0  3.864317  0
C  C147  1  0.29572591  0.62870387  0.95522442  1  -0.72457  0  -0.318429  -0.764548  0  3.864239  0
C  C148  1  0.10960621  0.93094274  0.34257116  1  -0.74375  0  -0.30266  -0.743472  0  3.83834  0
C  C149  1  0.60961289  0.56905992  0.15743120  1  -0.743879  0  -0.302703  -0.743454  0  3.838232  0
C  C150  1  0.89038812  0.06906116  0.65742901  1  -0.743867  0  -0.302708  -0.743425  0  3.838144  0
C  C151  1  0.39039054  0.43093783  0.84257426  1  -0.744002  0  -0.302705  -0.743465  0  3.838116  0
C  C152  1  0.16319457  0.89393072  0.52008071  1  -0.678501  0  -0.309651  -0.756624  0  3.870104  0
C  C153  1  0.66319954  0.60607088  0.97991989  1  -0.67846  0  -0.309678  -0.756577  0  3.87022  0
C  C154  1  0.83680067  0.10607227  0.47992127  1  -0.678575  0  -0.309661  -0.756579  0  3.870278  0
C  C155  1  0.33680480  0.39392865  0.02008256  1  -0.678472  0  -0.309665  -0.756621  0  3.870225  0
C  C156  1  0.37692933  0.37297232  0.25907302  1  0.428255  0  -0.07717  -0.029318  0  3.944925  0
C  C157  1  0.87693893  0.12702779  0.24091741  1  0.428289  0  -0.077399  -0.029813  0  3.945273  0
C  C158  1  0.62306228  0.62702393  0.74092073  1  0.428374  0  -0.077318  -0.029693  0  3.944774  0
C  C159  1  0.12304722  0.87297006  0.75908253  1  0.428555  0  -0.077459  -0.03006  0  3.945183  0
C  C160  1  0.24823879  0.41940867  0.25458935  1  0.432154  0  -0.07412  -0.013394  0  3.933056  0
C  C161  1  0.74824598  0.08059204  0.24540623  1  0.431997  0  -0.074162  -0.013642  0  3.933378  0
C  C162  1  0.75175918  0.58058748  0.74540991  1  0.431874  0  -0.074083  -0.013296  0  3.93295  0
C  C163  1  0.25174926  0.91939960  0.75460207  1  0.431871  0  -0.074077  -0.013224  0  3.932899  0
C  C164  1  0.17481813  0.22856075  0.23948085  1  0.397395  0  -0.07839  -0.020171  0  3.929745  0
C  C165  1  0.67482422  0.27144460  0.26051836  1  0.397633  0  -0.078365  -0.020123  0  3.929557  0
C  C166  1  0.82517621  0.77144231  0.76051806  1  0.397346  0  -0.07838  -0.02008  0  3.929662  0
C  C167  1  0.32517012  0.72856634  0.73947533  1  0.397918  0  -0.07846  -0.020165  0  3.929783  0
C  C168  1  0.30386243  0.18314484  0.24482077  1  0.409039  0  -0.07426  -0.023572  0  3.922242  0
C  C169  1  0.80386547  0.31686243  0.25517707  1  0.40898  0  -0.074312  -0.023669  0  3.922185  0
C  C170  1  0.69613645  0.81685658  0.75517379  1  0.408756  0  -0.074293  -0.023505  0  3.921919  0
C  C171  1  0.19613250  0.68313635  0.74481984  1  0.408953  0  -0.074365  -0.023721  0  3.92224  0
C  C172  1  0.59966323  0.48590525  0.44663087  1  0.413978  0  -0.070262  -0.014993  0  3.922836  0
C  C173  1  0.09964997  0.01409691  0.05337474  1  0.413497  0  -0.07015  -0.014749  0  3.922894  0
C  C174  1  0.40036293  0.51408061  0.55336433  1  0.41513  0  -0.070309  -0.015153  0  3.922949  0
C  C175  1  0.90036528  0.98592156  0.94663027  1  0.415313  0  -0.070333  -0.015251  0  3.92307  0
C  C176  1  0.39524195  0.43906260  0.47519643  1  0.35468  0  -0.075605  -0.02129  0  3.922957  0
C  C177  1  0.89523506  0.06093386  0.02479944  1  0.354549  0  -0.07565  -0.0213  0  3.923151  0
C  C178  1  0.60477239  0.56092844  0.52479896  1  0.354896  0  -0.075811  -0.021431  0  3.923287  0
C  C179  1  0.10477838  0.93907854  0.97520718  1  0.354845  0  -0.075943  -0.021728  0  3.923725  0
N  N180  1  0.37097043  0.93730150  0.40583598  1  -2.199698  0  -0.717377  -1.250547  0  3.173092  0
N  N181  1  0.87097581  0.56269718  0.09416519  1  -2.199696  0  -0.717256  -1.250443  0  3.173086  0
N  N182  1  0.62902118  0.06269719  0.59416522  1  -2.199613  0  -0.717279  -1.250485  0  3.173113  0
N  N183  1  0.12902125  0.43729793  0.90584262  1  -2.199768  0  -0.717337  -1.250498  0  3.173246  0
O  O184  1  0.37794926  0.26110289  0.29390437  1  -1.035695  0  -0.26347  -0.259638  0  2.490264  0
O  O185  1  0.87795428  0.23890046  0.20609661  1  -1.035772  0  -0.263463  -0.259535  0  2.490251  0
O  O186  1  0.62204780  0.73889936  0.70609144  1  -1.035772  0  -0.263536  -0.259746  0  2.490246  0
O  O187  1  0.12204733  0.76109300  0.79390746  1  -1.035785  0  -0.263427  -0.259482  0  2.489884  0
O  O188  1  0.17288332  0.34170932  0.20645671  1  -1.054007  0  -0.306038  -0.279577  0  2.519234  0
O  O189  1  0.67289217  0.15828922  0.29353795  1  -1.053932  0  -0.305997  -0.279447  0  2.519181  0
O  O190  1  0.82710919  0.65829120  0.79353965  1  -1.053979  0  -0.306038  -0.279585  0  2.519226  0
O  O191  1  0.32710217  0.84171829  0.70645438  1  -1.053749  0  -0.305959  -0.279464  0  2.519188  0
O  O192  1  0.51365140  0.39349929  0.45477018  1  -1.048454  0  -0.289564  -0.275311  0  2.497813  0
O  O193  1  0.01363841  0.10650072  0.04523693  1  -1.048385  0  -0.289465  -0.275212  0  2.497995  0
O  O194  1  0.48636658  0.60649257  0.54522770  1  -1.04884  0  -0.289386  -0.275087  0  2.498146  0
O  O195  1  0.98637321  0.89351254  0.95476973  1  -1.049047  0  -0.289315  -0.274927  0  2.498139  0
