# generated using pymatgen
data_GdH12C11O8
_symmetry_space_group_name_H-M   'P 1'
_cell_length_a   5.82259843
_cell_length_b   13.31518434
_cell_length_c   15.49900000
_cell_angle_alpha   93.95471629
_cell_angle_beta   90.00000000
_cell_angle_gamma   90.00000000
_symmetry_Int_Tables_number   1
_chemical_formula_structural   GdH12C11O8
_chemical_formula_sum   'Gd4 H48 C44 O32'
_cell_volume   1198.76031127
_cell_formula_units_Z   4
loop_
 _symmetry_equiv_pos_site_id
 _symmetry_equiv_pos_as_xyz
  1  'x, y, z'
loop_
 _atom_site_type_symbol
 _atom_site_label
 _atom_site_symmetry_multiplicity
 _atom_site_fract_x
 _atom_site_fract_y
 _atom_site_fract_z
 _atom_site_occupancy
 _atom_site_hle17_bader_spin_density
 _atom_site_hle17_ddec_charge
 _atom_site_hle17_ddec_spin_density
 _atom_site_hle17_ddec_sum_bond_order
 _atom_site_hle17_magmom
 _atom_site_hse06_10hf_bader_spin_density
 _atom_site_hse06_10hf_ddec_charge
 _atom_site_hse06_10hf_ddec_spin_density
 _atom_site_hse06_10hf_ddec_sum_bond_order
 _atom_site_hse06_10hf_magmom
 _atom_site_hse06_bader_spin_density
 _atom_site_hse06_ddec_charge
 _atom_site_hse06_ddec_spin_density
 _atom_site_hse06_ddec_sum_bond_order
 _atom_site_hse06_magmom
 _atom_site_pbe_bader_charge
 _atom_site_pbe_bader_spin_density
 _atom_site_pbe_cm5_charge
 _atom_site_pbe_ddec_charge
 _atom_site_pbe_ddec_spin_density
 _atom_site_pbe_ddec_sum_bond_order
 _atom_site_pbe_magmom
Gd  Gd0  1  0.56076338  0.36700701  0.41774441  1  0  2.158658  0  1.77047  0  0  2.061326  0  2.134269  0  0  2.118582  0  2.074857  0  2.168008  0  1.468045  2.018224  0  2.179899  0
Gd  Gd1  1  0.06076497  0.13299528  0.08225579  1  0  2.158758  0  1.770329  0  0  2.061383  0  2.134167  0  0  2.118644  0  2.074758  0  2.167978  0  1.468046  2.018243  0  2.179859  0
Gd  Gd2  1  0.43923860  0.63299606  0.58225719  1  0  2.158745  0  1.770406  0  0  2.061415  0  2.134211  0  0  2.118624  0  2.074877  0  2.167975  0  1.468065  2.018247  0  2.179952  0
Gd  Gd3  1  0.93923874  0.86700479  0.91774241  1  0  2.158653  0  1.770481  0  0  2.061335  0  2.134267  0  0  2.118534  0  2.074947  0  2.167985  0  1.468037  2.01816  0  2.180027  0
H  H4  1  0.12434483  0.28235299  0.33307316  1  0  0.449233  0  0.844657  0  0  0.418801  0  0.906384  0  0  0.430221  0  0.889813  0  0.660275  0  0.30565  0.410657  0  0.918179  0
H  H5  1  0.62434325  0.21764930  0.16692833  1  0  0.449193  0  0.844712  0  0  0.418762  0  0.906443  0  0  0.430187  0  0.889863  0  0.660217  0  0.305633  0.410616  0  0.918243  0
H  H6  1  0.87565716  0.71764858  0.66692835  1  0  0.449216  0  0.844683  0  0  0.418792  0  0.906402  0  0  0.430214  0  0.889825  0  0.660216  0  0.305642  0.410647  0  0.9182  0
H  H7  1  0.37565531  0.78235377  0.83307263  1  0  0.449246  0  0.844643  0  0  0.41882  0  0.906359  0  0  0.43024  0  0.889787  0  0.660176  0  0.305669  0.410676  0  0.918154  0
H  H8  1  0.30906648  0.28575119  0.25694829  1  0  0.44632  0  0.844522  0  0  0.419241  0  0.900089  0  0  0.42943  0  0.885333  0  0.64913  0  0.309881  0.412064  0  0.910473  0
H  H9  1  0.80906318  0.21425110  0.24305320  1  0  0.446282  0  0.844573  0  0  0.419196  0  0.90015  0  0  0.429385  0  0.885394  0  0.649173  0  0.309874  0.412019  0  0.910535  0
H  H10  1  0.69093551  0.71425038  0.74305257  1  0  0.446282  0  0.844577  0  0  0.419199  0  0.900151  0  0  0.429387  0  0.885396  0  0.649113  0  0.309875  0.412021  0  0.910536  0
H  H11  1  0.19093537  0.78575198  0.75694776  1  0  0.446307  0  0.844546  0  0  0.41923  0  0.90011  0  0  0.429418  0  0.885355  0  0.649192  0  0.309872  0.412052  0  0.910495  0
H  H12  1  0.09819671  0.31049772  0.50519239  1  0  0.449204  0  0.830731  0  0  0.426521  0  0.882903  0  0  0.435785  0  0.869579  0  0.643388  0  0.320013  0.419979  0  0.892297  0
H  H13  1  0.59819513  0.18950156  0.99480698  1  0  0.449232  0  0.830674  0  0  0.426539  0  0.882875  0  0  0.435804  0  0.86955  0  0.643351  0  0.320009  0.419997  0  0.89227  0
H  H14  1  0.90180356  0.68950535  0.49480921  1  0  0.449232  0  0.830628  0  0  0.426546  0  0.882841  0  0  0.435809  0  0.86952  0  0.643315  0  0.320034  0.420005  0  0.892235  0
H  H15  1  0.40180343  0.81049625  0.00519108  1  0  0.44922  0  0.830687  0  0  0.426542  0  0.882862  0  0  0.435806  0  0.869538  0  0.643329  0  0.320031  0.420001  0  0.892256  0
H  H16  1  0.20136542  0.41099248  0.54127966  1  0  0.436672  0  0.87129  0  0  0.404434  0  0.9381  0  0  0.415031  0  0.922815  0  0.647518  0  0.305334  0.396975  0  0.948826  0
H  H17  1  0.70137415  0.08900981  0.95871925  1  0  0.436703  0  0.871255  0  0  0.40446  0  0.938073  0  0  0.415058  0  0.922787  0  0.647535  0  0.30533  0.397002  0  0.9488  0
H  H18  1  0.79862798  0.58901060  0.45872130  1  0  0.43671  0  0.871261  0  0  0.404462  0  0.938086  0  0  0.41506  0  0.9228  0  0.647566  0  0.305331  0.397002  0  0.948816  0
H  H19  1  0.29863471  0.91099176  0.04127710  1  0  0.436686  0  0.871281  0  0  0.404436  0  0.938107  0  0  0.415039  0  0.922813  0  0.647546  0  0.305325  0.396979  0  0.948832  0
H  H20  1  0.79933213  0.52550464  0.15686964  1  0  0.098274  0  0.976846  0  0  0.106731  0  1.045014  0  0  0.109861  0  1.043147  0  0.106777  0  0.106851  0.104405  0  1.046575  0
H  H21  1  0.29933028  0.97449696  0.34312420  1  0  0.098351  0  0.976822  0  0  0.106788  0  1.044998  0  0  0.10992  0  1.04313  0  0.106821  0  0.106849  0.104461  0  1.046556  0
H  H22  1  0.20067501  0.47449316  0.84312907  1  0  0.09827  0  0.976933  0  0  0.106758  0  1.045057  0  0  0.109889  0  1.043191  0  0.106763  0  0.106865  0.104432  0  1.046616  0
H  H23  1  0.70066312  0.02550537  0.65686510  1  0  0.098263  0  0.97694  0  0  0.10671  0  1.045109  0  0  0.10984  0  1.043244  0  0.106767  0  0.106849  0.104384  0  1.046666  0
H  H24  1  0.48753491  0.69338084  0.28780482  1  0  0.093874  0  0.978651  0  0  0.105141  0  1.038695  0  0  0.107008  0  1.040167  0  0.07927  0  0.101432  0.103622  0  1.038164  0
H  H25  1  0.98754535  0.80662000  0.21219672  1  0  0.093963  0  0.978621  0  0  0.105206  0  1.038683  0  0  0.107073  0  1.040155  0  0.079242  0  0.101449  0.103684  0  1.038157  0
H  H26  1  0.51246021  0.30662298  0.71219618  1  0  0.093856  0  0.978573  0  0  0.105109  0  1.038653  0  0  0.106976  0  1.040124  0  0.079388  0  0.101414  0.103588  0  1.038127  0
H  H27  1  0.01246351  0.19337479  0.78780891  1  0  0.093812  0  0.978634  0  0  0.105073  0  1.038704  0  0  0.106938  0  1.040179  0  0.079437  0  0.101393  0.103554  0  1.038172  0
H  H28  1  0.39266318  0.71618059  0.13531934  1  0  0.092823  0  0.962039  0  0  0.100752  0  1.02748  0  0  0.104119  0  1.025221  0  0.090493  0  0.102204  0.098323  0  1.029117  0
H  H29  1  0.89264614  0.78381197  0.36467913  1  0  0.092804  0  0.962029  0  0  0.100729  0  1.027468  0  0  0.104097  0  1.025208  0  0.090673  0  0.102199  0.098302  0  1.0291  0
H  H30  1  0.60734568  0.28381345  0.86468044  1  0  0.092743  0  0.962069  0  0  0.100707  0  1.027468  0  0  0.104075  0  1.025209  0  0.090498  0  0.102177  0.09828  0  1.029099  0
H  H31  1  0.10733009  0.21618132  0.63532190  1  0  0.092785  0  0.962117  0  0  0.100742  0  1.027519  0  0  0.104109  0  1.02526  0  0.090462  0  0.102192  0.098316  0  1.029146  0
H  H32  1  0.11721743  0.11917284  0.40384148  1  0  0.116334  0  0.919673  0  0  0.133329  0  0.974325  0  0  0.135858  0  0.972862  0  0.045529  0  0.108335  0.131511  0  0.975529  0
H  H33  1  0.61721756  0.38082719  0.09615924  1  0  0.116328  0  0.919693  0  0  0.133299  0  0.974332  0  0  0.135839  0  0.972877  0  0.045567  0  0.108313  0.131482  0  0.975535  0
H  H34  1  0.88277426  0.88082421  0.59615590  1  0  0.116293  0  0.919535  0  0  0.133303  0  0.974192  0  0  0.135852  0  0.972737  0  0.04615  0  0.108312  0.131479  0  0.975392  0
H  H35  1  0.38277412  0.61917062  0.90383754  1  0  0.116402  0  0.919494  0  0  0.133337  0  0.974215  0  0  0.135865  0  0.972771  0  0.046143  0  0.108341  0.13152  0  0.975419  0
H  H36  1  0.91663371  0.03667262  0.35330391  1  0  0.118757  0  0.93348  0  0  0.134083  0  0.993945  0  0  0.135269  0  0.995253  0  0.097868  0  0.10808  0.133234  0  0.993176  0
H  H37  1  0.41663873  0.46332741  0.14669745  1  0  0.118755  0  0.933513  0  0  0.134074  0  0.993959  0  0  0.135271  0  0.995271  0  0.098036  0  0.10805  0.133219  0  0.993201  0
H  H38  1  0.08334939  0.96332368  0.64669729  1  0  0.118717  0  0.933505  0  0  0.134064  0  0.993957  0  0  0.135269  0  0.995277  0  0.097876  0  0.10806  0.133207  0  0.993187  0
H  H39  1  0.58337013  0.53667115  0.85330518  1  0  0.118758  0  0.933543  0  0  0.134098  0  0.993983  0  0  0.135295  0  0.995295  0  0.097832  0  0.108088  0.133248  0  0.993215  0
H  H40  1  0.03806033  0.63678950  0.06897786  1  0  0.110849  0  0.961942  0  0  0.118149  0  1.025875  0  0  0.122194  0  1.023359  0  0.135745  0  0.107754  0.115237  0  1.02781  0
H  H41  1  0.53803642  0.86320232  0.43101475  1  0  0.110925  0  0.961925  0  0  0.118222  0  1.025849  0  0  0.122267  0  1.023334  0  0.135634  0  0.107818  0.115311  0  1.027784  0
H  H42  1  0.96195712  0.36320304  0.93101925  1  0  0.110847  0  0.961989  0  0  0.118166  0  1.025896  0  0  0.122212  0  1.023379  0  0.135538  0  0.10779  0.115255  0  1.02783  0
H  H43  1  0.46193809  0.13679398  0.56898128  1  0  0.110849  0  0.961939  0  0  0.118136  0  1.025896  0  0  0.122181  0  1.023379  0  0.135794  0  0.10775  0.115224  0  1.027831  0
H  H44  1  0.73664706  0.00549404  0.49489033  1  0  0.066233  0  0.94726  0  0  0.085297  0  1.009885  0  0  0.085841  0  1.010537  0  0.042327  0  0.091305  0.084755  0  1.009697  0
H  H45  1  0.23663490  0.49450222  0.00511209  1  0  0.066219  0  0.947225  0  0  0.085279  0  1.00987  0  0  0.085831  0  1.010513  0  0.042374  0  0.091262  0.084731  0  1.009687  0
H  H46  1  0.26335836  0.99450527  0.50511556  1  0  0.066234  0  0.947235  0  0  0.085304  0  1.009864  0  0  0.08584  0  1.010529  0  0.04238  0  0.091297  0.084761  0  1.009674  0
H  H47  1  0.76334820  0.50549784  0.99489256  1  0  0.066191  0  0.947171  0  0  0.08527  0  1.009822  0  0  0.085822  0  1.010462  0  0.042407  0  0.091254  0.084731  0  1.00963  0
H  H48  1  0.91299101  0.09711085  0.54853210  1  0  0.06023  0  0.948728  0  0  0.080447  0  1.009814  0  0  0.080578  0  1.011014  0  0.039577  0  0.088837  0.080271  0  1.009091  0
H  H49  1  0.41298744  0.40288843  0.95147179  1  0  0.060247  0  0.948659  0  0  0.080459  0  1.009777  0  0  0.080591  0  1.010979  0  0.039633  0  0.088864  0.080282  0  1.009056  0
H  H50  1  0.08701785  0.90288996  0.45147066  1  0  0.06025  0  0.94869  0  0  0.08046  0  1.009796  0  0  0.080594  0  1.010991  0  0.039632  0  0.088865  0.080289  0  1.009066  0
H  H51  1  0.58699738  0.59711239  0.04853097  1  0  0.0603  0  0.948649  0  0  0.080476  0  1.00982  0  0  0.080603  0  1.011034  0  0.039571  0  0.08888  0.080329  0  1.009061  0
C  C52  1  0.84814367  0.48608350  0.32083561  1  0  0.648775  0  3.891383  0  0  0.600576  0  4.187654  0  0  0.634735  0  4.179767  0  1.559209  0  0.202584  0.577465  0  4.192163  0
C  C53  1  0.34815556  0.01391955  0.17916205  1  0  0.64878  0  3.891206  0  0  0.600549  0  4.187514  0  0  0.634721  0  4.17962  0  1.559224  0  0.202586  0.577447  0  4.192027  0
C  C54  1  0.15185145  0.51392108  0.67916543  1  0  0.648646  0  3.891217  0  0  0.600488  0  4.187484  0  0  0.634643  0  4.179596  0  1.559198  0  0.202515  0.577381  0  4.191986  0
C  C55  1  0.65186704  0.98607901  0.82083090  1  0  0.648765  0  3.891408  0  0  0.600664  0  4.187541  0  0  0.634821  0  4.179655  0  1.559033  0  0.202572  0.577558  0  4.192039  0
C  C56  1  0.25851688  0.59807524  0.40319476  1  0  0.732576  0  3.824489  0  0  0.67916  0  4.12613  0  0  0.715676  0  4.112776  0  1.600222  0  0.235525  0.654234  0  4.134394  0
C  C57  1  0.75852561  0.90192711  0.09680363  1  0  0.732749  0  3.824518  0  0  0.679274  0  4.126248  0  0  0.715814  0  4.11285  0  1.599722  0  0.235608  0.654345  0  4.134519  0
C  C58  1  0.74147823  0.40192934  0.59680628  1  0  0.732758  0  3.824492  0  0  0.67933  0  4.126136  0  0  0.715867  0  4.112754  0  1.59989  0  0.235636  0.6544  0  4.134411  0
C  C59  1  0.24149699  0.09807145  0.90319447  1  0  0.732655  0  3.824324  0  0  0.679285  0  4.125919  0  0  0.715818  0  4.112545  0  1.600124  0  0.235578  0.654359  0  4.134187  0
C  C60  1  0.77810278  0.17634085  0.39890752  1  0  0.717221  0  3.800203  0  0  0.669259  0  4.103919  0  0  0.70242  0  4.095825  0  1.482649  0  0.210055  0.646817  0  4.108405  0
C  C61  1  0.27810264  0.32365843  0.10109766  1  0  0.717242  0  3.80036  0  0  0.669251  0  4.104053  0  0  0.70243  0  4.095963  0  1.482821  0  0.210127  0.646813  0  4.108531  0
C  C62  1  0.22189578  0.82365771  0.60109639  1  0  0.717129  0  3.800246  0  0  0.66913  0  4.10404  0  0  0.702322  0  4.095945  0  1.482838  0  0.210062  0.646682  0  4.108514  0
C  C63  1  0.72189076  0.67634088  0.89890630  1  0  0.717287  0  3.800244  0  0  0.669253  0  4.10404  0  0  0.702432  0  4.095941  0  1.482647  0  0.210117  0.646814  0  4.108516  0
C  C64  1  0.00116958  0.55065694  0.27136398  1  0  -0.083899  0  3.737014  0  0  -0.070325  0  3.969079  0  0  -0.077741  0  3.990892  0  -0.018387  0  -0.012296  -0.065512  0  3.954627  0
C  C65  1  0.50118174  0.94934692  0.22863450  1  0  -0.083596  0  3.736643  0  0  -0.070037  0  3.968716  0  0  -0.077453  0  3.990527  0  -0.018332  0  -0.012262  -0.065228  0  3.954267  0
C  C66  1  0.99882210  0.44934914  0.72863909  1  0  -0.083608  0  3.736733  0  0  -0.070134  0  3.968911  0  0  -0.07755  0  3.99073  0  -0.018511  0  -0.012251  -0.065324  0  3.954461  0
C  C67  1  0.49882712  0.05065013  0.77136029  1  0  -0.083782  0  3.73688  0  0  -0.070225  0  3.968959  0  0  -0.077641  0  3.990778  0  -0.018355  0  -0.012307  -0.065412  0  3.954505  0
C  C68  1  0.19367470  0.59982328  0.30960261  1  0  -0.047139  0  3.689734  0  0  -0.031663  0  3.920509  0  0  -0.034172  0  3.939234  0  -0.037441  0  0.002921  -0.030001  0  3.907916  0
C  C69  1  0.69368686  0.90017983  0.19039518  1  0  -0.047331  0  3.689688  0  0  -0.031829  0  3.920524  0  0  -0.034337  0  3.939237  0  -0.037008  0  0.002888  -0.030166  0  3.907935  0
C  C70  1  0.80631870  0.40018206  0.69039783  1  0  -0.047288  0  3.689616  0  0  -0.031757  0  3.920411  0  0  -0.034272  0  3.93913  0  -0.037034  0  0.002923  -0.03009  0  3.907819  0
C  C71  1  0.30633231  0.09981798  0.80960288  1  0  -0.047235  0  3.689653  0  0  -0.03186  0  3.920576  0  0  -0.034376  0  3.939299  0  -0.037575  0  0.002923  -0.030198  0  3.907983  0
C  C72  1  0.95012391  0.56361815  0.18442822  1  0  -0.052793  0  3.709712  0  0  -0.078411  0  3.959737  0  0  -0.077794  0  3.979649  0  -0.00916  0  -0.075516  -0.078719  0  3.946602  0
C  C73  1  0.45012893  0.93638495  0.31556893  1  0  -0.053002  0  3.709564  0  0  -0.0786  0  3.959609  0  0  -0.077984  0  3.979521  0  -0.00913  0  -0.075517  -0.078907  0  3.946481  0
C  C74  1  0.04987636  0.43638492  0.81557209  1  0  -0.052923  0  3.709555  0  0  -0.078544  0  3.959609  0  0  -0.077927  0  3.979521  0  -0.008917  0  -0.075534  -0.078852  0  3.946476  0
C  C75  1  0.54986962  0.06361361  0.68442595  1  0  -0.052904  0  3.709616  0  0  -0.078487  0  3.959645  0  0  -0.077872  0  3.97956  0  -0.009056  0  -0.075562  -0.078794  0  3.94651  0
C  C76  1  0.33569548  0.65703796  0.25903558  1  0  -0.084443  0  3.718565  0  0  -0.107172  0  3.965051  0  0  -0.110296  0  3.986762  0  -0.081387  0  -0.082846  -0.105149  0  3.950687  0
C  C77  1  0.83569734  0.84296139  0.24096393  1  0  -0.084508  0  3.718706  0  0  -0.107225  0  3.965178  0  0  -0.110354  0  3.986894  0  -0.081422  0  -0.082862  -0.105201  0  3.950816  0
C  C78  1  0.66430479  0.34296286  0.74096654  1  0  -0.084342  0  3.718529  0  0  -0.107068  0  3.965018  0  0  -0.110192  0  3.986732  0  -0.081527  0  -0.082814  -0.105047  0  3.950656  0
C  C79  1  0.16430122  0.15703341  0.75903718  1  0  -0.084349  0  3.718556  0  0  -0.107038  0  3.965065  0  0  -0.110164  0  3.986784  0  -0.08156  0  -0.082819  -0.105016  0  3.950702  0
C  C80  1  0.28216612  0.66935627  0.17269144  1  0  -0.049039  0  3.737998  0  0  -0.06379  0  3.991789  0  0  -0.063316  0  4.009374  0  -0.048811  0  -0.079603  -0.063811  0  3.979762  0
C  C81  1  0.78216110  0.83063931  0.32730591  1  0  -0.049012  0  3.73797  0  0  -0.063755  0  3.991752  0  0  -0.063285  0  4.009342  0  -0.049019  0  -0.079605  -0.063777  0  3.979724  0
C  C82  1  0.71784274  0.33064079  0.82730787  1  0  -0.049095  0  3.738168  0  0  -0.063882  0  3.99196  0  0  -0.063414  0  4.009552  0  -0.048867  0  -0.079667  -0.063902  0  3.979929  0
C  C83  1  0.21782715  0.16935473  0.67269386  1  0  -0.048995  0  3.738167  0  0  -0.063756  0  3.991924  0  0  -0.063283  0  4.009511  0  -0.048785  0  -0.079609  -0.063775  0  3.979894  0
C  C84  1  0.94097164  0.09074957  0.40975594  1  0  -0.273099  0  3.669163  0  0  -0.308614  0  3.914464  0  0  -0.314279  0  3.922075  0  -0.009688  0  -0.162161  -0.304815  0  3.90921  0
C  C85  1  0.44096979  0.40924971  0.09024666  1  0  -0.273163  0  3.669209  0  0  -0.308553  0  3.914358  0  0  -0.314278  0  3.922046  0  -0.010066  0  -0.1621  -0.304756  0  3.909104  0
C  C86  1  0.05902176  0.90924673  0.59024526  1  0  -0.272936  0  3.668804  0  0  -0.308491  0  3.914185  0  0  -0.31425  0  3.921918  0  -0.010518  0  -0.162112  -0.304668  0  3.908907  0
C  C87  1  0.55902189  0.59074885  0.90975467  1  0  -0.273289  0  3.669043  0  0  -0.308712  0  3.91437  0  0  -0.314426  0  3.922052  0  -0.010422  0  -0.162234  -0.304918  0  3.909129  0
C  C88  1  0.08591182  0.62412715  0.13537581  1  0  -0.071412  0  3.730453  0  0  -0.085779  0  3.985175  0  0  -0.088296  0  4.003606  0  -0.078056  0  -0.083097  -0.084236  0  3.972715  0
C  C89  1  0.58591195  0.87587294  0.36462116  1  0  -0.071461  0  3.730236  0  0  -0.085836  0  3.98497  0  0  -0.088351  0  4.003396  0  -0.07781  0  -0.083169  -0.084294  0  3.972513  0
C  C90  1  0.91408674  0.37586915  0.86462474  1  0  -0.071298  0  3.730225  0  0  -0.085671  0  3.984937  0  0  -0.088186  0  4.003367  0  -0.077763  0  -0.083063  -0.084129  0  3.972482  0
C  C91  1  0.41407630  0.12412787  0.63537579  1  0  -0.07137  0  3.730278  0  0  -0.08576  0  3.985042  0  0  -0.088275  0  4.00347  0  -0.078009  0  -0.083026  -0.084218  0  3.972584  0
C  C92  1  0.90824570  0.03974335  0.49391039  1  0  -0.082916  0  3.69287  0  0  -0.12557  0  3.951205  0  0  -0.125945  0  3.965991  0  -0.051884  0  -0.165721  -0.124977  0  3.940817  0
C  C93  1  0.40823355  0.46025668  0.00609354  1  0  -0.082927  0  3.692728  0  0  -0.125614  0  3.951122  0  0  -0.125989  0  3.965934  0  -0.01991  0  -0.165778  -0.125016  0  3.940739  0
C  C94  1  0.09176144  0.96025671  0.50609361  1  0  -0.083006  0  3.692862  0  0  -0.125678  0  3.951254  0  0  -0.126035  0  3.96608  0  -0.01985  0  -0.165798  -0.125092  0  3.940858  0
C  C95  1  0.59174612  0.53974414  0.99390986  1  0  -0.082859  0  3.692641  0  0  -0.125587  0  3.951149  0  0  -0.125955  0  3.965943  0  -0.051801  0  -0.165693  -0.125009  0  3.940761  0
O  O96  1  0.38687710  0.52866195  0.42933298  1  0  -0.775188  0  2.142761  0  0  -0.728586  0  2.402523  0  0  -0.757381  0  2.392545  0  -1.215088  0  -0.405832  -0.707884  0  2.408849  0
O  O97  1  0.88688582  0.97134116  0.07066223  1  0  -0.775335  0  2.142657  0  0  -0.728682  0  2.402407  0  0  -0.757498  0  2.392441  0  -1.215287  0  -0.405866  -0.707979  0  2.408737  0
O  O98  1  0.61311802  0.47134263  0.57066484  1  0  -0.775312  0  2.142632  0  0  -0.7287  0  2.402402  0  0  -0.757497  0  2.392411  0  -1.215281  0  -0.405898  -0.707994  0  2.408737  0
O  O99  1  0.11312990  0.02866117  0.92933223  1  0  -0.775119  0  2.142613  0  0  -0.728554  0  2.402417  0  0  -0.757317  0  2.392359  0  -1.215037  0  -0.405806  -0.707846  0  2.408745  0
O  O100  1  0.27752043  0.30993461  0.31759338  1  0  -0.911892  0  1.826548  0  0  -0.871881  0  2.017303  0  0  -0.891876  0  1.983913  0  -1.293626  0  -0.650356  -0.857339  0  2.040923  0
O  O101  1  0.77751884  0.19006617  0.18240802  1  0  -0.911838  0  1.826586  0  0  -0.871828  0  2.017349  0  0  -0.89182  0  1.983957  0  -1.293575  0  -0.650349  -0.857284  0  2.040971  0
O  O102  1  0.72248156  0.69006620  0.68240809  1  0  -0.911869  0  1.826597  0  0  -0.87186  0  2.01734  0  0  -0.891847  0  1.983962  0  -1.29351  0  -0.650358  -0.85731  0  2.040965  0
O  O103  1  0.22248314  0.80993690  0.81759229  1  0  -0.911885  0  1.826566  0  0  -0.871887  0  2.017342  0  0  -0.89188  0  1.98397  0  -1.293583  0  -0.650357  -0.857333  0  2.040969  0
O  O104  1  0.87691948  0.48430384  0.40372004  1  0  -0.705449  0  2.045567  0  0  -0.649452  0  2.278767  0  0  -0.675145  0  2.268936  0  -1.206047  0  -0.367487  -0.631337  0  2.285152  0
O  O105  1  0.37693309  0.01569995  0.09627767  1  0  -0.705604  0  2.04564  0  0  -0.649529  0  2.278776  0  0  -0.675266  0  2.268976  0  -1.206111  0  -0.367491  -0.631372  0  2.285051  0
O  O106  1  0.12307564  0.51569998  0.59628096  1  0  -0.705446  0  2.045543  0  0  -0.64946  0  2.278728  0  0  -0.675134  0  2.268885  0  -1.206012  0  -0.367456  -0.631329  0  2.285093  0
O  O107  1  0.62308951  0.98430162  0.90371545  1  0  -0.705404  0  2.045642  0  0  -0.649444  0  2.278812  0  0  -0.675128  0  2.268972  0  -1.205674  0  -0.367432  -0.631338  0  2.285215  0
O  O108  1  0.58053806  0.18104594  0.43186905  1  0  -0.644431  0  1.94238  0  0  -0.60298  0  2.177614  0  0  -0.627937  0  2.169639  0  -1.180472  0  -0.344596  -0.585448  0  2.182545  0
O  O109  1  0.08053793  0.31895409  0.06813488  1  0  -0.64451  0  1.942414  0  0  -0.603054  0  2.177655  0  0  -0.628011  0  2.169677  0  -1.180428  0  -0.344705  -0.585521  0  2.182586  0
O  O110  1  0.41946393  0.81895412  0.56813301  1  0  -0.644468  0  1.942348  0  0  -0.602974  0  2.177576  0  0  -0.627924  0  2.169589  0  -1.180446  0  -0.344644  -0.585436  0  2.182509  0
O  O111  1  0.91945547  0.68104447  0.93186710  1  0  -0.644494  0  1.942427  0  0  -0.603001  0  2.177682  0  0  -0.627946  0  2.169691  0  -1.180353  0  -0.344642  -0.585463  0  2.182612  0
O  O112  1  0.69072941  0.43361230  0.28329671  1  0  -0.651933  0  1.958284  0  0  -0.61166  0  2.197337  0  0  -0.63646  0  2.189824  0  -1.168124  0  -0.362124  -0.594285  0  2.202137  0
O  O113  1  0.19073958  0.06638923  0.21670344  1  0  -0.651946  0  1.958167  0  0  -0.61166  0  2.197226  0  0  -0.636453  0  2.189704  0  -1.168151  0  -0.362123  -0.594288  0  2.202026  0
O  O114  1  0.30926742  0.56639077  0.71670618  1  0  -0.651922  0  1.958138  0  0  -0.611656  0  2.197173  0  0  -0.636449  0  2.189663  0  -1.168175  0  -0.362118  -0.594275  0  2.201973  0
O  O115  1  0.80927786  0.93360857  0.78329204  1  0  -0.651986  0  1.958246  0  0  -0.61174  0  2.197244  0  0  -0.636535  0  2.189734  0  -1.168399  0  -0.362176  -0.594358  0  2.202042  0
O  O116  1  0.84858162  0.25122786  0.35465050  1  0  -0.771164  0  2.043284  0  0  -0.706076  0  2.267384  0  0  -0.733779  0  2.256624  0  -1.208493  0  -0.381719  -0.686465  0  2.274345  0
O  O117  1  0.34858148  0.24877067  0.14535206  1  0  -0.771022  0  2.043317  0  0  -0.705982  0  2.267472  0  0  -0.733686  0  2.256709  0  -1.208595  0  -0.381699  -0.686365  0  2.27442  0
O  O118  1  0.15141522  0.74877070  0.64535213  1  0  -0.771058  0  2.043369  0  0  -0.706024  0  2.267553  0  0  -0.733725  0  2.256788  0  -1.208606  0  -0.381712  -0.686403  0  2.274507  0
O  O119  1  0.65141363  0.75122789  0.85464992  1  0  -0.771108  0  2.043372  0  0  -0.706011  0  2.267503  0  0  -0.733708  0  2.256742  0  -1.208537  0  -0.381714  -0.686388  0  2.274456  0
O  O120  1  0.24665620  0.34509333  0.51062758  1  0  -0.895015  0  1.857364  0  0  -0.852805  0  2.046854  0  0  -0.873764  0  2.018001  0  -1.266893  0  -0.647871  -0.837651  0  2.067084  0
O  O121  1  0.74665805  0.15490821  0.98937193  1  0  -0.895093  0  1.857298  0  0  -0.852878  0  2.046824  0  0  -0.873838  0  2.017965  0  -1.266875  0  -0.647886  -0.837721  0  2.067057  0
O  O122  1  0.75334407  0.65490975  0.48937338  1  0  -0.895093  0  1.857282  0  0  -0.852877  0  2.046817  0  0  -0.873826  0  2.017962  0  -1.266893  0  -0.6479  -0.837713  0  2.067054  0
O  O123  1  0.25334394  0.84509185  0.01062691  1  0  -0.895046  0  1.857333  0  0  -0.852849  0  2.046865  0  0  -0.873798  0  2.018003  0  -1.266864  0  -0.647897  -0.837689  0  2.067096  0
O  O124  1  0.20513007  0.67296676  0.45485387  1  0  -0.696237  0  1.998485  0  0  -0.648421  0  2.23642  0  0  -0.674359  0  2.226264  0  -1.190409  0  -0.353515  -0.630077  0  2.242969  0
O  O125  1  0.70513364  0.82703634  0.04514908  1  0  -0.696205  0  1.998744  0  0  -0.648421  0  2.236747  0  0  -0.674362  0  2.226578  0  -1.190333  0  -0.35355  -0.630078  0  2.2433  0
O  O126  1  0.79486505  0.32703781  0.54515040  1  0  -0.696263  0  1.998643  0  0  -0.648507  0  2.236667  0  0  -0.674456  0  2.226502  0  -1.190467  0  -0.353592  -0.630169  0  2.243217  0
O  O127  1  0.29488553  0.17296448  0.95485174  1  0  -0.696315  0  1.998367  0  0  -0.648493  0  2.236284  0  0  -0.674441  0  2.226114  0  -1.190371  0  -0.353553  -0.630157  0  2.242836  0
