# generated using pymatgen
data_NaCoH18C24N5O4
_symmetry_space_group_name_H-M   'P 1'
_cell_length_a   8.49775808
_cell_length_b   11.60812314
_cell_length_c   11.78806152
_cell_angle_alpha   72.57206515
_cell_angle_beta   77.83183032
_cell_angle_gamma   90.60650452
_symmetry_Int_Tables_number   1
_chemical_formula_structural   NaCoH18C24N5O4
_chemical_formula_sum   'Na2 Co2 H36 C48 N10 O8'
_cell_volume   1081.11234427
_cell_formula_units_Z   2
loop_
 _symmetry_equiv_pos_site_id
 _symmetry_equiv_pos_as_xyz
  1  'x, y, z'
loop_
 _atom_site_type_symbol
 _atom_site_label
 _atom_site_symmetry_multiplicity
 _atom_site_fract_x
 _atom_site_fract_y
 _atom_site_fract_z
 _atom_site_occupancy
 _atom_site_hle17_ddec_charge
 _atom_site_hle17_ddec_spin_density
 _atom_site_hle17_ddec_sum_bond_order
 _atom_site_hle17_magmom
 _atom_site_hse06_10hf_ddec_charge
 _atom_site_hse06_10hf_ddec_spin_density
 _atom_site_hse06_10hf_ddec_sum_bond_order
 _atom_site_hse06_10hf_magmom
 _atom_site_hse06_ddec_charge
 _atom_site_hse06_ddec_spin_density
 _atom_site_hse06_ddec_sum_bond_order
 _atom_site_hse06_magmom
 _atom_site_pbe_cm5_charge
 _atom_site_pbe_ddec_charge
 _atom_site_pbe_ddec_spin_density
 _atom_site_pbe_ddec_sum_bond_order
 _atom_site_pbe_magmom
Na  Na0  1  0.58755754  0.11788488  0.07251839  1  0.898243  -5.3e-05  0.404238  0.0  0.834056  -5.8e-05  0.587419  0.0  0.84718  -7.1e-05  0.564442  0.0  0.72548  0.824625  -2.4e-05  0.603585  0.0
Na  Na1  1  0.41243632  0.88211040  0.92748469  1  0.898249  5.3e-05  0.40421  0.0  0.834026  5.9e-05  0.587424  0.0  0.847149  7.1e-05  0.564451  0.0  0.725456  0.824589  2.3e-05  0.603592  0.0
Co  Co2  1  0.28280505  0.28022719  0.16749782  1  0.686522  1.307722  2.606877  1.056  0.674977  1.123888  3.051439  0.972  0.72928  1.110282  2.985834  0.976  0.691228  0.638313  1.103445  3.095674  0.94
Co  Co3  1  0.71719633  0.71977086  0.83250493  1  0.686301  -1.307701  2.606894  -1.056  0.674942  -1.123886  3.051426  -0.972  0.729245  -1.110279  2.985829  -0.976  0.691162  0.638254  -1.103448  3.095666  -0.94
H  H4  1  0.88246269  0.30339042  0.72335797  1  0.07072  -1.7e-05  0.975836  0.0  0.086933  -2.2e-05  1.045671  0.0  0.086012  -1.6e-05  1.047551  0.0  0.090309  0.087675  -4.4e-05  1.044276  0.0
H  H5  1  0.11753889  0.69661122  0.27663604  1  0.070742  2.2e-05  0.975767  0.0  0.086921  2.2e-05  1.045636  0.0  0.086  1.6e-05  1.047514  0.0  0.090343  0.087665  4.5e-05  1.044243  0.0
H  H6  1  0.72653941  0.23480202  0.67610820  1  0.067667  3e-06  0.97515  0.0  0.083189  -1.4e-05  1.048038  0.0  0.082769  -5e-06  1.048718  0.0  0.090695  0.083509  -4.5e-05  1.047521  0.0
H  H7  1  0.27345830  0.76518244  0.32390005  1  0.067617  -1e-06  0.9752  0.0  0.08316  1.4e-05  1.048041  0.0  0.082731  5e-06  1.048726  0.0  0.09066  0.083481  4.5e-05  1.04753  0.0
H  H8  1  0.81687094  0.14519877  0.79412266  1  0.102987  1.6e-05  0.943828  0.0  0.119759  1.6e-05  1.005123  0.0  0.120661  1.4e-05  1.004759  0.0  0.108401  0.118937  1.8e-05  1.005506  0.0
H  H9  1  0.18314405  0.85480213  0.20588385  1  0.102977  -1.8e-05  0.943866  0.0  0.11974  -1.6e-05  1.005162  0.0  0.120624  -1.4e-05  1.004815  0.0  0.108382  0.118922  -1.8e-05  1.005547  0.0
H  H10  1  0.21545641  0.59681835  0.97085599  1  0.084282  -0.000567  0.96261  0.0  0.093042  -0.000748  1.029328  -0.001  0.094113  -0.000577  1.024915  -0.001  0.120566  0.091986  -0.000825  1.032777  -0.001
H  H11  1  0.78453727  0.40317686  0.02913526  1  0.084269  0.000571  0.962624  0.0  0.093046  0.000748  1.029341  0.001  0.09412  0.000577  1.024921  0.001  0.120521  0.092012  0.000825  1.032755  0.001
H  H12  1  0.03349493  0.18900867  0.49678072  1  0.067365  -0.000336  0.941318  0.0  0.082832  -0.000701  0.998506  -0.001  0.083522  -0.000544  0.994241  -0.001  0.11521  0.082221  -0.000755  1.001697  -0.001
H  H13  1  0.96649194  0.81099015  0.50321562  1  0.067294  0.00034  0.941323  0.0  0.082782  0.000701  0.998508  0.001  0.083482  0.000544  0.994212  0.001  0.115186  0.082168  0.000755  1.001702  0.001
H  H14  1  0.08912806  0.00854392  0.62747667  1  0.089273  0.000289  0.949642  0.001  0.100407  2.3e-05  1.010096  0.0  0.103189  2.3e-05  1.0089  0.0  0.097686  0.098348  2.6e-05  1.011073  0.0
H  H15  1  0.91086357  0.99145403  0.37252087  1  0.089312  -0.000281  0.949741  -0.001  0.100456  -2.3e-05  1.010182  0.0  0.103244  -2.3e-05  1.008971  0.0  0.097712  0.098395  -2.6e-05  1.011163  0.0
H  H16  1  0.58851030  0.63759598  0.60898409  1  0.081651  0.000387  0.962378  0.0  0.096098  0.000181  1.019981  0.0  0.098204  0.000149  1.020188  0.0  0.093812  0.094688  0.000196  1.019737  0.0
H  H17  1  0.41149688  0.36240029  0.39101571  1  0.081642  -0.00039  0.962325  0.0  0.096093  -0.000181  1.019925  0.0  0.098207  -0.000149  1.020135  0.0  0.093823  0.094682  -0.000196  1.019684  0.0
H  H18  1  0.24487292  0.82802252  0.67163721  1  0.097716  -0.000122  0.974071  0.0  0.106769  -2e-06  1.038107  0.0  0.109713  2e-06  1.037871  0.0  0.097134  0.104559  -1.3e-05  1.038579  0.0
H  H19  1  0.75512773  0.17198007  0.32836768  1  0.097847  0.000124  0.973978  0.0  0.106856  2e-06  1.038057  0.0  0.1098  -2e-06  1.037822  0.0  0.097152  0.104642  1.3e-05  1.038533  0.0
H  H20  1  0.88559749  0.32031619  0.48473784  1  0.088426  3.9e-05  0.986267  0.0  0.099374  -1.7e-05  1.05052  0.0  0.102136  -9e-06  1.048855  0.0  0.09759  0.097295  -3.1e-05  1.051944  0.0
H  H21  1  0.11442261  0.67970015  0.51526663  1  0.088399  -4e-05  0.986301  0.0  0.099387  1.7e-05  1.050499  0.0  0.102144  9e-06  1.048832  0.0  0.097612  0.097311  3.1e-05  1.051904  0.0
H  H22  1  0.72402793  0.44565244  0.63820028  1  0.094756  9.2e-05  0.980514  0.0  0.106966  4.6e-05  1.044236  0.0  0.109038  4.5e-05  1.043132  0.0  0.097909  0.105696  6e-05  1.044794  0.0
H  H23  1  0.27598656  0.55434391  0.36180258  1  0.094703  -9e-05  0.980536  0.0  0.106916  -4.6e-05  1.04424  0.0  0.108988  -4.5e-05  1.043136  0.0  0.097896  0.105651  -6e-05  1.044801  0.0
H  H24  1  0.79512145  0.65371629  0.23333956  1  0.086609  -1.9e-05  0.959627  0.0  0.100293  -2.6e-05  1.016259  0.0  0.102603  -1.8e-05  1.015909  0.0  0.099979  0.098391  -3e-05  1.016996  0.0
H  H25  1  0.20489566  0.34629546  0.76665743  1  0.08661  2.1e-05  0.959712  0.0  0.100314  2.6e-05  1.016316  0.0  0.102601  1.8e-05  1.015991  0.0  0.099989  0.098401  3e-05  1.017061  0.0
H  H26  1  0.71202636  0.85082297  0.20672861  1  0.09937  -1.3e-05  0.947741  0.0  0.115369  1e-05  1.011462  0.0  0.116459  8e-06  1.010762  0.0  0.10745  0.114387  1.1e-05  1.012162  0.0
H  H27  1  0.28794984  0.14916491  0.79327187  1  0.099438  3e-06  0.947677  0.0  0.115451  -9e-06  1.011341  0.0  0.116543  -8e-06  1.010645  0.0  0.10747  0.114469  -1.1e-05  1.012041  0.0
H  H28  1  0.55199853  0.75612954  0.32314728  1  0.071938  2.5e-05  0.955536  0.0  0.087518  3e-06  1.026694  0.0  0.087549  -1e-06  1.026823  0.0  0.092346  0.087423  9e-06  1.026645  0.0
H  H29  1  0.44797949  0.24386382  0.67685805  1  0.072009  -3.1e-05  0.955501  0.0  0.087628  -3e-06  1.026618  0.0  0.087663  1e-06  1.026746  0.0  0.092393  0.087526  -9e-06  1.026573  0.0
H  H30  1  0.69871566  0.83970747  0.36442575  1  0.073711  0.000131  0.966035  0.0  0.089941  7.3e-05  1.036269  0.0  0.089465  4.9e-05  1.036711  0.0  0.092932  0.090238  8.6e-05  1.035976  0.0
H  H31  1  0.30127542  0.16028504  0.63557096  1  0.073738  -0.000141  0.966094  0.0  0.089959  -7.3e-05  1.036313  0.0  0.089485  -4.9e-05  1.036755  0.0  0.092908  0.090253  -8.6e-05  1.036019  0.0
H  H32  1  0.45523179  0.79141673  0.50733111  1  0.095518  0.000178  0.971684  0.0  0.108021  -1.6e-05  1.034687  0.0  0.110357  -1e-06  1.033251  0.0  0.098956  0.106367  -1.6e-05  1.035723  0.0
H  H33  1  0.54476770  0.20858676  0.49267200  1  0.095511  -0.000175  0.971655  0.0  0.108053  1.6e-05  1.034629  0.0  0.110387  1e-06  1.033198  0.0  0.098963  0.106399  1.6e-05  1.03566  0.0
H  H34  1  0.73240739  0.50225196  0.44035000  1  0.083896  -3.9e-05  0.960896  0.0  0.098881  2.1e-05  1.01566  0.0  0.101395  1.6e-05  1.014721  0.0  0.096766  0.096914  3.1e-05  1.016645  0.0
H  H35  1  0.26762057  0.49777078  0.55965384  1  0.083892  3.7e-05  0.961068  0.0  0.098838  -2.1e-05  1.015879  0.0  0.101352  -1.6e-05  1.014945  0.0  0.096717  0.096866  -3.1e-05  1.016865  0.0
H  H36  1  0.37527369  0.66526226  0.77800688  1  0.106076  0.000262  0.950227  0.0  0.117445  1.6e-05  1.013143  0.0  0.120369  1.5e-05  1.010867  0.0  0.108426  0.115408  1.5e-05  1.014582  0.0
H  H37  1  0.62472376  0.33473392  0.22198857  1  0.106023  -0.000262  0.950272  0.0  0.117403  -1.6e-05  1.013178  0.0  0.120327  -1.5e-05  1.010902  0.0  0.10838  0.115367  -1.5e-05  1.014614  0.0
H  H38  1  0.01404485  0.62618319  0.07152812  1  0.105031  3.1e-05  0.979127  0.0  0.114244  7e-06  1.041208  0.0  0.117207  1.3e-05  1.039746  0.0  0.105448  0.111905  -6e-06  1.04264  0.0
H  H39  1  0.98596035  0.37381847  0.92846530  1  0.105001  -2.6e-05  0.979211  0.0  0.114192  -7e-06  1.041315  0.0  0.117151  -1.3e-05  1.03986  0.0  0.105453  0.111855  6e-06  1.042759  0.0
C  C40  1  0.77892163  0.23523500  0.75382162  1  -0.075768  3.9e-05  3.638176  0.0  -0.17028  -2e-06  3.897242  0.0  -0.163598  9e-06  3.902209  0.0  -0.141771  -0.174575  -2.3e-05  3.893513  0.0
C  C41  1  0.22108311  0.76476037  0.24618223  1  -0.075689  -5.1e-05  3.638159  0.0  -0.170187  2e-06  3.897186  0.0  -0.16348  -1e-05  3.902168  0.0  -0.141741  -0.174486  2.3e-05  3.893464  0.0
C  C42  1  0.26328652  0.50758974  0.99418820  1  0.155636  -0.026017  3.63217  -0.03  0.117517  -0.008005  3.895073  -0.009  0.143195  -0.005647  3.898939  -0.007  0.068363  0.100359  -0.008917  3.892625  -0.01
C  C43  1  0.73671208  0.49240555  0.00580903  1  0.155819  0.026013  3.632076  0.03  0.117652  0.008007  3.89502  0.009  0.143348  0.005648  3.898876  0.007  0.068393  0.100484  0.00892  3.892569  0.01
C  C44  1  0.34004341  0.06305386  0.34316301  1  0.254995  -0.010698  3.814204  -0.013  0.243316  -0.003611  4.070484  -0.004  0.263696  -0.002594  4.084234  -0.003  0.093809  0.229538  -0.003944  4.061321  -0.005
C  C45  1  0.65994951  0.93694413  0.65683941  1  0.254985  0.010689  3.814265  0.013  0.243348  0.003608  4.070426  0.004  0.263724  0.002591  4.084185  0.003  0.093771  0.229568  0.003943  4.061256  0.005
C  C46  1  0.46810222  0.37811603  0.92176657  1  0.246348  -0.009237  3.825177  -0.011  0.233084  -0.003874  4.085003  -0.004  0.252458  -0.002591  4.099916  -0.003  0.093238  0.220155  -0.004803  4.0745  -0.005
C  C47  1  0.53190251  0.62187933  0.07823644  1  0.246307  0.009228  3.825321  0.011  0.233076  0.003872  4.085133  0.004  0.252432  0.002588  4.10008  0.003  0.093214  0.220162  0.004804  4.074605  0.005
C  C48  1  0.12349781  0.18366283  0.41750994  1  0.140007  -0.031058  3.685456  -0.035  0.103666  -0.009794  3.946933  -0.011  0.128971  -0.006853  3.950743  -0.008  0.061338  0.086786  -0.011053  3.944402  -0.012
C  C49  1  0.87649912  0.81633971  0.58248878  1  0.140144  0.031043  3.685445  0.035  0.103759  0.009791  3.94694  0.011  0.129075  0.006851  3.950759  0.008  0.061345  0.086875  0.01105  3.944414  0.012
C  C50  1  0.07546255  0.45656423  0.18574440  1  0.137117  -0.001593  3.776755  -0.002  0.136763  -0.00091  4.023302  -0.001  0.14122  -0.000891  4.045592  -0.001  0.088674  0.133657  -0.0007  4.008568  -0.001
C  C51  1  0.92453517  0.54343467  0.81425104  1  0.137165  0.001611  3.776792  0.002  0.136888  0.000909  4.023221  0.001  0.14134  0.000892  4.045533  0.001  0.088807  0.13378  0.000701  4.008486  0.001
C  C52  1  0.03911843  0.36941797  0.30266009  1  0.136354  -0.000712  3.781835  -0.001  0.134287  -0.000516  4.026477  0.0  0.138161  -0.000566  4.049116  0.0  0.085739  0.131552  -0.00024  4.01144  0.0
C  C53  1  0.96088696  0.63058463  0.69733980  1  0.136509  0.000702  3.781733  0.001  0.13447  0.000517  4.026256  0.0  0.138355  0.000567  4.048897  0.0  0.085667  0.131733  0.000238  4.011218  0.0
C  C54  1  0.18399284  0.99393313  0.55602056  1  -0.11266  -0.009189  3.804075  -0.011  -0.138809  -0.001882  4.069753  -0.002  -0.136494  -0.001597  4.091617  -0.002  -0.104415  -0.139946  -0.001986  4.054994  -0.002
C  C55  1  0.81600440  0.00607302  0.44397533  1  -0.112835  0.009146  3.804284  0.011  -0.139015  0.001883  4.069949  0.002  -0.136701  0.001598  4.091818  0.002  -0.1045  -0.140158  0.001985  4.055197  0.002
C  C56  1  0.55309629  0.56568785  0.69573914  1  -0.094988  -0.006151  3.846565  -0.006  -0.117298  -0.007795  4.124889  -0.008  -0.124538  -0.006338  4.147486  -0.006  -0.11324  -0.111806  -0.010193  4.108637  -0.01
C  C57  1  0.44691456  0.43430847  0.30426346  1  -0.094875  0.006136  3.846259  0.006  -0.117182  0.007796  4.124576  0.008  -0.124433  0.006336  4.14718  0.006  -0.113118  -0.111688  0.010195  4.108323  0.01
C  C58  1  0.26898518  0.89244950  0.58025932  1  -0.079515  0.00635  3.813152  0.008  -0.100546  0.00114  4.082979  0.001  -0.106247  0.001082  4.10584  0.001  -0.111015  -0.097114  0.001138  4.067899  0.001
C  C59  1  0.73100569  0.10755210  0.41974404  1  -0.079623  -0.006343  3.813323  -0.008  -0.100622  -0.001141  4.083165  -0.001  -0.106323  -0.001084  4.106024  -0.001  -0.111039  -0.097192  -0.001138  4.068082  -0.001
C  C60  1  0.91650037  0.38709297  0.39461757  1  -0.147763  -0.000626  3.760627  -0.001  -0.165439  -0.000596  4.008306  0.0  -0.168703  -0.000189  4.029701  0.0  -0.097644  -0.163461  -0.00095  3.994418  -0.001
C  C61  1  0.08351420  0.61291696  0.60538291  1  -0.147886  0.000627  3.760534  0.001  -0.165575  0.000596  4.008143  0.0  -0.168834  0.000189  4.029537  0.0  -0.09764  -0.1636  0.000952  3.994265  0.001
C  C62  1  0.62928600  0.45614205  0.71167434  1  -0.18544  -0.003763  3.8071  -0.004  -0.211386  -0.000692  4.069469  0.0  -0.210227  -0.000137  4.089267  0.0  -0.115931  -0.211989  -0.000793  4.055346  0.0
C  C63  1  0.37072361  0.54385425  0.28832592  1  -0.185379  0.003767  3.806911  0.004  -0.211324  0.000692  4.069324  0.0  -0.210161  0.000139  4.089125  0.0  -0.115994  -0.211935  0.000795  4.055208  0.0
C  C64  1  0.21618010  0.08096932  0.43772418  1  -0.107719  0.006058  3.860816  0.01  -0.09507  0.000612  4.109788  0.002  -0.111176  0.000628  4.136662  0.001  -0.040601  -0.084753  0.00062  4.091956  0.002
C  C65  1  0.78380540  0.91902767  0.56227293  1  -0.107608  -0.006033  3.86067  -0.009  -0.094957  -0.00061  4.109603  -0.002  -0.111066  -0.000625  4.136482  -0.001  -0.040576  -0.084644  -0.00062  4.091772  -0.002
C  C66  1  0.38887489  0.48784496  0.90267468  1  -0.092708  0.004646  3.834355  0.007  -0.0789  -3.4e-05  4.081052  0.001  -0.094806  -0.000111  4.107197  0.0  -0.03271  -0.068863  0.000241  4.063437  0.001
C  C67  1  0.61113115  0.51215220  0.09732335  1  -0.092968  -0.00464  3.834714  -0.007  -0.07914  3.6e-05  4.081359  -0.001  -0.095038  0.000114  4.107497  0.0  -0.032743  -0.069144  -0.000243  4.063844  -0.001
C  C68  1  0.96680575  0.17918843  0.10514601  1  0.48932  -0.003611  3.963453  -0.006  0.460141  0.000167  4.243928  -0.002  0.482545  -0.000442  4.258573  -0.002  0.300849  0.444727  0.000828  4.232756  -0.001
C  C69  1  0.03319591  0.82081235  0.89485757  1  0.489345  0.003604  3.963511  0.006  0.460152  -0.00017  4.24399  0.002  0.482558  0.00044  4.25863  0.002  0.300803  0.444732  -0.000831  4.232823  0.001
C  C70  1  0.86576023  0.57538205  0.25356822  1  -0.065758  -0.001204  3.7962  -0.001  -0.079372  -0.000899  4.046519  -0.001  -0.079739  -0.000424  4.066302  -0.001  -0.096128  -0.079521  -0.001178  4.034095  -0.001
C  C71  1  0.13425171  0.42462604  0.74642984  1  -0.065836  0.001196  3.796427  0.001  -0.079452  0.000898  4.046721  0.001  -0.079801  0.000424  4.066512  0.001  -0.09615  -0.079595  0.001178  4.034293  0.001
C  C72  1  0.62997718  0.84093513  0.29474983  1  -0.078389  9e-05  3.650533  0.0  -0.17395  2.3e-05  3.914512  0.0  -0.16705  1.8e-05  3.918711  0.0  -0.1412  -0.178383  2.7e-05  3.911626  0.0
C  C73  1  0.37000318  0.15905822  0.70525089  1  -0.078693  -4.4e-05  3.650711  0.0  -0.174266  -2.3e-05  3.91465  0.0  -0.167384  -1.8e-05  3.918848  0.0  -0.141274  -0.178703  -2.7e-05  3.911764  0.0
C  C74  1  0.42428964  0.95509946  0.37099941  1  0.14286  0.005256  3.799754  0.007  0.137334  0.000764  4.052425  0.001  0.140741  0.000789  4.068546  0.001  0.070471  0.134486  0.000705  4.041883  0.001
C  C75  1  0.57570824  0.04490037  0.62899997  1  0.142728  -0.005248  3.799957  -0.007  0.137268  -0.000762  4.052525  -0.001  0.140656  -0.000789  4.068658  -0.001  0.070512  0.134421  -0.000707  4.041977  -0.001
C  C76  1  0.38924181  0.87223726  0.48682705  1  -0.178565  -0.009838  3.795613  -0.011  -0.204063  -0.002629  4.055771  -0.003  -0.203214  -0.002048  4.074967  -0.002  -0.11204  -0.204283  -0.002801  4.042855  -0.003
C  C77  1  0.61074895  0.12776343  0.51317490  1  -0.178494  0.009831  3.795723  0.011  -0.204057  0.002628  4.055864  0.003  -0.203205  0.002048  4.07506  0.002  -0.112062  -0.204277  0.002801  4.042946  0.003
C  C78  1  0.58920081  0.36462239  0.82224345  1  0.147682  -0.002253  3.780882  -0.002  0.139506  -0.003182  4.038799  -0.004  0.142536  -0.002496  4.05539  -0.003  0.069506  0.137533  -0.004621  4.027185  -0.005
C  C79  1  0.41080896  0.63537483  0.17776075  1  0.147584  0.002251  3.780993  0.002  0.139317  0.003183  4.03902  0.004  0.142348  0.002497  4.055621  0.003  0.069454  0.137343  0.00462  4.027402  0.005
C  C80  1  0.83044527  0.48990336  0.36977749  1  -0.07599  0.000149  3.807232  0.0  -0.090577  -0.00028  4.057917  0.0  -0.092445  5e-06  4.079706  0.0  -0.099265  -0.089562  -0.000345  4.04378  0.0
C  C81  1  0.16956922  0.51010566  0.63022327  1  -0.075814  -0.00014  3.8074  0.0  -0.090403  0.00028  4.058072  0.0  -0.092273  -6e-06  4.079855  0.0  -0.099212  -0.089389  0.000344  4.043931  0.0
C  C82  1  0.43633025  0.58179934  0.78945809  1  -0.097  -0.008917  3.762182  -0.008  -0.132408  -0.005027  4.039332  -0.003  -0.127438  -0.003451  4.056378  -0.002  -0.093861  -0.13457  -0.006981  4.027212  -0.005
C  C83  1  0.56367324  0.41819688  0.21053723  1  -0.096889  0.008941  3.762278  0.008  -0.132296  0.005027  4.039399  0.003  -0.127325  0.003452  4.056446  0.002  -0.093844  -0.134457  0.006982  4.02728  0.005
C  C84  1  0.98754319  0.55900490  0.16145220  1  -0.132782  0.000684  3.721229  0.001  -0.153788  -5.6e-05  3.971002  0.0  -0.155822  0.000217  3.988345  0.0  -0.092699  -0.152882  -0.000294  3.960359  0.0
C  C85  1  0.01246463  0.44099860  0.83854279  1  -0.132807  -0.000701  3.721527  -0.001  -0.153858  5.7e-05  3.971361  0.0  -0.155886  -0.000217  3.9887  0.0  -0.092763  -0.152967  0.000295  3.960731  0.0
C  C86  1  0.19949479  0.08984517  0.05499311  1  0.4963  -0.003711  3.978298  -0.006  0.465896  -9.9e-05  4.258978  -0.002  0.489307  -0.000598  4.270861  -0.002  0.302246  0.449635  0.00045  4.250217  -0.001
C  C87  1  0.80049936  0.91015372  0.94500545  1  0.496255  0.003716  3.978236  0.006  0.465845  9.8e-05  4.258939  0.002  0.489264  0.000599  4.270829  0.002  0.30221  0.449576  -0.00045  4.250179  0.001
N  N88  1  0.20279972  0.42861801  0.10222144  1  -0.327051  -0.002682  3.419855  -0.002  -0.290991  -0.004559  3.727622  -0.008  -0.318361  -0.004405  3.738319  -0.008  -0.366686  -0.273572  -0.003516  3.720469  -0.006
N  N89  1  0.79720165  0.57138093  0.89777595  1  -0.327146  0.002674  3.419846  0.002  -0.291153  0.004558  3.727674  0.008  -0.318541  0.004402  3.738387  0.008  -0.366737  -0.273725  0.003515  3.720519  0.006
N  N90  1  0.13655085  0.27054554  0.31329078  1  -0.325317  -0.00307  3.437124  -0.002  -0.287026  -0.005661  3.741811  -0.008  -0.312714  -0.005045  3.751488  -0.008  -0.366307  -0.270763  -0.005118  3.735447  -0.007
N  N91  1  0.86344689  0.72945336  0.68670551  1  -0.325403  0.003069  3.43707  0.002  -0.287175  0.005662  3.74181  0.008  -0.312881  0.005046  3.751499  0.008  -0.36627  -0.270906  0.005119  3.735443  0.007
N  N92  1  0.11832736  0.16315961  0.10607545  1  -0.464965  0.025019  3.386505  0.036  -0.410357  0.019985  3.652126  0.028  -0.438613  0.015454  3.657198  0.022  -0.313235  -0.388959  0.024983  3.647123  0.035
N  N93  1  0.88166253  0.83684558  0.89392021  1  -0.464995  -0.025023  3.386265  -0.036  -0.410377  -0.019987  3.651864  -0.028  -0.43865  -0.015457  3.656955  -0.022  -0.313178  -0.388966  -0.024985  3.646856  -0.035
N  N94  1  0.28487795  0.02686576  0.01259008  1  -0.633512  0.00938  2.639522  0.013  -0.609519  0.007116  2.893833  0.01  -0.624956  0.005463  2.897356  0.008  -0.449258  -0.598077  0.00915  2.891059  0.012
N  N95  1  0.71510657  0.97313306  0.98741088  1  -0.633561  -0.00939  2.639259  -0.013  -0.609582  -0.007119  2.893591  -0.01  -0.625013  -0.005466  2.897092  -0.008  -0.449328  -0.598147  -0.009156  2.890836  -0.012
N  N96  1  0.83100510  0.20157203  0.10868404  1  -0.611956  0.011175  2.629409  0.015  -0.585782  0.008466  2.881211  0.012  -0.60316  0.006509  2.887026  0.009  -0.424285  -0.572567  0.010831  2.876403  0.014
N  N97  1  0.16897707  0.79842680  0.89132069  1  -0.611821  -0.011162  2.629846  -0.015  -0.585633  -0.008458  2.881655  -0.012  -0.603003  -0.006504  2.887459  -0.009  -0.424198  -0.572425  -0.010822  2.876865  -0.014
O  O98  1  0.44046826  0.29010269  0.02463288  1  -0.54571  -0.008705  2.28651  -0.013  -0.514365  -0.003857  2.580007  -0.007  -0.549852  -0.004167  2.575921  -0.008  -0.368292  -0.489952  -0.003341  2.581944  -0.006
O  O99  1  0.55953536  0.70989357  0.97537005  1  -0.545543  0.008707  2.286432  0.013  -0.514222  0.003856  2.579905  0.007  -0.549702  0.004168  2.575831  0.008  -0.368234  -0.489806  0.003342  2.581825  0.006
O  O100  1  0.38281663  0.13878482  0.23294773  1  -0.543183  -0.006072  2.272074  -0.009  -0.511024  -0.002103  2.562285  -0.004  -0.545668  -0.002906  2.556898  -0.006  -0.369765  -0.487701  -0.00088  2.565714  -0.002
O  O101  1  0.61717394  0.86121406  0.76705394  1  -0.54315  0.006069  2.272079  0.009  -0.511009  0.002102  2.562218  0.004  -0.545652  0.002905  2.556836  0.006  -0.369701  -0.487683  0.000882  2.56564  0.002
O  O102  1  0.53762418  0.94434462  0.27388027  1  -0.261878  0.000802  2.40773  0.001  -0.184463  0.000189  2.648083  0.0  -0.200626  0.000169  2.651902  0.0  -0.207431  -0.173277  0.000159  2.645348  0.0
O  O103  1  0.46236499  0.05565330  0.72611513  1  -0.261695  -0.000812  2.407887  -0.001  -0.184341  -0.000189  2.64825  0.0  -0.200471  -0.000168  2.652052  0.0  -0.207441  -0.173159  -0.000161  2.645514  0.0
O  O104  1  0.65961578  0.25708825  0.84902908  1  -0.259715  -0.000653  2.393965  -0.001  -0.182177  -0.000929  2.635301  -0.001  -0.198581  -0.00062  2.639048  -0.001  -0.204705  -0.170651  -0.001634  2.632261  -0.002
O  O105  1  0.34039280  0.74290897  0.15097616  1  -0.259749  0.000658  2.39412  0.001  -0.182143  0.000929  2.635434  0.001  -0.198541  0.00062  2.639167  0.001  -0.204683  -0.170615  0.001634  2.632395  0.002
