# generated using pymatgen
data_PrH10C11NO7
_symmetry_space_group_name_H-M   'P 1'
_cell_length_a   7.78705625
_cell_length_b   8.14818207
_cell_length_c   10.16551160
_cell_angle_alpha   82.09859265
_cell_angle_beta   83.97971696
_cell_angle_gamma   70.45660960
_symmetry_Int_Tables_number   1
_chemical_formula_structural   PrH10C11NO7
_chemical_formula_sum   'Pr2 H20 C22 N2 O14'
_cell_volume   600.87511684
_cell_formula_units_Z   2
loop_
 _symmetry_equiv_pos_site_id
 _symmetry_equiv_pos_as_xyz
  1  'x, y, z'
loop_
 _atom_site_type_symbol
 _atom_site_label
 _atom_site_symmetry_multiplicity
 _atom_site_fract_x
 _atom_site_fract_y
 _atom_site_fract_z
 _atom_site_occupancy
 _atom_site_hle17_bader_spin_density
 _atom_site_hle17_ddec_charge
 _atom_site_hle17_ddec_spin_density
 _atom_site_hle17_ddec_sum_bond_order
 _atom_site_hle17_magmom
 _atom_site_hse06_10hf_bader_spin_density
 _atom_site_hse06_10hf_ddec_charge
 _atom_site_hse06_10hf_ddec_spin_density
 _atom_site_hse06_10hf_ddec_sum_bond_order
 _atom_site_hse06_10hf_magmom
 _atom_site_hse06_bader_spin_density
 _atom_site_hse06_ddec_charge
 _atom_site_hse06_ddec_spin_density
 _atom_site_hse06_ddec_sum_bond_order
 _atom_site_hse06_magmom
 _atom_site_pbe_bader_spin_density
 _atom_site_pbe_cm5_charge
 _atom_site_pbe_ddec_charge
 _atom_site_pbe_ddec_spin_density
 _atom_site_pbe_ddec_sum_bond_order
 _atom_site_pbe_magmom
Pr  Pr0  1  0.23100472  0.09001290  0.53424140  1  0  2.330555  0  1.637802  0  0  2.177074  0  2.088135  0  0  2.258094  0  1.967274  0  0  1.510783  2.144217  0  2.125397  0
Pr  Pr1  1  0.76899449  0.90998656  0.46575923  1  0  2.330573  0  1.637758  0  0  2.177123  0  2.088042  0  0  2.258118  0  1.967228  0  0  1.510793  2.144257  0  2.125321  0
H  H2  1  0.86577269  0.08238496  0.84416817  1  0  0.094237  0  0.962129  0  0  0.105875  0  1.022307  0  0  0.108867  0  1.019801  0  0  0.107377  0.103754  0  1.024007  0
H  H3  1  0.13422653  0.91761450  0.15583246  1  0  0.094248  0  0.962132  0  0  0.10588  0  1.022323  0  0  0.108872  0  1.019817  0  0  0.107369  0.103759  0  1.024023  0
H  H4  1  0.91176304  0.18348385  0.04818745  1  0  0.095063  0  0.973697  0  0  0.107412  0  1.032826  0  0  0.110115  0  1.03236  0  0  0.100794  0.10545  0  1.033289  0
H  H5  1  0.08823747  0.81651561  0.95181210  1  0  0.095089  0  0.973714  0  0  0.107432  0  1.032845  0  0  0.110135  0  1.032377  0  0  0.100804  0.105469  0  1.033309  0
H  H6  1  0.32773194  0.34031439  0.14704589  1  0  0.108812  0  0.967237  0  0  0.119132  0  1.028707  0  0  0.123014  0  1.026777  0  0  0.103139  0.116355  0  1.030387  0
H  H7  1  0.67226941  0.65968638  0.85295445  1  0  0.108809  0  0.96725  0  0  0.119132  0  1.028714  0  0  0.123015  0  1.026783  0  0  0.103142  0.116355  0  1.030394  0
H  H8  1  0.28772729  0.23779884  0.94011467  1  0  0.092397  0  0.941103  0  0  0.105691  0  0.998031  0  0  0.108822  0  0.995428  0  0  0.104994  0.103476  0  0.999823  0
H  H9  1  0.71227366  0.76219931  0.05988597  1  0  0.092391  0  0.941103  0  0  0.105685  0  0.998032  0  0  0.108816  0  0.995429  0  0  0.104991  0.103469  0  0.999826  0
H  H10  1  0.37470901  0.53557447  0.24134990  1  0  0.106577  0  0.943752  0  0  0.11863  0  1.008047  0  0  0.119729  0  1.008385  0  0  0.11948  0.117691  0  1.00778  0
H  H11  1  0.62529106  0.46442630  0.75865053  1  0  0.106587  0  0.943744  0  0  0.118635  0  1.008029  0  0  0.119735  0  1.008367  0  0  0.119492  0.117696  0  1.007764  0
H  H12  1  0.52975380  0.54290536  0.35259868  1  0  0.119718  0  0.937257  0  0  0.132327  0  0.997143  0  0  0.13427  0  0.996689  0  0  0.126401  0.131004  0  0.997393  0
H  H13  1  0.47024585  0.45709280  0.64740206  1  0  0.119721  0  0.937245  0  0  0.132319  0  0.99714  0  0  0.134263  0  0.996685  0  0  0.12639  0.130996  0  0.99739  0
H  H14  1  0.78816478  0.51572353  0.27217568  1  0  0.124372  0  0.925551  0  0  0.136396  0  0.987725  0  0  0.138946  0  0.986108  0  0  0.12994  0.134625  0  0.989156  0
H  H15  1  0.21183443  0.48427593  0.72782495  1  0  0.124393  0  0.925523  0  0  0.136404  0  0.987697  0  0  0.138955  0  0.98608  0  0  0.129938  0.134634  0  0.989128  0
H  H16  1  0.88387086  0.41443644  0.12814877  1  0  0.104603  0  0.918423  0  0  0.118849  0  0.977189  0  0  0.120739  0  0.975677  0  0  0.118823  0.117673  0  0.978062  0
H  H17  1  0.11612836  0.58556302  0.87185186  1  0  0.104592  0  0.918414  0  0  0.118849  0  0.977155  0  0  0.120739  0  0.975642  0  0  0.118815  0.117672  0  0.97803  0
H  H18  1  0.86047892  0.39320035  0.58469077  1  0  0.445183  0  0.847724  0  0  0.417062  0  0.905517  0  0  0.428425  0  0.889146  0  0  0.302471  0.409184  0  0.916839  0
H  H19  1  0.13951984  0.60680042  0.41531074  1  0  0.445144  0  0.847781  0  0  0.416993  0  0.905606  0  0  0.428356  0  0.889234  0  0  0.302443  0.409114  0  0.916929  0
H  H20  1  0.83889289  0.20840493  0.64163398  1  0  0.42867  0  0.876896  0  0  0.396165  0  0.945018  0  0  0.406718  0  0.929813  0  0  0.298359  0.388438  0  0.956359  0
H  H21  1  0.16110632  0.79159453  0.35836665  1  0  0.428672  0  0.876895  0  0  0.396165  0  0.945019  0  0  0.406719  0  0.929814  0  0  0.298357  0.388438  0  0.956361  0
C  C22  1  0.57156067  0.16330557  0.87259824  1  0  -0.134808  0  3.80258  0  0  -0.112997  0  4.040901  0  0  -0.126002  0  4.065075  0  0  -0.041442  -0.103765  0  4.023904  0
C  C23  1  0.42843855  0.83669389  0.12740141  1  0  -0.134934  0  3.802586  0  0  -0.113085  0  4.040917  0  0  -0.126094  0  4.065087  0  0  -0.041473  -0.103854  0  4.023922  0
C  C24  1  0.74729945  0.14349244  0.90870260  1  0  -0.042851  0  3.778884  0  0  -0.067113  0  4.027007  0  0  -0.061473  0  4.04424  0  0  -0.085069  -0.070362  0  4.014431  0
C  C25  1  0.25270234  0.85650702  0.09129883  1  0  -0.042858  0  3.778912  0  0  -0.067122  0  4.027032  0  0  -0.061483  0  4.044265  0  0  -0.085051  -0.070369  0  4.014455  0
C  C26  1  0.77308541  0.20235071  0.02417803  1  0  -0.197736  0  3.748077  0  0  -0.215815  0  4.006802  0  0  -0.224687  0  4.027233  0  0  -0.107031  -0.209572  0  3.992708  0
C  C27  1  0.22691336  0.79765006  0.97582249  1  0  -0.197756  0  3.748075  0  0  -0.215835  0  4.006804  0  0  -0.224708  0  4.027232  0  0  -0.107041  -0.209591  0  3.992713  0
C  C28  1  0.62179484  0.28695700  0.10875263  1  0  0.235551  0  3.769872  0  0  0.219178  0  4.026416  0  0  0.233029  0  4.045047  0  0  0.11557  0.209626  0  4.01367  0
C  C29  1  0.37820523  0.71304377  0.89124780  1  0  0.235595  0  3.769745  0  0  0.219238  0  4.0263  0  0  0.23309  0  4.044929  0  0  0.115591  0.209685  0  4.013555  0
C  C30  1  0.44660713  0.28981477  0.07968533  1  0  -0.176689  0  3.694401  0  0  -0.196328  0  3.955709  0  0  -0.204935  0  3.975306  0  0  -0.102242  -0.190767  0  3.943022  0
C  C31  1  0.55339381  0.71018338  0.92031532  1  0  -0.17668  0  3.694369  0  0  -0.19632  0  3.955678  0  0  -0.204928  0  3.975274  0  0  -0.102236  -0.19076  0  3.942992  0
C  C32  1  0.42359417  0.23057407  0.96359321  1  0  -0.021918  0  3.747429  0  0  -0.048613  0  4.000369  0  0  -0.043213  0  4.018971  0  0  -0.079836  -0.052305  0  3.987681  0
C  C33  1  0.57640590  0.76942670  0.03640623  1  0  -0.02187  0  3.747391  0  0  -0.048564  0  4.000318  0  0  -0.043168  0  4.018926  0  0  -0.079815  -0.052255  0  3.98763  0
C  C34  1  0.54176218  0.12619039  0.74033394  1  0  0.711788  0  3.847487  0  0  0.661142  0  4.146582  0  0  0.697436  0  4.137856  0  0  0.226338  0.635131  0  4.155203  0
C  C35  1  0.45823617  0.87381170  0.25966451  1  0  0.711906  0  3.847268  0  0  0.661157  0  4.146526  0  0  0.697466  0  4.137781  0  0  0.226331  0.635146  0  4.155147  0
C  C36  1  0.49118790  0.45345034  0.29930711  1  0  -0.169354  0  3.664878  0  0  -0.224581  0  3.904083  0  0  -0.225361  0  3.911989  0  0  -0.052575  -0.223707  0  3.898002  0
C  C37  1  0.50881131  0.54654912  0.70069353  1  0  -0.169344  0  3.664889  0  0  -0.224541  0  3.904114  0  0  -0.225321  0  3.91202  0  0  -0.05255  -0.22367  0  3.898036  0
C  C38  1  0.41979494  0.33623061  0.40379403  1  0  0.723573  0  3.80627  0  0  0.675744  0  4.106512  0  0  0.70961  0  4.099263  0  0  0.221437  0.652034  0  4.114609  0
C  C39  1  0.58020471  0.66376755  0.59620671  1  0  0.72353  0  3.806399  0  0  0.675683  0  4.106667  0  0  0.70955  0  4.099417  0  0  0.221423  0.651974  0  4.114764  0
C  C40  1  0.81567423  0.39403773  0.22641728  1  0  -0.166906  0  3.673452  0  0  -0.226623  0  3.921388  0  0  -0.226668  0  3.927751  0  0  -0.049932  -0.226448  0  3.916314  0
C  C41  1  0.18432454  0.60596305  0.77358324  1  0  -0.166952  0  3.673446  0  0  -0.226609  0  3.921336  0  0  -0.226658  0  3.927702  0  0  -0.049912  -0.226436  0  3.916256  0
C  C42  1  0.95234331  0.25258685  0.31235668  1  0  0.732521  0  3.834427  0  0  0.689032  0  4.132638  0  0  0.72239  0  4.125662  0  0  0.226075  0.665882  0  4.139645  0
C  C43  1  0.04765675  0.74741392  0.68764375  1  0  0.732557  0  3.834392  0  0  0.689042  0  4.132632  0  0  0.722401  0  4.125653  0  0  0.226084  0.665901  0  4.139627  0
N  N44  1  0.64475194  0.36692947  0.21327360  1  0  -0.130273  0  3.474371  0  0  -0.048466  0  3.705357  0  0  -0.06678  0  3.729972  0  0  -0.28226  -0.034914  0  3.687587  0
N  N45  1  0.35524856  0.63306999  0.78672694  1  0  -0.130278  0  3.474414  0  0  -0.048528  0  3.705434  0  0  -0.066842  0  3.730051  0  0  -0.282295  -0.034974  0  3.687662  0
O  O46  1  0.67866283  0.09455196  0.65268035  1  0  -0.769574  0  2.063512  0  0  -0.707544  0  2.313599  0  0  -0.737055  0  2.301374  0  0  -0.38955  -0.690357  0  2.322527  0
O  O47  1  0.32133726  0.90544881  0.34731811  1  0  -0.769612  0  2.063459  0  0  -0.707528  0  2.31356  0  0  -0.737047  0  2.301326  0  0  -0.389563  -0.690344  0  2.322494  0
O  O48  1  0.38118076  0.13576788  0.71501954  1  0  -0.74157  0  2.009406  0  0  -0.693437  0  2.271332  0  0  -0.722167  0  2.256583  0  0  -0.406948  -0.677248  0  2.281433  0
O  O49  1  0.61881846  0.86423158  0.28498011  1  0  -0.741587  0  2.009308  0  0  -0.693431  0  2.271299  0  0  -0.722155  0  2.256528  0  0  -0.406935  -0.677241  0  2.281403  0
O  O50  1  0.28247865  0.40706249  0.48001972  1  0  -0.665041  0  1.9647  0  0  -0.608605  0  2.188361  0  0  -0.63642  0  2.178692  0  0  -0.32526  -0.590628  0  2.194952  0
O  O51  1  0.71752056  0.59293697  0.51998091  1  0  -0.665055  0  1.964681  0  0  -0.608647  0  2.188405  0  0  -0.636461  0  2.178735  0  0  -0.325293  -0.590669  0  2.194995  0
O  O52  1  0.49383585  0.16980285  0.41047021  1  0  -0.814285  0  2.185189  0  0  -0.759733  0  2.456151  0  0  -0.792459  0  2.443895  0  0  -0.44138  -0.742121  0  2.464508  0
O  O53  1  0.50616123  0.83019532  0.58952875  1  0  -0.81426  0  2.185273  0  0  -0.759694  0  2.456226  0  0  -0.792421  0  2.443977  0  0  -0.441361  -0.74208  0  2.464581  0
O  O54  1  0.91497071  0.11727644  0.36904433  1  0  -0.812302  0  2.071772  0  0  -0.757768  0  2.339779  0  0  -0.789515  0  2.323896  0  0  -0.427524  -0.740665  0  2.349586  0
O  O55  1  0.08502935  0.88272433  0.63095610  1  0  -0.812315  0  2.071784  0  0  -0.757781  0  2.339814  0  0  -0.789529  0  2.323927  0  0  -0.427536  -0.740682  0  2.349616  0
O  O56  1  0.09778025  0.28141411  0.32845762  1  0  -0.684196  0  1.985936  0  0  -0.634254  0  2.22142  0  0  -0.662631  0  2.212536  0  0  -0.371458  -0.616795  0  2.226609  0
O  O57  1  0.90221982  0.71858667  0.67154182  1  0  -0.68421  0  1.985906  0  0  -0.634265  0  2.221399  0  0  -0.662641  0  2.212521  0  0  -0.371462  -0.616808  0  2.226583  0
O  O58  1  0.92958038  0.27230901  0.62374305  1  0  -0.926125  0  1.823607  0  0  -0.877839  0  2.011432  0  0  -0.900838  0  1.974552  0  0  -0.649468  -0.86489  0  2.035344  0
O  O59  1  0.07041839  0.72769177  0.37625748  1  0  -0.926091  0  1.823641  0  0  -0.877778  0  2.011532  0  0  -0.900775  0  1.974654  0  0  -0.649443  -0.864826  0  2.035444  0
