# generated using pymatgen
data_CuHg2H28C12N8(Cl3O2)2
_symmetry_space_group_name_H-M   'P 1'
_cell_length_a   8.91484024
_cell_length_b   10.19562507
_cell_length_c   14.78636269
_cell_angle_alpha   97.87819889
_cell_angle_beta   89.99993498
_cell_angle_gamma   89.99997885
_symmetry_Int_Tables_number   1
_chemical_formula_structural   CuHg2H28C12N8(Cl3O2)2
_chemical_formula_sum   'Cu2 Hg4 H56 C24 N16 Cl12 O8'
_cell_volume   1331.28274540
_cell_formula_units_Z   2
loop_
 _symmetry_equiv_pos_site_id
 _symmetry_equiv_pos_as_xyz
  1  'x, y, z'
loop_
 _atom_site_type_symbol
 _atom_site_label
 _atom_site_symmetry_multiplicity
 _atom_site_fract_x
 _atom_site_fract_y
 _atom_site_fract_z
 _atom_site_occupancy
 _atom_site_hle17_ddec_charge
 _atom_site_hle17_ddec_spin_density
 _atom_site_hle17_ddec_sum_bond_order
 _atom_site_hle17_magmom
 _atom_site_hse06_10hf_ddec_charge
 _atom_site_hse06_10hf_ddec_spin_density
 _atom_site_hse06_10hf_ddec_sum_bond_order
 _atom_site_hse06_10hf_magmom
 _atom_site_hse06_ddec_charge
 _atom_site_hse06_ddec_spin_density
 _atom_site_hse06_ddec_sum_bond_order
 _atom_site_hse06_magmom
 _atom_site_pbe_cm5_charge
 _atom_site_pbe_ddec_charge
 _atom_site_pbe_ddec_spin_density
 _atom_site_pbe_ddec_sum_bond_order
 _atom_site_pbe_magmom
Cu  Cu0  1  0.62243435  0.50923170  0.74442235  1  0.856519  -0.677161  1.819138  -0.506  0.837744  -0.768401  2.217158  -0.617  0.923538  -0.827513  2.148168  -0.696  0.682734  0.785826  -0.728391  2.262462  -0.569
Cu  Cu1  1  0.12243371  0.49076414  0.25557389  1  0.856537  -0.677151  1.819008  -0.506  0.837687  -0.768392  2.217141  -0.617  0.923612  -0.827536  2.148037  -0.696  0.682705  0.785774  -0.728392  2.262443  -0.569
Hg  Hg2  1  0.06585803  0.36446995  0.65311728  1  0.744829  6.9e-05  2.132646  0.0  0.614186  0.000297  2.64244  0.0  0.659803  0.000203  2.604398  0.0  0.439791  0.582465  0.000231  2.668627  0.0
Hg  Hg3  1  0.56585488  0.63552891  0.34688334  1  0.744821  6.7e-05  2.132589  0.0  0.614183  0.000296  2.642363  0.0  0.659802  0.000203  2.604324  0.0  0.439789  0.582461  0.000231  2.668549  0.0
Hg  Hg4  1  0.17734380  0.64075034  0.85065050  1  0.74273  8.8e-05  2.130824  0.0  0.611596  0.0003  2.641738  0.0  0.65725  0.000197  2.603707  0.0  0.444416  0.580476  0.000218  2.666875  0.0
Hg  Hg5  1  0.67734339  0.35924847  0.14935071  1  0.742719  8.8e-05  2.130821  0.0  0.611584  0.000301  2.641734  0.0  0.657241  0.000197  2.603704  0.0  0.444396  0.580465  0.000218  2.666872  0.0
H  H6  1  0.60949737  0.43171289  0.89992189  1  0.297776  0.001126  0.921811  0.001  0.28502  -0.000102  0.988274  0.0  0.292088  0.000213  0.984317  0.001  0.273585  0.280019  -0.000367  0.991449  0.0
H  H7  1  0.10949810  0.56828990  0.10007568  1  0.297734  0.001141  0.921842  0.001  0.28498  -0.000103  0.988314  0.0  0.29205  0.000212  0.98436  0.001  0.27357  0.279979  -0.000368  0.991488  0.0
H  H8  1  0.44295601  0.41831993  0.85092427  1  0.290038  0.001431  0.918362  0.001  0.280184  0.000192  0.981642  0.0  0.28588  0.000464  0.979513  0.0  0.276997  0.276198  -2.5e-05  0.983649  0.0
H  H9  1  0.94295438  0.58168370  0.14907517  1  0.290051  0.001432  0.91829  0.001  0.280244  0.000191  0.981526  0.0  0.28594  0.000464  0.979397  0.0  0.27702  0.276258  -2.4e-05  0.983533  0.0
H  H10  1  0.69974250  0.24095347  0.83268964  1  0.07388  0.000147  0.934702  0.0  0.085557  0.000125  0.995889  0.0  0.086599  8.8e-05  0.996166  0.0  0.113258  0.084795  0.000155  0.995612  0.0
H  H11  1  0.19974303  0.75904829  0.16730844  1  0.073887  0.000137  0.934645  0.0  0.085585  0.000125  0.995839  0.0  0.086631  8.8e-05  0.996109  0.0  0.113247  0.084823  0.000155  0.995561  0.0
H  H12  1  0.53646846  0.91659819  0.92078374  1  0.29946  3.9e-05  0.934028  0.0  0.279797  -2.2e-05  0.996536  0.0  0.288838  -5e-06  0.989707  0.0  0.304321  0.273314  -4.2e-05  1.001668  0.0
H  H13  1  0.03647056  0.08340467  0.07922065  1  0.299519  3.9e-05  0.934026  0.0  0.279843  -2.2e-05  0.99653  0.0  0.288885  -5e-06  0.989703  0.0  0.304345  0.273361  -4.3e-05  1.00166  0.0
H  H14  1  0.51260516  0.06410536  0.81367098  1  0.091537  -0.000944  0.949021  -0.002  0.106067  -0.000636  1.01157  -0.001  0.107903  -0.00037  1.011129  -0.001  0.095354  0.104526  -0.000831  1.012171  -0.001
H  H15  1  0.01260333  0.93589748  0.18633004  1  0.091514  -0.000931  0.949035  -0.002  0.106036  -0.000635  1.011589  -0.001  0.107875  -0.00037  1.01115  -0.001  0.095331  0.104496  -0.000831  1.012191  -0.001
H  H16  1  0.36347290  0.17940680  0.81942110  1  0.07954  0.000221  0.948016  0.0  0.092717  9.2e-05  1.01615  0.0  0.09381  7.6e-05  1.016218  0.0  0.081442  0.091642  0.0001  1.016328  0.0
H  H17  1  0.86347447  0.82059291  0.18057939  1  0.079556  0.00022  0.948141  0.0  0.092726  9.2e-05  1.016258  0.0  0.093821  7.7e-05  1.016328  0.0  0.081443  0.091653  0.0001  1.016434  0.0
H  H18  1  0.54977296  0.68242761  0.06776035  1  0.33674  -2.1e-05  0.894352  0.0  0.315205  -1.5e-05  0.967243  0.0  0.321933  -1.7e-05  0.961836  0.0  0.292703  0.310311  -1.9e-05  0.971323  0.0
H  H19  1  0.04977112  0.31757127  0.93224095  1  0.336751  -3.5e-05  0.8944  0.0  0.315208  -1.4e-05  0.967281  0.0  0.321934  -1.7e-05  0.961876  0.0  0.292713  0.310314  -1.9e-05  0.971359  0.0
H  H20  1  0.59572920  0.72184983  0.96123293  1  0.347426  -0.000329  0.899709  0.0  0.328586  -0.00037  0.963954  0.0  0.337385  -0.000249  0.956269  0.0  0.300859  0.322438  -0.000437  0.969312  0.0
H  H21  1  0.09572680  0.27815198  0.03876794  1  0.34741  -0.000336  0.899718  0.0  0.328554  -0.00037  0.963974  0.0  0.337353  -0.000248  0.956288  0.0  0.300825  0.322405  -0.000437  0.969335  0.0
H  H22  1  0.59545784  0.17317640  0.97340976  1  0.063735  8e-06  0.946699  0.0  0.079031  7e-06  1.016831  0.0  0.079359  6e-06  1.01733  0.0  0.081606  0.078884  7e-06  1.015945  0.0
H  H23  1  0.09545860  0.82682443  0.02659102  1  0.063746  7e-06  0.946697  0.0  0.07902  7e-06  1.016836  0.0  0.079347  6e-06  1.017336  0.0  0.081601  0.078872  7e-06  1.015947  0.0
H  H24  1  0.43124624  0.27122416  0.97751901  1  0.072701  -0.000192  0.943438  0.0  0.087679  -0.00024  1.008972  0.0  0.088314  -0.000188  1.009319  0.0  0.082496  0.086957  -0.000282  1.009201  0.0
H  H25  1  0.93124478  0.72877949  0.02248247  1  0.072746  -0.000188  0.943481  0.0  0.087721  -0.00024  1.008989  0.0  0.088356  -0.000188  1.009336  0.0  0.082504  0.086999  -0.000282  1.009214  0.0
H  H26  1  0.34406640  0.97410273  0.13782024  1  0.347463  -0.000137  0.906025  0.0  0.325443  -0.000138  0.974236  0.0  0.334051  -7.3e-05  0.966589  0.0  0.302485  0.319424  -0.0002  0.979559  0.0
H  H27  1  0.84406591  0.02589601  0.86218220  1  0.347504  -0.000138  0.905988  0.0  0.325501  -0.000138  0.974175  0.0  0.33411  -7.3e-05  0.966526  0.0  0.302498  0.319481  -0.0002  0.979499  0.0
H  H28  1  0.44808733  0.84943363  0.17551598  1  0.331661  -9e-06  0.907815  0.0  0.312778  -1.1e-05  0.975591  0.0  0.320143  -1e-05  0.969452  0.0  0.288823  0.307459  -1.1e-05  0.980305  0.0
H  H29  1  0.94808685  0.15056606  0.82448648  1  0.331699  -1.6e-05  0.907839  0.0  0.312857  -1e-05  0.975588  0.0  0.320223  -9e-06  0.969447  0.0  0.288832  0.30754  -1.1e-05  0.980303  0.0
H  H30  1  0.36372714  0.09983185  0.05725747  1  0.060478  8.8e-05  0.983652  0.0  0.074457  6.7e-05  1.048172  0.0  0.075101  5.1e-05  1.048602  0.0  0.104136  0.073694  7.3e-05  1.048327  0.0
H  H31  1  0.86372725  0.90017086  0.94274803  1  0.060473  0.00012  0.983629  0.0  0.074395  6.7e-05  1.048203  0.0  0.07504  5.1e-05  1.048628  0.0  0.104115  0.073632  7.3e-05  1.048357  0.0
H  H32  1  0.28060648  0.05324423  0.94910291  1  0.062027  4e-06  0.939599  0.0  0.074503  1e-05  1.009221  0.0  0.074776  9e-06  1.009385  0.0  0.09403  0.074349  1.1e-05  1.008693  0.0
H  H33  1  0.78060488  0.94675752  0.05090053  1  0.061921  1.3e-05  0.939617  0.0  0.074416  1e-05  1.00923  0.0  0.074688  9e-06  1.009392  0.0  0.093993  0.074263  1.1e-05  1.008703  0.0
H  H34  1  0.76553518  0.57056369  0.60707059  1  0.296292  0.00124  0.928109  0.001  0.282991  -1.8e-05  0.995947  0.0  0.289933  0.000284  0.992363  0.001  0.272481  0.277661  -0.000295  0.999745  0.0
H  H35  1  0.26553767  0.42943507  0.39292717  1  0.296297  0.001248  0.928132  0.002  0.283019  -1.9e-05  0.995916  0.0  0.289962  0.000285  0.992334  0.001  0.272484  0.277689  -0.000295  0.999714  0.0
H  H36  1  0.59958715  0.64350959  0.61530905  1  0.299392  0.001385  0.898819  0.001  0.289729  0.000136  0.961014  0.0  0.296064  0.000426  0.957991  0.0  0.282458  0.28523  -6.4e-05  0.963521  0.0
H  H37  1  0.09958744  0.35649122  0.38468970  1  0.299388  0.001379  0.898833  0.001  0.289725  0.000136  0.961033  0.0  0.296061  0.000425  0.958014  0.0  0.282455  0.285227  -6.4e-05  0.963539  0.0
H  H38  1  0.87711977  0.71009359  0.71949242  1  0.071937  0.000125  0.932311  0.0  0.078352  9.9e-05  1.001793  0.0  0.078746  8.2e-05  1.002506  0.0  0.103091  0.077951  0.000141  1.001358  0.0
H  H39  1  0.37711804  0.28990313  0.28050508  1  0.071897  9.9e-05  0.932339  0.0  0.078314  9.9e-05  1.00182  0.0  0.078697  8.2e-05  1.002546  0.0  0.103089  0.077914  0.000141  1.001384  0.0
H  H40  1  0.72240275  0.08558094  0.57014979  1  0.301779  0.000109  0.935275  0.0  0.283208  3.1e-05  0.995328  0.0  0.291734  3.5e-05  0.989428  0.0  0.306114  0.277045  -2e-06  0.999936  0.0
H  H41  1  0.22240496  0.91441981  0.42984819  1  0.301782  0.000108  0.935268  0.0  0.283233  3.1e-05  0.995323  0.0  0.29176  3.5e-05  0.98942  0.0  0.306122  0.277065  -2e-06  0.999934  0.0
H  H42  1  0.66738748  0.91534448  0.65840667  1  0.080884  1.5e-05  0.984406  0.0  0.092894  -2.3e-05  1.052606  0.0  0.094911  2.8e-05  1.051843  0.0  0.088761  0.091277  -0.00013  1.053352  0.0
H  H43  1  0.16738572  0.08465434  0.34159387  1  0.080832  3.1e-05  0.984422  0.0  0.092841  -2.3e-05  1.052642  0.0  0.094858  2.7e-05  1.051875  0.0  0.088747  0.091234  -0.00013  1.053377  0.0
H  H44  1  0.85819177  0.92729101  0.68698215  1  0.084968  -0.000619  0.932356  -0.001  0.098519  -0.000451  0.998056  -0.001  0.099639  -0.000286  0.998011  0.0  0.089189  0.097443  -0.000637  0.998596  -0.001
H  H45  1  0.35819007  0.07270770  0.31301623  1  0.08495  -0.000628  0.932349  -0.001  0.098506  -0.000451  0.998064  -0.001  0.099624  -0.000286  0.998019  0.0  0.089181  0.097432  -0.000637  0.998609  -0.001
H  H46  1  0.91921187  0.02809807  0.35624115  1  0.345781  -4.3e-05  0.893897  0.0  0.326255  -6.1e-05  0.96016  0.0  0.334306  -2.7e-05  0.953067  0.0  0.307748  0.320548  -0.000112  0.965319  0.0
H  H47  1  0.41921141  0.97190061  0.64375718  1  0.34577  -4.4e-05  0.893915  0.0  0.326251  -6.1e-05  0.960168  0.0  0.334302  -2.7e-05  0.953075  0.0  0.307754  0.320546  -0.000111  0.965324  0.0
H  H48  1  0.83086481  0.16048889  0.31898841  1  0.335521  -6e-06  0.89429  0.0  0.318494  -4e-06  0.958617  0.0  0.325542  -3e-06  0.952903  0.0  0.294032  0.313266  -3e-06  0.963262  0.0
H  H49  1  0.33086546  0.83951083  0.68101075  1  0.335534  -3e-06  0.894279  0.0  0.318509  -4e-06  0.958607  0.0  0.325557  -3e-06  0.952894  0.0  0.294034  0.313281  -3e-06  0.963253  0.0
H  H50  1  0.71814683  0.79365563  0.50888961  1  0.054885  -7.2e-05  0.955893  0.0  0.067537  -0.000139  1.030183  0.0  0.067988  -0.00011  1.029791  0.0  0.074395  0.067583  -0.000159  1.029696  0.0
H  H51  1  0.21814698  0.20634612  0.49110914  1  0.054901  -7.8e-05  0.955875  0.0  0.067549  -0.00014  1.030162  0.0  0.068001  -0.00011  1.029769  0.0  0.074408  0.067591  -0.000159  1.029672  0.0
H  H52  1  0.89957238  0.74832446  0.54137624  1  0.077998  -0.000112  0.956083  0.0  0.093329  -0.000105  1.019178  0.0  0.094146  -7.6e-05  1.019727  0.0  0.085519  0.092745  -0.000121  1.018874  0.0
H  H53  1  0.39957033  0.25167720  0.45862170  1  0.077987  -0.000123  0.956085  0.0  0.093312  -0.000104  1.019182  0.0  0.094127  -7.6e-05  1.019734  0.0  0.085504  0.092724  -0.000121  1.01888  0.0
H  H54  1  0.66308704  0.28222928  0.52803984  1  0.348816  -0.000312  0.894192  0.0  0.329032  -0.000355  0.960874  0.0  0.33828  -0.00025  0.952382  0.0  0.301308  0.322444  -0.000427  0.967043  0.0
H  H55  1  0.16308702  0.71776952  0.47195800  1  0.348848  -0.000309  0.894181  0.0  0.329057  -0.000356  0.960899  0.0  0.338299  -0.00025  0.952404  0.0  0.301297  0.322469  -0.000427  0.967067  0.0
H  H56  1  0.71182833  0.31857021  0.42093688  1  0.335208  -3.4e-05  0.905482  0.0  0.312948  -2.4e-05  0.979699  0.0  0.319873  -2.6e-05  0.974096  0.0  0.28862  0.307934  -2.6e-05  0.983829  0.0
H  H57  1  0.21183037  0.68142957  0.57906305  1  0.335215  -2.5e-05  0.905488  0.0  0.312962  -2.4e-05  0.979673  0.0  0.319887  -2.7e-05  0.974072  0.0  0.288601  0.307947  -2.6e-05  0.983803  0.0
H  H58  1  0.99018415  0.97541486  0.55213197  1  0.057226  -2.4e-05  0.94856  0.0  0.067933  -5e-06  1.022613  0.0  0.068139  -2e-06  1.022956  0.0  0.090647  0.067536  -1.4e-05  1.02261  0.0
H  H59  1  0.49018447  0.02458876  0.44786947  1  0.057244  2e-06  0.948531  0.0  0.067933  -5e-06  1.022585  0.0  0.068141  -2e-06  1.022926  0.0  0.090647  0.067536  -1.4e-05  1.022584  0.0
H  H60  1  0.92375347  0.91106090  0.44221364  1  0.065118  0.000114  0.988221  0.0  0.080035  9.4e-05  1.050416  0.0  0.081181  7.6e-05  1.050302  0.0  0.106206  0.078992  8.7e-05  1.050867  0.0
H  H61  1  0.42374794  0.08894274  0.55778581  1  0.065142  0.00012  0.988225  0.0  0.080071  9.5e-05  1.05039  0.0  0.081217  7.6e-05  1.050279  0.0  0.106209  0.07903  8.7e-05  1.05084  0.0
C  C62  1  0.60090181  0.23724006  0.70379571  1  0.638969  0.005311  3.812287  0.004  0.588984  0.00066  4.120282  0.0  0.623426  0.00099  4.11535  0.0  0.212434  0.564991  0.000374  4.124312  0.0
C  C63  1  0.10089873  0.76275877  0.29620217  1  0.639006  0.005323  3.812429  0.004  0.589065  0.00066  4.120378  0.0  0.623511  0.000992  4.115448  0.0  0.212469  0.565067  0.000375  4.12441  0.0
C  C64  1  0.58620375  0.26027202  0.80773139  1  0.055974  0.003486  3.620484  0.004  0.044593  0.000871  3.860383  0.002  0.044601  0.0014  3.87523  0.002  -0.00593  0.044613  0.000506  3.850327  0.001
C  C65  1  0.08620536  0.73972882  0.19227007  1  0.056045  0.003486  3.620399  0.004  0.044549  0.00088  3.860447  0.002  0.044558  0.001398  3.875304  0.002  -0.005885  0.044571  0.000507  3.850392  0.001
C  C66  1  0.47797185  0.16389836  0.84400678  1  -0.152771  -0.00353  3.666273  -0.004  -0.196155  -0.002505  3.921293  -0.002  -0.197594  -0.001733  3.934043  -0.002  -0.173194  -0.194883  -0.002887  3.912284  -0.003
C  C67  1  0.97797233  0.83610230  0.15599507  1  -0.152764  -0.003559  3.666459  -0.004  -0.196113  -0.002505  3.921465  -0.002  -0.197562  -0.001734  3.934229  -0.002  -0.173196  -0.194847  -0.002886  3.912457  -0.003
C  C68  1  0.47928865  0.17531152  0.94807773  1  -0.126626  -0.000228  3.673638  0.0  -0.165387  -0.000503  3.934026  0.0  -0.166506  -0.000398  3.948017  0.0  -0.171173  -0.164594  -0.000585  3.924231  0.0
C  C69  1  0.97928934  0.82468914  0.05192412  1  -0.126739  -0.000217  3.673758  0.0  -0.165444  -0.000504  3.93404  0.0  -0.16656  -0.000396  3.948032  0.0  -0.171164  -0.164638  -0.000586  3.924232  0.0
C  C70  1  0.38853211  0.06748857  0.98526618  1  0.06226  0.000184  3.639337  0.0  0.002546  9.4e-05  3.901075  0.0  0.007281  7.9e-05  3.912828  0.0  -0.067124  -0.000423  9.6e-05  3.892671  0.0
C  C71  1  0.88853282  0.93251412  0.01473930  1  0.062444  8.9e-05  3.639211  0.0  0.002754  9.7e-05  3.900902  0.0  0.007493  8e-05  3.91265  0.0  -0.067078  -0.000232  9.6e-05  3.89252  0.0
C  C72  1  0.47683278  0.86265682  0.04184467  1  0.739346  -7.8e-05  3.823265  0.0  0.670631  -6.6e-05  4.120934  0.0  0.701719  -4.8e-05  4.122064  0.0  0.363729  0.649962  -6.5e-05  4.118558  0.0
C  C73  1  0.97683430  0.13734483  0.95815727  1  0.739236  -9.9e-05  3.823368  0.0  0.670486  -6.8e-05  4.121068  0.0  0.701593  -4.9e-05  4.122177  0.0  0.363603  0.649789  -6.5e-05  4.118728  0.0
C  C74  1  0.68297263  0.77519337  0.79412431  1  0.636636  0.005923  3.808747  0.005  0.589848  0.001253  4.111846  0.001  0.62429  0.001464  4.106394  0.001  0.212954  0.566097  0.000975  4.116076  0.001
C  C75  1  0.18296995  0.22479949  0.20587432  1  0.636766  0.005925  3.808653  0.005  0.589917  0.001252  4.111793  0.001  0.624363  0.001462  4.106339  0.001  0.213037  0.566168  0.000972  4.116021  0.001
C  C76  1  0.76294836  0.74064141  0.70245571  1  0.052518  0.003042  3.626448  0.003  0.038087  0.000696  3.869272  0.001  0.038334  0.001301  3.884482  0.002  -0.00828  0.037842  0.000344  3.859257  0.001
C  C77  1  0.26294549  0.25935634  0.29753993  1  0.05257  0.003138  3.626341  0.003  0.038184  0.000693  3.86914  0.001  0.038436  0.001304  3.884353  0.002  -0.008242  0.037942  0.000343  3.859127  0.001
C  C78  1  0.77338828  0.86085061  0.65124098  1  -0.156978  -0.004015  3.669531  -0.004  -0.199034  -0.002762  3.92126  -0.003  -0.20046  -0.001896  3.933682  -0.002  -0.176312  -0.197581  -0.003065  3.912224  -0.003
C  C79  1  0.27338648  0.13914815  0.34875813  1  -0.156898  -0.004027  3.669421  -0.004  -0.199002  -0.002762  3.921205  -0.003  -0.20042  -0.001895  3.933612  -0.002  -0.176319  -0.197574  -0.003066  3.912181  -0.003
C  C80  1  0.81638859  0.82867550  0.55062302  1  -0.118821  -0.000595  3.665816  0.0  -0.154152  -0.000785  3.91864  -0.001  -0.155184  -0.000573  3.932513  0.0  -0.170661  -0.153161  -0.00085  3.908172  -0.001
C  C81  1  0.31638884  0.17132521  0.44937489  1  -0.118785  -0.000565  3.665867  0.0  -0.15409  -0.000785  3.918668  -0.001  -0.155125  -0.000574  3.932541  0.0  -0.170627  -0.153077  -0.00085  3.90818  -0.001
C  C82  1  0.88844373  0.94495105  0.51233722  1  0.058975  0.000241  3.647668  0.0  -0.002489  6.1e-05  3.911905  0.0  0.001921  4.9e-05  3.923842  0.0  -0.067402  -0.005191  3.5e-05  3.903589  0.0
C  C83  1  0.38844284  0.05505063  0.48766208  1  0.058853  0.000163  3.647695  0.0  -0.002543  6.1e-05  3.911903  0.0  0.001866  4.8e-05  3.923841  0.0  -0.067447  -0.005251  3.4e-05  3.903582  0.0
C  C84  1  0.78686502  0.14072243  0.45017919  1  0.73462  -3.9e-05  3.819491  0.0  0.667609  -5.9e-05  4.114727  0.0  0.698498  -3.9e-05  4.116244  0.0  0.362411  0.646951  -4.8e-05  4.112818  0.0
C  C85  1  0.28686816  0.85927729  0.54981662  1  0.73462  -3e-05  3.819581  0.0  0.667615  -5.9e-05  4.114853  0.0  0.698504  -3.8e-05  4.116368  0.0  0.362333  0.646955  -4.8e-05  4.112946  0.0
N  N86  1  0.55528558  0.40158818  0.83919493  1  -0.609557  -0.08168  3.177697  -0.104  -0.592872  -0.054178  3.446514  -0.071  -0.623967  -0.043459  3.449209  -0.062  -0.648441  -0.573871  -0.060105  3.445545  -0.075
N  N87  1  0.05528506  0.59841068  0.16080367  1  -0.609563  -0.08169  3.177603  -0.104  -0.592896  -0.054179  3.446439  -0.071  -0.624024  -0.043455  3.449145  -0.062  -0.648457  -0.5739  -0.060103  3.445469  -0.075
N  N88  1  0.46823274  0.94147676  0.97715440  1  -0.463129  0.000129  3.276109  0.0  -0.397216  6.1e-05  3.525041  0.0  -0.41864  7.4e-05  3.532331  0.0  -0.420741  -0.3827  5.7e-05  3.519483  0.0
N  N89  1  0.96823493  0.05852589  0.02284899  1  -0.463247  0.00017  3.276128  0.0  -0.397325  5.9e-05  3.525109  0.0  -0.418758  7.3e-05  3.532389  0.0  -0.420768  -0.382795  5.5e-05  3.519563  0.0
N  N90  1  0.56532907  0.75445715  0.02738022  1  -0.716456  -0.000334  3.061762  -0.001  -0.682062  -0.000327  3.307679  0.0  -0.702412  -0.000204  3.300646  0.0  -0.580111  -0.668286  -0.00042  3.31207  -0.001
N  N91  1  0.06533392  0.24554469  0.97262067  1  -0.716414  -0.000299  3.061731  0.0  -0.681931  -0.000328  3.307589  0.0  -0.702286  -0.000204  3.30055  0.0  -0.580031  -0.668146  -0.00042  3.31199  -0.001
N  N92  1  0.40119141  0.88693715  0.12135347  1  -0.706052  -0.000167  3.059767  0.0  -0.663861  -0.000159  3.297286  0.0  -0.68433  -8.4e-05  3.289643  0.0  -0.57664  -0.649946  -0.00022  3.302007  0.0
N  N93  1  0.90119646  0.11306058  0.87864951  1  -0.706038  -0.000153  3.059857  0.0  -0.66392  -0.000161  3.297326  0.0  -0.684397  -8.4e-05  3.289677  0.0  -0.576574  -0.649996  -0.00022  3.30206  0.0
N  N94  1  0.69123430  0.62122813  0.65244692  1  -0.612888  -0.081429  3.170682  -0.104  -0.596261  -0.053873  3.441713  -0.071  -0.627383  -0.0432  3.443592  -0.062  -0.645597  -0.577417  -0.059373  3.442327  -0.074
N  N95  1  0.19123465  0.37877066  0.34755158  1  -0.612929  -0.081443  3.170671  -0.104  -0.59632  -0.053872  3.44174  -0.071  -0.627475  -0.043196  3.443628  -0.062  -0.645623  -0.577477  -0.059369  3.44235  -0.074
N  N96  1  0.79019650  0.05960420  0.51366122  1  -0.459217  1.8e-05  3.266309  0.0  -0.390567  2.9e-05  3.510337  0.0  -0.411978  6.1e-05  3.518446  0.0  -0.418673  -0.376224  8e-06  3.504888  0.0
N  N97  1  0.29020084  0.94039355  0.48633643  1  -0.459167  1.1e-05  3.266307  0.0  -0.390647  3e-05  3.510468  0.0  -0.412058  6e-05  3.518574  0.0  -0.418673  -0.376301  8e-06  3.505023  0.0
N  N98  1  0.87039099  0.11864792  0.37318823  1  -0.701031  -5.2e-05  3.021471  0.0  -0.662512  -4.4e-05  3.25538  0.0  -0.682416  -1e-05  3.248411  0.0  -0.576857  -0.649017  -9e-05  3.260427  0.0
N  N99  1  0.37039173  0.88135277  0.62681167  1  -0.701038  -5.4e-05  3.021473  0.0  -0.662506  -4.3e-05  3.255379  0.0  -0.682413  -1.1e-05  3.248411  0.0  -0.576824  -0.649011  -9e-05  3.260424  0.0
N  N100  1  0.69744555  0.24805608  0.46281440  1  -0.71437  -0.000264  3.076413  0.0  -0.678388  -0.000262  3.321196  0.0  -0.698957  -0.000167  3.314032  0.0  -0.578187  -0.664642  -0.000351  3.326317  -0.001
N  N101  1  0.19745324  0.75194171  0.53718265  1  -0.714365  -0.000284  3.076439  0.0  -0.678384  -0.000261  3.321267  0.0  -0.698944  -0.000167  3.314101  0.0  -0.578097  -0.664637  -0.000351  3.326387  -0.001
Cl  Cl102  1  0.97541789  0.47500955  0.52958989  1  -0.442892  -6.8e-05  1.037653  0.0  -0.369507  0.000142  1.309161  0.0  -0.386815  0.000239  1.291571  0.0  -0.233927  -0.357568  -6.3e-05  1.322683  0.0
Cl  Cl103  1  0.47541459  0.52498813  0.47041033  1  -0.442906  -6.5e-05  1.037663  0.0  -0.369531  0.000142  1.309164  0.0  -0.386835  0.000238  1.291568  0.0  -0.23394  -0.357593  -6.3e-05  1.322687  0.0
Cl  Cl104  1  0.11775577  0.15191700  0.69906337  1  -0.457836  0.000127  0.998928  0.0  -0.390665  0.000212  1.264051  0.0  -0.407766  0.00014  1.246595  0.0  -0.250394  -0.378941  0.000167  1.277705  0.0
Cl  Cl105  1  0.61775598  0.84808182  0.30093450  1  -0.457821  0.000129  0.998895  0.0  -0.390641  0.000212  1.263983  0.0  -0.407748  0.00014  1.246538  0.0  -0.250383  -0.378916  0.000167  1.277635  0.0
Cl  Cl106  1  0.93495028  0.47844066  0.80887729  1  -0.54268  0.001957  1.050359  0.0  -0.494017  0.002341  1.362744  0.0  -0.514746  0.002576  1.338145  0.0  -0.290925  -0.477391  0.001933  1.378492  0.0
Cl  Cl107  1  0.43494861  0.52156100  0.19112334  1  -0.542658  0.001956  1.050342  0.0  -0.493985  0.00234  1.36273  0.0  -0.514732  0.002576  1.338138  0.0  -0.290906  -0.477361  0.001932  1.378482  0.0
Cl  Cl108  1  0.30793858  0.52792391  0.69298068  1  -0.551761  0.001912  1.056495  -0.001  -0.500744  0.002265  1.361552  0.0  -0.521654  0.002563  1.336483  0.0  -0.293064  -0.484596  0.001921  1.378292  0.0
Cl  Cl109  1  0.80794006  0.47207681  0.30701994  1  -0.55176  0.001909  1.056463  -0.001  -0.500736  0.002265  1.361528  0.0  -0.521663  0.002563  1.336462  0.0  -0.293062  -0.484586  0.001921  1.378266  0.0
Cl  Cl110  1  0.13492240  0.85338467  0.80347696  1  -0.451944  0.000146  0.991148  0.0  -0.381928  0.000219  1.255818  0.0  -0.39936  0.000141  1.239432  0.0  -0.250432  -0.369664  0.000168  1.267843  0.0
Cl  Cl111  1  0.63492760  0.14661515  0.19652505  1  -0.451906  0.000143  0.991194  0.0  -0.381878  0.000219  1.255857  0.0  -0.39931  0.000142  1.239471  0.0  -0.250399  -0.369615  0.000168  1.267882  0.0
Cl  Cl112  1  0.26735430  0.52466914  0.97176411  1  -0.448832  -0.000444  1.028745  -0.001  -0.375686  -0.000132  1.299226  0.0  -0.392569  4.1e-05  1.281338  0.0  -0.238145  -0.364388  -0.000447  1.312574  -0.001
Cl  Cl113  1  0.76735070  0.47533757  0.02823980  1  -0.448832  -0.000444  1.028706  -0.001  -0.37569  -0.000132  1.299187  0.0  -0.392573  4.2e-05  1.281298  0.0  -0.238142  -0.364395  -0.000447  1.31254  -0.001
O  O114  1  0.63307403  0.33798901  0.66298503  1  -0.605838  -0.073682  2.06031  -0.104  -0.571948  -0.053504  2.340102  -0.081  -0.612993  -0.041766  2.331548  -0.069  -0.33103  -0.545876  -0.060577  2.347468  -0.087
O  O115  1  0.13307652  0.66201080  0.33701292  1  -0.60587  -0.073693  2.060281  -0.104  -0.571989  -0.05351  2.340071  -0.081  -0.61306  -0.041768  2.331516  -0.069  -0.331075  -0.545921  -0.060583  2.347441  -0.087
O  O116  1  0.58997740  0.12199445  0.66199975  1  -0.595013  -0.01603  2.02458  -0.021  -0.541419  -0.00887  2.246026  -0.013  -0.5678  -0.004527  2.239583  -0.007  -0.299246  -0.522028  -0.013436  2.250365  -0.018
O  O117  1  0.08997755  0.87800339  0.33799805  1  -0.595074  -0.016028  2.024697  -0.021  -0.541455  -0.008871  2.24609  -0.013  -0.567839  -0.004527  2.239647  -0.007  -0.299256  -0.522053  -0.013437  2.250435  -0.018
O  O118  1  0.61309812  0.68063849  0.82655310  1  -0.607901  -0.073992  2.057288  -0.105  -0.572228  -0.054144  2.3311  -0.082  -0.61298  -0.042358  2.322547  -0.07  -0.332423  -0.54646  -0.061284  2.338213  -0.088
O  O119  1  0.11309097  0.31935141  0.17344328  1  -0.607999  -0.073975  2.057252  -0.105  -0.572267  -0.054142  2.331074  -0.082  -0.613047  -0.042355  2.32252  -0.07  -0.332476  -0.5465  -0.061281  2.338186  -0.088
O  O120  1  0.68728111  0.89114200  0.83562446  1  -0.591068  -0.01204  2.002909  -0.016  -0.535046  -0.007065  2.219817  -0.01  -0.56085  -0.003679  2.213288  -0.006  -0.296229  -0.516078  -0.011146  2.223759  -0.015
O  O121  1  0.18728080  0.10885186  0.16437697  1  -0.591127  -0.012063  2.002907  -0.016  -0.535062  -0.007064  2.219786  -0.01  -0.560863  -0.003679  2.213249  -0.006  -0.296248  -0.516096  -0.011142  2.223727  -0.015
