# generated using pymatgen
data_NiH30C28(NO4)2
_symmetry_space_group_name_H-M   'P 1'
_cell_length_a   10.32054688
_cell_length_b   10.98038755
_cell_length_c   12.82139576
_cell_angle_alpha   111.80872149
_cell_angle_beta   90.00117158
_cell_angle_gamma   90.00041148
_symmetry_Int_Tables_number   1
_chemical_formula_structural   NiH30C28(NO4)2
_chemical_formula_sum   'Ni2 H60 C56 N4 O16'
_cell_volume   1348.97691342
_cell_formula_units_Z   2
loop_
 _symmetry_equiv_pos_site_id
 _symmetry_equiv_pos_as_xyz
  1  'x, y, z'
loop_
 _atom_site_type_symbol
 _atom_site_label
 _atom_site_symmetry_multiplicity
 _atom_site_fract_x
 _atom_site_fract_y
 _atom_site_fract_z
 _atom_site_occupancy
 _atom_site_hle17_ddec_charge
 _atom_site_hle17_ddec_spin_density
 _atom_site_hle17_ddec_sum_bond_order
 _atom_site_hle17_magmom
 _atom_site_hse06_10hf_ddec_charge
 _atom_site_hse06_10hf_ddec_spin_density
 _atom_site_hse06_10hf_ddec_sum_bond_order
 _atom_site_hse06_10hf_magmom
 _atom_site_hse06_ddec_charge
 _atom_site_hse06_ddec_spin_density
 _atom_site_hse06_ddec_sum_bond_order
 _atom_site_hse06_magmom
 _atom_site_pbe_cm5_charge
 _atom_site_pbe_ddec_charge
 _atom_site_pbe_ddec_spin_density
 _atom_site_pbe_ddec_sum_bond_order
 _atom_site_pbe_magmom
Ni  Ni0  1  0.99999842  0.49999837  0.99999478  1  0.61367  0.009985  2.199324  0.006  0.607982  -0.005867  2.636837  -0.003  0.740365  -0.009834  2.528967  -0.005  0.582502  0.522012  -0.000229  2.710072  -0.001
Ni  Ni1  1  0.50000205  0.99999797  0.50000141  1  0.613547  -0.00998  2.199224  -0.006  0.607809  0.005867  2.636766  0.003  0.740186  0.009855  2.528848  0.005  0.582498  0.52191  -0.000228  2.710041  -0.001
H  H2  1  0.15721564  0.14362119  0.12002972  1  0.106185  7.7e-05  0.971905  0.0  0.11679  0.00012  1.032939  0.0  0.118542  0.000115  1.034176  0.0  0.109378  0.115594  8.9e-05  1.032044  0.0
H  H3  1  0.65721456  0.35638272  0.37997766  1  0.106213  -7.7e-05  0.97189  0.0  0.116824  -0.00012  1.032917  0.0  0.118577  -0.000116  1.034152  0.0  0.109372  0.115628  8.9e-05  1.032021  0.0
H  H4  1  0.84277596  0.85637966  0.87996673  1  0.106132  7.5e-05  0.971829  0.0  0.116706  0.00012  1.032921  0.0  0.118451  0.000116  1.034155  0.0  0.109336  0.115516  8.9e-05  1.032029  0.0
H  H5  1  0.34278769  0.64361898  0.62003466  1  0.106187  -7.7e-05  0.971827  0.0  0.116777  -0.00012  1.032881  0.0  0.118529  -0.000116  1.03411  0.0  0.109383  0.115582  8.9e-05  1.031985  0.0
H  H6  1  0.84956792  0.03613375  0.87111165  1  0.111481  8.8e-05  0.966519  0.0  0.118119  0.000137  1.034745  0.0  0.121413  0.000132  1.033236  0.0  0.110121  0.11578  0.000102  1.035897  0.0
H  H7  1  0.34957843  0.46386198  0.62889107  1  0.11158  -8.7e-05  0.966432  0.0  0.118222  -0.000137  1.034644  0.0  0.121512  -0.000132  1.033135  0.0  0.110164  0.115883  0.000102  1.035791  0.0
H  H8  1  0.15042076  0.96386512  0.12888571  1  0.111495  8.7e-05  0.96658  0.0  0.118142  0.000137  1.034779  0.0  0.121434  0.000132  1.033273  0.0  0.11014  0.115804  0.000102  1.035932  0.0
H  H9  1  0.65041607  0.53613090  0.37111684  1  0.111493  -8.8e-05  0.966642  0.0  0.11814  -0.000137  1.034837  0.0  0.121434  -0.000132  1.033329  0.0  0.110124  0.115802  0.000102  1.035987  0.0
H  H10  1  0.85706650  0.26110894  0.87594359  1  0.112338  0.000277  0.929514  0.0  0.116928  0.000433  0.993199  0.001  0.118972  0.000465  0.990884  0.001  0.129412  0.115255  0.000281  0.99528  0.0
H  H11  1  0.35707130  0.23888205  0.62405071  1  0.112263  -0.000277  0.929616  0.0  0.116874  -0.000433  0.993279  -0.001  0.118915  -0.000465  0.990969  -0.001  0.129389  0.115202  0.000281  0.995359  0.0
H  H12  1  0.14292897  0.73888605  0.12404628  1  0.112305  0.000278  0.92953  0.0  0.116897  0.000433  0.993201  0.001  0.118943  0.000465  0.990881  0.001  0.129394  0.115223  0.000281  0.995285  0.0
H  H13  1  0.64293289  0.76110987  0.37595455  1  0.112357  -0.000277  0.929469  0.0  0.116898  -0.000433  0.993196  -0.001  0.118941  -0.000465  0.990883  -0.001  0.129423  0.115225  0.000281  0.995278  0.0
H  H14  1  0.15187944  0.36455255  0.11209061  1  0.093109  0.000288  0.941128  0.0  0.098471  0.000452  1.007511  0.001  0.100462  0.000492  1.004933  0.001  0.124351  0.096903  0.000288  1.009557  0.0
H  H15  1  0.65188562  0.13545226  0.38791542  1  0.09316  -0.000286  0.941064  0.0  0.098517  -0.000452  1.007433  -0.001  0.100506  -0.000492  1.004862  -0.001  0.124393  0.096956  0.000288  1.009472  0.0
H  H16  1  0.84811215  0.63544929  0.88790460  1  0.093082  0.000288  0.941048  0.0  0.098381  0.000452  1.007483  0.001  0.10037  0.000493  1.004908  0.001  0.124328  0.096823  0.000288  1.009522  0.0
H  H17  1  0.34812244  0.86454847  0.61209502  1  0.093135  -0.000286  0.941133  0.0  0.098472  -0.000452  1.007521  -0.001  0.100463  -0.000492  1.004941  -0.001  0.124353  0.0969  0.000288  1.009584  0.0
H  H18  1  0.12864922  0.57273551  0.67065803  1  0.096778  -3e-06  0.990285  0.0  0.104256  -1.2e-05  1.062167  0.0  0.107636  -1e-05  1.060171  0.0  0.098312  0.101755  1.5e-05  1.063917  0.0
H  H19  1  0.62864546  0.92726453  0.82934576  1  0.09676  4e-06  0.99033  0.0  0.104226  1.2e-05  1.062225  0.0  0.107606  1e-05  1.060231  0.0  0.098291  0.101728  1.5e-05  1.063965  0.0
H  H20  1  0.87135497  0.42727022  0.32934311  1  0.096781  -4e-06  0.990243  0.0  0.104248  -1.2e-05  1.062148  0.0  0.107633  -1e-05  1.060141  0.0  0.09829  0.101745  1.5e-05  1.063898  0.0
H  H21  1  0.37135486  0.07273329  0.17066063  1  0.096757  5e-06  0.990259  0.0  0.104239  1.2e-05  1.062154  0.0  0.10763  1.1e-05  1.060139  0.0  0.098286  0.101742  1.5e-05  1.06389  0.0
H  H22  1  0.71666200  0.57768112  0.61954843  1  0.100112  7e-06  0.974826  0.0  0.110029  2e-06  1.038336  0.0  0.112817  5e-06  1.03783  0.0  0.097031  0.107942  3e-06  1.039118  0.0
H  H23  1  0.21665726  0.92232041  0.88044870  1  0.100111  -7e-06  0.974858  0.0  0.110052  -2e-06  1.038345  0.0  0.112843  -4e-06  1.037836  0.0  0.097061  0.107945  3e-06  1.039148  0.0
H  H24  1  0.28334219  0.42232364  0.38045084  1  0.100074  5e-06  0.974864  0.0  0.110003  2e-06  1.038363  0.0  0.112797  5e-06  1.037848  0.0  0.097024  0.107896  3e-06  1.039167  0.0
H  H25  1  0.78334015  0.07768041  0.11955086  1  0.100026  -5e-06  0.974936  0.0  0.109959  -2e-06  1.038427  0.0  0.112744  -4e-06  1.037924  0.0  0.097022  0.107871  2e-06  1.03921  0.0
H  H26  1  0.14297218  0.80226016  0.68468448  1  0.075232  -5e-06  0.970113  0.0  0.089068  -1.2e-05  1.02882  0.0  0.091125  -1.1e-05  1.028126  0.0  0.094009  0.087583  8e-06  1.029403  0.0
H  H27  1  0.64296051  0.69774008  0.81532272  1  0.075294  5e-06  0.969952  0.0  0.089113  1.3e-05  1.02867  0.0  0.09117  1.1e-05  1.027974  0.0  0.094048  0.087625  8e-06  1.029255  0.0
H  H28  1  0.85703201  0.19774557  0.31531588  1  0.07531  -4e-06  0.969852  0.0  0.089058  -1.2e-05  1.028672  0.0  0.091118  -1.1e-05  1.027971  0.0  0.094008  0.087571  8e-06  1.029257  0.0
H  H29  1  0.35703496  0.30225772  0.18468522  1  0.075339  4e-06  0.96989  0.0  0.089107  1.3e-05  1.028665  0.0  0.091163  1.2e-05  1.02797  0.0  0.094052  0.08762  8e-06  1.02925  0.0
H  H30  1  0.92922948  0.18485384  0.52765298  1  0.093692  2e-06  0.984369  0.0  0.114019  7e-06  1.050899  0.0  0.114326  6e-06  1.051714  0.0  0.088965  0.114089  -2e-06  1.049817  0.0
H  H31  1  0.42923595  0.31514816  0.97234294  1  0.09375  -3e-06  0.98433  0.0  0.114113  -7e-06  1.05083  0.0  0.114417  -6e-06  1.051645  0.0  0.089005  0.114191  -2e-06  1.049735  0.0
H  H32  1  0.07076696  0.81514703  0.47234035  1  0.093707  2e-06  0.984452  0.0  0.114094  7e-06  1.050904  0.0  0.114398  6e-06  1.051721  0.0  0.088999  0.114177  -2e-06  1.049807  0.0
H  H33  1  0.57076049  0.68485564  0.02765290  1  0.093717  -3e-06  0.984395  0.0  0.114079  -7e-06  1.050897  0.0  0.114384  -7e-06  1.051713  0.0  0.088992  0.114153  -2e-06  1.049807  0.0
H  H34  1  0.88338112  0.21596945  0.67047039  1  0.122281  -9e-06  0.94847  0.0  0.140231  -1e-05  1.011892  0.0  0.142372  -8e-06  1.010714  0.0  0.094703  0.138743  -2.6e-05  1.012738  0.0
H  H35  1  0.38338374  0.28403183  0.82952220  1  0.122249  7e-06  0.948581  0.0  0.140214  1e-05  1.012002  0.0  0.142356  1e-05  1.010824  0.0  0.094677  0.138705  -2.7e-05  1.012878  0.0
H  H36  1  0.11662016  0.78403043  0.32952340  1  0.122233  -9e-06  0.948543  0.0  0.140205  -1e-05  1.011963  0.0  0.142347  -9e-06  1.010784  0.0  0.094669  0.138716  -2.6e-05  1.012812  0.0
H  H37  1  0.61661755  0.71596216  0.17047046  1  0.122315  9e-06  0.948556  0.0  0.14029  1e-05  1.011962  0.0  0.142432  9e-06  1.010783  0.0  0.094708  0.138795  -2.6e-05  1.012819  0.0
H  H38  1  0.04281433  0.15596473  0.61946914  1  0.125485  0.0  0.944547  0.0  0.149973  7e-06  0.997884  0.0  0.150413  6e-06  0.998366  0.0  0.096635  0.149812  -1.3e-05  0.997343  0.0
H  H39  1  0.54281899  0.34403195  0.88052497  1  0.125468  -2e-06  0.944526  0.0  0.149974  -7e-06  0.99785  0.0  0.150414  -6e-06  0.998333  0.0  0.096611  0.149807  -1.3e-05  0.997313  0.0
H  H40  1  0.95718695  0.84403520  0.38051920  1  0.125539  0.0  0.944484  0.0  0.150021  7e-06  0.997838  0.0  0.150462  6e-06  0.998318  0.0  0.096639  0.149853  -1.3e-05  0.997303  0.0
H  H41  1  0.45718035  0.65596399  0.11946989  1  0.125471  -1e-06  0.944535  0.0  0.149994  -7e-06  0.997844  0.0  0.150435  -8e-06  0.998325  0.0  0.096625  0.149825  -1.3e-05  0.997311  0.0
H  H42  1  0.08828226  0.36288105  0.58792335  1  0.057003  -0.000116  0.926702  0.0  0.064315  -0.000183  0.989215  0.0  0.063575  -0.000178  0.991291  0.0  0.107486  0.065196  -0.000122  0.987435  0.0
H  H43  1  0.58828616  0.13712032  0.91206834  1  0.057006  0.000116  0.926633  0.0  0.06434  0.000183  0.989092  0.0  0.063601  0.000178  0.991167  0.0  0.107478  0.065221  -0.000122  0.98731  0.0
H  H44  1  0.91171805  0.63711887  0.41206577  1  0.05705  -0.000116  0.926685  0.0  0.064391  -0.000183  0.989129  0.0  0.063652  -0.000179  0.991206  0.0  0.107513  0.065274  -0.000122  0.987346  0.0
H  H45  1  0.41171125  0.86288241  0.08793730  1  0.057039  0.000117  0.926629  0.0  0.064382  0.000183  0.989068  0.0  0.063643  0.000178  0.991144  0.0  0.107502  0.065263  -0.000122  0.987286  0.0
H  H46  1  0.94479422  0.92271434  0.66368156  1  0.091317  1.2e-05  0.956524  0.0  0.104517  2.3e-05  1.01281  0.0  0.107241  2.2e-05  1.01197  0.0  0.098851  0.102562  -1.3e-05  1.013499  0.0
H  H47  1  0.44478090  0.57728887  0.83632531  1  0.091264  -1.1e-05  0.956624  0.0  0.104544  -2.3e-05  1.012819  0.0  0.107273  -2.1e-05  1.011975  0.0  0.098827  0.102585  -1.3e-05  1.013508  0.0
H  H48  1  0.05521094  0.07729041  0.33631771  1  0.091268  1e-05  0.956632  0.0  0.104507  2.3e-05  1.012881  0.0  0.107231  2.1e-05  1.012036  0.0  0.098852  0.102551  -1.3e-05  1.01357  0.0
H  H49  1  0.55521457  0.42271285  0.16368389  1  0.091251  -1e-05  0.956633  0.0  0.104488  -2.3e-05  1.012884  0.0  0.107207  -2.1e-05  1.012044  0.0  0.09884  0.10253  -1.3e-05  1.013572  0.0
H  H50  1  0.73189091  0.81005723  0.63192502  1  0.093224  5e-06  0.958052  0.0  0.105041  1e-05  1.015558  0.0  0.106485  1.1e-05  1.016612  0.0  0.099957  0.103846  -6e-06  1.01524  0.0
H  H51  1  0.23188022  0.68994550  0.86807587  1  0.093154  -6e-06  0.958003  0.0  0.104981  -1e-05  1.015507  0.0  0.10642  -1.1e-05  1.016554  0.0  0.099946  0.103789  -6e-06  1.015183  0.0
H  H52  1  0.26811328  0.18994948  0.36807566  1  0.093169  7e-06  0.958138  0.0  0.105004  1e-05  1.01562  0.0  0.106429  1.2e-05  1.016693  0.0  0.09992  0.103813  -6e-06  1.015298  0.0
H  H53  1  0.76811621  0.31005626  0.13192945  1  0.093136  -8e-06  0.958108  0.0  0.104959  -1e-05  1.01561  0.0  0.106393  -1e-05  1.016671  0.0  0.099915  0.103765  -6e-06  1.015289  0.0
H  H54  1  0.32044326  0.46715195  0.01130625  1  0.381497  -1.4e-05  0.896179  0.0  0.368276  -2.5e-05  0.953027  0.0  0.376969  -2.2e-05  0.940191  0.0  0.289979  0.362218  -1.5e-05  0.961604  0.0
H  H55  1  0.82044638  0.03284681  0.48869434  1  0.381479  1.4e-05  0.896128  0.0  0.368232  2.5e-05  0.95306  0.0  0.376937  2.2e-05  0.940213  0.0  0.289977  0.36218  -1.5e-05  0.961573  0.0
H  H56  1  0.67955608  0.53284694  0.98868878  1  0.381498  -1.4e-05  0.896143  0.0  0.368253  -2.5e-05  0.953052  0.0  0.37695  -2.2e-05  0.940213  0.0  0.289967  0.362196  -1.5e-05  0.961611  0.0
H  H57  1  0.17955781  0.96715789  0.51131193  1  0.381496  1.4e-05  0.896145  0.0  0.368223  2.5e-05  0.95309  0.0  0.376932  2.1e-05  0.94024  0.0  0.28996  0.362172  -1.5e-05  0.961637  0.0
H  H58  1  0.24307815  0.49156146  0.91733885  1  0.397042  -8e-06  0.920746  0.0  0.363094  -2.8e-05  0.993651  0.0  0.374043  -1.6e-05  0.977373  0.0  0.272222  0.355211  -2e-05  1.005461  0.0
H  H59  1  0.74307271  0.00843752  0.58265460  1  0.396964  7e-06  0.920891  0.0  0.362993  2.8e-05  0.993835  0.0  0.373944  1.6e-05  0.977552  0.0  0.272131  0.355109  -2e-05  1.005648  0.0
H  H60  1  0.75692410  0.50843157  0.08265116  1  0.397091  -8e-06  0.920733  0.0  0.363132  -2.8e-05  0.993652  0.0  0.374082  -1.6e-05  0.977371  0.0  0.272161  0.35525  -2e-05  1.00546  0.0
H  H61  1  0.25692955  0.99156523  0.41735026  1  0.39703  8e-06  0.920809  0.0  0.363086  2.8e-05  0.99372  0.0  0.374039  1.5e-05  0.977436  0.0  0.272174  0.355204  -2e-05  1.005532  0.0
C  C62  1  0.08943078  0.16244820  0.06296878  1  -0.137406  0.001155  3.692892  0.001  -0.157301  0.000882  3.939332  0.001  -0.16471  0.001072  3.960609  0.001  -0.073995  -0.152454  0.000538  3.925025  0.001
C  C63  1  0.58943393  0.33755362  0.43703682  1  -0.137398  -0.001155  3.692828  -0.001  -0.157319  -0.000882  3.939253  -0.001  -0.164731  -0.001069  3.960537  -0.001  -0.073951  -0.152469  0.000538  3.92495  0.001
C  C64  1  0.91055984  0.83755263  0.93702844  1  -0.137337  0.001182  3.692739  0.001  -0.157164  0.000882  3.939269  0.001  -0.164559  0.001068  3.96054  0.001  -0.073908  -0.152326  0.000538  3.924969  0.001
C  C65  1  0.41056833  0.66244416  0.56297346  1  -0.137396  -0.00114  3.692658  -0.001  -0.157177  -0.000882  3.939194  -0.001  -0.164581  -0.001071  3.960475  -0.001  -0.073949  -0.15233  0.000538  3.924887  0.001
C  C66  1  0.91976962  0.10299564  0.92664572  1  -0.146274  0.001263  3.683069  0.001  -0.165524  0.000986  3.930941  0.001  -0.173167  0.001172  3.950653  0.001  -0.072717  -0.160646  0.000619  3.917885  0.001
C  C67  1  0.41977821  0.39699928  0.57335555  1  -0.146539  -0.001267  3.682979  -0.001  -0.165796  -0.000986  3.930879  -0.001  -0.173433  -0.001173  3.950587  -0.001  -0.072807  -0.160911  0.000619  3.91782  0.001
C  C68  1  0.08022197  0.89700519  0.07335228  1  -0.146313  0.001289  3.682839  0.001  -0.165514  0.000986  3.930764  0.001  -0.173153  0.001172  3.950475  0.001  -0.072707  -0.160635  0.000619  3.917707  0.001
C  C69  1  0.58022114  0.60299363  0.42664924  1  -0.146388  -0.001254  3.682816  -0.001  -0.165541  -0.000986  3.930723  -0.001  -0.173181  -0.001174  3.950437  -0.001  -0.07269  -0.160664  0.00062  3.917671  0.001
C  C70  1  0.92321663  0.22971872  0.92708280  1  0.139985  -0.000787  3.627713  -0.001  0.113087  0.000141  3.876398  0.0  0.123425  -0.000182  3.896699  0.0  0.060455  0.105474  0.00023  3.863504  0.0
C  C71  1  0.42322327  0.27027430  0.57291636  1  0.140169  0.000789  3.627699  0.001  0.113243  -0.000141  3.876401  0.0  0.123585  0.000182  3.896695  0.0  0.060552  0.105631  0.000231  3.863516  0.0
C  C72  1  0.07677594  0.77028018  0.07290990  1  0.139981  -0.00081  3.627873  -0.001  0.113109  0.000141  3.876506  0.0  0.123449  -0.000181  3.896805  0.0  0.060492  0.105499  0.000231  3.863608  0.0
C  C73  1  0.57677607  0.72971760  0.42709123  1  0.139912  0.000779  3.627967  0.001  0.113101  -0.000141  3.876541  0.0  0.123436  0.00018  3.896845  0.0  0.060445  0.105494  0.000231  3.863652  0.0
C  C74  1  0.06504757  0.41233795  0.76630084  1  0.608039  0.000652  3.840503  0.001  0.563831  -7.4e-05  4.150652  0.001  0.601119  -6.6e-05  4.147308  0.001  0.211826  0.53811  -2.8e-05  4.151839  0.001
C  C75  1  0.56503785  0.08766302  0.73369347  1  0.608029  -0.000657  3.84037  -0.001  0.563679  7.5e-05  4.150701  -0.001  0.600968  4.4e-05  4.147359  -0.001  0.211734  0.53796  -2.9e-05  4.151898  0.001
C  C76  1  0.93495468  0.58766098  0.23368875  1  0.608462  0.000653  3.839889  0.001  0.563891  -7.4e-05  4.150573  0.001  0.601181  -6e-05  4.147227  0.001  0.211829  0.538171  -2.8e-05  4.151756  0.001
C  C77  1  0.43496344  0.91233481  0.26631136  1  0.607963  -0.000655  3.840448  -0.001  0.563515  7.5e-05  4.150946  -0.001  0.600802  4.2e-05  4.147609  -0.001  0.21164  0.537797  -2.9e-05  4.152141  0.001
C  C78  1  0.08821713  0.28718300  0.05932742  1  0.125021  -0.000926  3.668565  -0.001  0.094441  4.7e-05  3.925436  0.0  0.104801  -0.000222  3.946071  0.0  0.052801  0.08686  0.000113  3.912284  0.0
C  C79  1  0.58822232  0.21281782  0.44067861  1  0.124936  0.00092  3.668528  0.001  0.094397  -4.7e-05  3.925371  0.0  0.104753  0.00022  3.946004  0.0  0.052731  0.086813  0.000113  3.912237  0.0
C  C80  1  0.91177544  0.71281491  0.94066652  1  0.125092  -0.000947  3.668343  -0.001  0.094588  4.7e-05  3.925191  0.0  0.104948  -0.000224  3.945822  0.0  0.052806  0.086998  0.000113  3.912053  0.0
C  C81  1  0.41178090  0.78718192  0.55933307  1  0.124942  0.00091  3.668353  0.001  0.094392  -4.7e-05  3.925211  0.0  0.104751  0.000217  3.945844  0.0  0.052779  0.086813  0.000113  3.912067  0.0
C  C82  1  0.92071343  0.56026988  0.64308827  1  0.272814  8e-06  3.826155  0.0  0.264285  -3.2e-05  4.086762  0.0  0.276155  -2.9e-05  4.102129  0.0  0.078617  0.255876  -4e-06  4.076523  0.0
C  C83  1  0.42070920  0.93973201  0.85691232  1  0.272754  9e-06  3.826228  0.0  0.264244  3.2e-05  4.08683  0.0  0.276112  2.8e-05  4.102199  0.0  0.078523  0.255835  -3e-06  4.076591  0.0
C  C84  1  0.07929366  0.43973587  0.35690976  1  0.272709  -2.9e-05  3.826029  0.0  0.264118  -3.2e-05  4.086737  0.0  0.275985  -3.1e-05  4.102107  0.0  0.078448  0.25571  -3e-06  4.076496  0.0
C  C85  1  0.57929208  0.06026681  0.14309205  1  0.272678  3.3e-05  3.826081  0.0  0.264063  3.3e-05  4.0868  0.0  0.27593  2.1e-05  4.102169  0.0  0.078419  0.255652  -4e-06  4.076564  0.0
C  C86  1  0.00246918  0.06642436  0.99704109  1  0.087543  -0.000856  3.735031  -0.001  0.099582  -0.000365  3.964503  0.0  0.104584  -0.000572  3.983976  0.0  0.014479  0.096218  -0.000178  3.951605  0.0
C  C87  1  0.50247462  0.43357453  0.50296321  1  0.087592  0.000861  3.735065  0.001  0.099692  0.000366  3.96455  0.0  0.104694  0.000571  3.984029  0.0  0.014463  0.096326  -0.000178  3.951654  0.0
C  C88  1  0.99751951  0.93357158  0.00295455  1  0.08772  -0.00088  3.734837  -0.001  0.099517  -0.000366  3.964549  0.0  0.104513  -0.000569  3.98403  0.0  0.01443  0.096152  -0.000178  3.95165  0.0
C  C89  1  0.49752182  0.56642424  0.49704738  1  0.087868  0.000846  3.734587  0.001  0.099514  0.000366  3.964477  0.0  0.104506  0.000577  3.983969  0.0  0.014479  0.096152  -0.000178  3.951583  0.0
C  C90  1  0.04137775  0.62341694  0.66141859  1  -0.210223  -1.1e-05  3.758667  0.0  -0.231472  -9e-06  4.012854  0.0  -0.237578  -1.2e-05  4.033071  0.0  -0.115649  -0.227598  2.8e-05  3.999947  0.0
C  C91  1  0.54137385  0.87658363  0.83858550  1  -0.210208  -7e-06  3.758716  0.0  -0.231449  9e-06  4.012881  0.0  -0.237555  1e-05  4.033101  0.0  -0.115581  -0.227572  2.6e-05  3.999974  0.0
C  C92  1  0.95862741  0.37658781  0.33858068  1  -0.210236  2.6e-05  3.758589  0.0  -0.231447  -9e-06  4.012736  0.0  -0.237553  -1.3e-05  4.032956  0.0  -0.115553  -0.22757  2.7e-05  3.999828  0.0
C  C93  1  0.45862744  0.12341614  0.16142230  1  -0.210127  -3.3e-05  3.758549  0.0  -0.231363  9e-06  4.012696  0.0  -0.237473  1.3e-05  4.032921  0.0  -0.115526  -0.227485  2.8e-05  3.999794  0.0
C  C94  1  0.80930474  0.62866916  0.63331861  1  -0.202598  -3.7e-05  3.762843  0.0  -0.222577  4e-06  4.016026  0.0  -0.228224  6e-06  4.035225  0.0  -0.112035  -0.218682  7e-06  4.003352  0.0
C  C95  1  0.30929927  0.87133288  0.86668098  1  -0.202613  1.6e-05  3.762904  0.0  -0.222611  -5e-06  4.016071  0.0  -0.228263  -9e-06  4.035264  0.0  -0.112072  -0.218698  6e-06  4.003409  0.0
C  C96  1  0.19069945  0.37133658  0.36668019  1  -0.202525  1.1e-05  3.762785  0.0  -0.22248  4e-06  4.015966  0.0  -0.228132  8e-06  4.035159  0.0  -0.111999  -0.218566  7e-06  4.003304  0.0
C  C97  1  0.69070007  0.12866791  0.13332247  1  -0.202493  -1.3e-05  3.762816  0.0  -0.222446  -5e-06  4.015994  0.0  -0.228095  -4e-06  4.035193  0.0  -0.111984  -0.21855  7e-06  4.003321  0.0
C  C98  1  0.04881109  0.75372169  0.66934198  1  -0.049339  1.2e-05  3.804125  0.0  -0.061717  -4.4e-05  4.053505  0.0  -0.060808  -3.9e-05  4.074803  0.0  -0.098026  -0.061851  -1.1e-05  4.038847  0.0
C  C99  1  0.54879921  0.74627899  0.83066382  1  -0.049368  6e-06  3.804032  0.0  -0.061727  4.4e-05  4.053417  0.0  -0.060819  4e-05  4.074719  0.0  -0.098059  -0.061864  -1e-05  4.038759  0.0
C  C100  1  0.95119697  0.24628306  0.33065884  1  -0.04921  -2.7e-05  3.803869  0.0  -0.061503  -4.4e-05  4.053211  0.0  -0.060594  -3.7e-05  4.07451  0.0  -0.097922  -0.061638  -1.1e-05  4.038554  0.0
C  C101  1  0.45119819  0.25372176  0.16934429  1  -0.049378  3.4e-05  3.803897  0.0  -0.061686  4.3e-05  4.053264  0.0  -0.060777  4.3e-05  4.074563  0.0  -0.098032  -0.061823  -1.1e-05  4.038611  0.0
C  C102  1  0.96297505  0.21963080  0.61502768  1  -0.336957  3.9e-05  3.691856  0.0  -0.423822  1.7e-05  3.93389  0.0  -0.424896  1.3e-05  3.942371  0.0  -0.245964  -0.422828  -5.2e-05  3.92752  0.0
C  C103  1  0.46297420  0.28036783  0.88496615  1  -0.336934  -3.1e-05  3.692085  0.0  -0.423863  -1.8e-05  3.934055  0.0  -0.424933  -2.3e-05  3.942543  0.0  -0.245967  -0.422863  -5.2e-05  3.927687  0.0
C  C104  1  0.03702623  0.78037008  0.38496410  1  -0.336975  4.1e-05  3.69211  0.0  -0.423912  1.7e-05  3.934112  0.0  -0.424979  1.5e-05  3.942593  0.0  -0.246002  -0.422934  -5.2e-05  3.927752  0.0
C  C105  1  0.53702418  0.71962810  0.11502949  1  -0.336982  -3.5e-05  3.692041  0.0  -0.423954  -1.7e-05  3.934048  0.0  -0.425024  -1.8e-05  3.942533  0.0  -0.245997  -0.422959  -5.3e-05  3.927676  0.0
C  C106  1  0.01065822  0.35923925  0.64558828  1  0.121546  -0.000693  3.611211  -0.001  0.103598  -0.00062  3.857134  0.0  0.105195  -0.000639  3.866379  0.0  0.005956  0.102795  -0.000407  3.850259  0.0
C  C107  1  0.51065777  0.14075987  0.85440375  1  0.121418  0.000693  3.61126  0.001  0.10354  0.000619  3.85718  0.0  0.10513  0.000652  3.866431  0.0  0.00598  0.102735  -0.000407  3.850303  0.0
C  C108  1  0.98934403  0.64076260  0.35440537  1  0.121272  -0.000693  3.611333  -0.001  0.103447  -0.000619  3.857298  0.0  0.105035  -0.000648  3.866549  0.0  0.005957  0.102643  -0.000407  3.850418  0.0
C  C109  1  0.48934254  0.85923898  0.14559672  1  0.121394  0.00069  3.61126  0.001  0.103524  0.000618  3.857199  0.0  0.105111  0.000652  3.866454  0.0  0.00597  0.102719  -0.000407  3.850323  0.0
C  C110  1  0.93859837  0.82181382  0.65903901  1  -0.110304  -2.7e-05  3.799358  0.0  -0.126686  2e-06  4.052214  0.0  -0.130949  2e-06  4.073914  0.0  -0.108017  -0.123892  -3.5e-05  4.037279  0.0
C  C111  1  0.43858497  0.67818832  0.84096663  1  -0.110206  8e-06  3.799259  0.0  -0.126649  -2e-06  4.052074  0.0  -0.130919  -3e-06  4.073778  0.0  -0.107942  -0.123856  -3.6e-05  4.037137  0.0
C  C112  1  0.06140776  0.17819193  0.34095902  1  -0.110294  1.2e-05  3.799373  0.0  -0.126707  2e-06  4.052219  0.0  -0.130967  3e-06  4.073913  0.0  -0.108031  -0.123912  -3.6e-05  4.037283  0.0
C  C113  1  0.56141244  0.32181341  0.15904258  1  -0.110294  -2e-05  3.799374  0.0  -0.126714  -2e-06  4.052238  0.0  -0.130971  -1e-05  4.073927  0.0  -0.108026  -0.123919  -3.4e-05  4.037301  0.0
C  C114  1  0.81848798  0.75803783  0.64073355  1  -0.05041  5e-05  3.790407  0.0  -0.061504  1.5e-05  4.038969  0.0  -0.060592  1.5e-05  4.060131  0.0  -0.094465  -0.061725  -1.4e-05  4.024585  0.0
C  C115  1  0.31847746  0.74196531  0.85926967  1  -0.050359  -2.9e-05  3.790111  0.0  -0.061465  -1.5e-05  4.038746  0.0  -0.06054  -1.5e-05  4.059894  0.0  -0.094494  -0.061686  -1.3e-05  4.024359  0.0
C  C116  1  0.18151815  0.24196791  0.35926526  1  -0.05045  5e-06  3.790342  0.0  -0.061572  1.5e-05  4.038962  0.0  -0.060646  1e-05  4.06013  0.0  -0.094492  -0.061792  -1.3e-05  4.024575  0.0
C  C117  1  0.68151994  0.25803546  0.14073611  1  -0.050362  0.0  3.790303  0.0  -0.061456  -1.5e-05  4.038887  0.0  -0.060533  -1.2e-05  4.060043  0.0  -0.094468  -0.061677  -1.4e-05  4.024502  0.0
N  N118  1  0.00553389  0.32124710  0.99340816  1  -0.232046  0.009304  3.340422  0.009  -0.1839  0.010091  3.625201  0.008  -0.224302  0.011541  3.647884  0.009  -0.327372  -0.157716  0.006214  3.611436  0.005
N  N119  1  0.50553749  0.17875285  0.50659263  1  -0.232076  -0.009301  3.340515  -0.009  -0.183922  -0.010089  3.625267  -0.008  -0.224317  -0.01154  3.647938  -0.009  -0.327405  -0.157757  0.006218  3.611542  0.005
N  N120  1  0.99446352  0.67875080  0.00658811  1  -0.232093  0.009324  3.340505  0.009  -0.183974  0.010092  3.625258  0.008  -0.224374  0.011541  3.647938  0.009  -0.327426  -0.157795  0.006214  3.611498  0.005
N  N121  1  0.49446767  0.82124302  0.49341078  1  -0.232007  -0.009292  3.340542  -0.009  -0.183869  -0.010089  3.625267  -0.008  -0.224261  -0.011537  3.647933  -0.009  -0.327425  -0.157707  0.006218  3.611541  0.005
O  O122  1  0.97559437  0.43831370  0.84174593  1  -0.540975  -0.013107  2.179291  -0.014  -0.517304  -0.012513  2.476169  -0.013  -0.573288  -0.013299  2.469971  -0.013  -0.295431  -0.478012  -0.007977  2.478943  -0.008
O  O123  1  0.47558320  0.06168219  0.65824722  1  -0.540901  0.013099  2.179055  0.014  -0.517153  0.01251  2.475948  0.013  -0.573151  0.013301  2.46978  0.013  -0.295369  -0.477871  -0.007978  2.478735  -0.008
O  O124  1  0.02440885  0.56168620  0.15824475  1  -0.541105  -0.013108  2.179122  -0.014  -0.517241  -0.012515  2.476074  -0.013  -0.573241  -0.013301  2.469916  -0.013  -0.295386  -0.477942  -0.007977  2.478833  -0.008
O  O125  1  0.52442002  0.93831368  0.34175542  1  -0.540843  0.0131  2.178994  0.014  -0.517077  0.012511  2.475957  0.013  -0.573075  0.013304  2.469794  0.013  -0.295297  -0.477798  -0.007979  2.478743  -0.008
O  O126  1  0.90072262  0.43369253  0.63378554  1  -0.292492  4.8e-05  2.299342  0.0  -0.226845  -4.6e-05  2.526191  0.0  -0.243426  -5.4e-05  2.528278  0.0  -0.178495  -0.214922  -1.7e-05  2.523951  0.0
O  O127  1  0.40072161  0.06630898  0.86621366  1  -0.292388  -4.7e-05  2.2993  0.0  -0.226791  4.6e-05  2.52616  0.0  -0.243367  5.1e-05  2.528244  0.0  -0.178443  -0.214866  -1.7e-05  2.523919  0.0
O  O128  1  0.09927673  0.56631226  0.36620906  1  -0.292364  4.5e-05  2.299352  0.0  -0.226754  -4.6e-05  2.526243  0.0  -0.24333  -5.3e-05  2.528328  0.0  -0.178438  -0.214827  -1.6e-05  2.524001  0.0
O  O129  1  0.59927580  0.93368985  0.13378916  1  -0.292351  -4.4e-05  2.299343  0.0  -0.226672  4.6e-05  2.526187  0.0  -0.243243  5.2e-05  2.528268  0.0  -0.178393  -0.214749  -1.7e-05  2.523947  0.0
O  O130  1  0.18517322  0.42248923  0.78111080  1  -0.59826  0.000279  1.953789  0.0  -0.550655  0.000263  2.177345  0.0  -0.577504  0.000275  2.168888  0.0  -0.305823  -0.53178  0.000225  2.182677  0.0
O  O131  1  0.68516013  0.07751078  0.71888126  1  -0.598252  -0.000278  1.953772  0.0  -0.550591  -0.000262  2.177375  0.0  -0.577438  -0.000267  2.168913  0.0  -0.305811  -0.53172  0.000224  2.182715  0.0
O  O132  1  0.81483000  0.57750480  0.21887720  1  -0.598452  0.000279  1.953576  0.0  -0.550745  0.000262  2.177338  0.0  -0.577592  0.000276  2.168873  0.0  -0.305861  -0.531872  0.000225  2.182672  0.0
O  O133  1  0.31484212  0.92248115  0.28112322  1  -0.598242  -0.000278  1.953899  0.0  -0.550553  -0.000262  2.177558  0.0  -0.577407  -0.000268  2.169107  0.0  -0.30581  -0.53168  0.000224  2.182897  0.0
O  O134  1  0.27413194  0.53582094  0.99623429  1  -0.811339  0.000259  1.801821  0.0  -0.776682  0.000437  1.96685  0.0  -0.792447  0.000478  1.93438  0.0  -0.598793  -0.766768  0.000294  1.989991  0.0
O  O135  1  0.77414150  0.96417462  0.50376576  1  -0.811262  -0.000259  1.801883  0.0  -0.776528  -0.000437  1.966988  0.0  -0.792308  -0.000478  1.934475  0.0  -0.598717  -0.766621  0.000294  1.990078  0.0
O  O136  1  0.72586547  0.46417503  0.00375746  1  -0.811387  0.00026  1.801793  0.0  -0.776696  0.000438  1.966856  0.0  -0.792469  0.00048  1.934371  0.0  -0.598739  -0.766782  0.000294  1.989976  0.0
O  O137  1  0.22585493  0.03583110  0.49623616  1  -0.8113  -0.000259  1.80182  0.0  -0.776604  -0.000436  1.966899  0.0  -0.792387  -0.000474  1.934376  0.0  -0.598732  -0.766699  0.000293  1.990026  0.0
