# generated using pymatgen
data_AlH12C24S3(NO5)3
_symmetry_space_group_name_H-M   'P 1'
_cell_length_a   4.27578808
_cell_length_b   15.67322304
_cell_length_c   15.65438740
_cell_angle_alpha   60.19512921
_cell_angle_beta   84.51536811
_cell_angle_gamma   84.80985115
_symmetry_Int_Tables_number   1
_chemical_formula_structural   AlH12C24S3(NO5)3
_chemical_formula_sum   'Al1 H12 C24 S3 N3 O15'
_cell_volume   905.02644564
_cell_formula_units_Z   1
loop_
 _symmetry_equiv_pos_site_id
 _symmetry_equiv_pos_as_xyz
  1  'x, y, z'
loop_
 _atom_site_type_symbol
 _atom_site_label
 _atom_site_symmetry_multiplicity
 _atom_site_fract_x
 _atom_site_fract_y
 _atom_site_fract_z
 _atom_site_occupancy
 _atom_site_pbe_bader_charge
 _atom_site_pbe_bader_spin_density
 _atom_site_pbe_cm5_charge
 _atom_site_pbe_ddec_charge
 _atom_site_pbe_ddec_spin_density
 _atom_site_pbe_ddec_sum_bond_order
 _atom_site_pbe_magmom
Al  Al0  1  0.90203183  0.49960418  0.50232095  1  2.521133  0  0.460028  1.653974  0  2.475817  0
H  H1  1  0.47103024  0.74991522  0.50743099  1  0.099075  0  0.11746  0.132131  0  0.972368  0
H  H2  1  0.54350617  0.84693598  0.59047393  1  0.104819  0  0.118168  0.121763  0  0.986943  0
H  H3  1  0.36838858  0.59116152  0.87353049  1  0.157446  0  0.11894  0.128755  0  1.004833  0
H  H4  1  0.51757276  0.03906096  0.58555970  1  0.13753  0  0.118554  0.128109  0  1.008944  0
H  H5  1  0.50992199  0.23941145  0.75174398  1  0.113904  0  0.119378  0.132826  0  0.964857  0
H  H6  1  0.57714218  0.05644739  0.84931042  1  0.125998  0  0.118554  0.122401  0  0.984563  0
H  H7  1  0.68645552  0.85900668  0.04245242  1  0.178145  0  0.117751  0.130988  0  1.016252  0
H  H8  1  0.28432850  0.52401615  0.24052843  1  0.141251  0  0.119278  0.133525  0  0.975544  0
H  H9  1  0.33414210  0.60347955  0.05667566  1  0.124336  0  0.118249  0.122548  0  0.984468  0
H  H10  1  0.81575471  0.41145443  0.79251863  1  0.673216  0  0.314402  0.390583  0  0.958746  0
H  H11  1  0.95785091  0.30585552  0.40693037  1  0.6745  0  0.315119  0.391074  0  0.95802  0
H  H12  1  0.24502943  0.80141624  0.29643495  1  0.671936  0  0.312922  0.384883  0  0.967912  0
C  C13  1  0.42703937  0.58841053  0.35565078  1  1.602346  0  0.279048  0.670467  0  4.058447  0
C  C14  1  0.35894278  0.55864512  0.59091912  1  1.624347  0  0.280198  0.673342  0  4.077538  0
C  C15  1  0.43189312  0.35261048  0.55918435  1  1.653254  0  0.279529  0.67065  0  4.077289  0
C  C16  1  0.55763284  0.92765865  0.78119040  1  1.087999  0  0.259708  0.384494  0  4.018347  0
C  C17  1  0.49886070  0.78180624  0.78750953  1  1.137102  0  0.259291  0.38351  0  4.024395  0
C  C18  1  0.52413001  0.78717217  0.92906207  1  1.08482  0  0.259813  0.382516  0  4.022794  0
C  C19  1  0.44884737  0.71537320  0.58767274  1  0.037565  0  -0.070098  -0.086239  0  3.91898  0
C  C20  1  0.49133098  0.76944588  0.63388145  1  -0.04049  0  -0.062298  -0.072208  0  3.922893  0
C  C21  1  0.46489028  0.72490832  0.73715296  1  -0.008925  0  -0.003606  0.004826  0  3.964841  0
C  C22  1  0.39549951  0.62548650  0.79354971  1  0.054238  0  -0.065308  -0.094505  0  3.940217  0
C  C23  1  0.35437150  0.57170267  0.74698741  1  -0.225674  0  -0.015402  -0.134615  0  3.969487  0
C  C24  1  0.38035501  0.61573330  0.64364094  1  0.021909  0  0.010071  -0.011855  0  3.914966  0
C  C25  1  0.52562955  0.08300180  0.62144713  1  0.059857  0  -0.066511  -0.093692  0  3.940465  0
C  C26  1  0.48994496  0.18510210  0.56710147  1  -0.1693  0  -0.014803  -0.132249  0  3.96144  0
C  C27  1  0.48104664  0.24251191  0.61349701  1  0.010119  0  0.010351  -0.011654  0  3.913576  0
C  C28  1  0.51745370  0.19527167  0.71531855  1  -0.073667  0  -0.069936  -0.085896  0  3.91898  0
C  C29  1  0.55593528  0.09321362  0.76985914  1  -0.011302  0  -0.061594  -0.070572  0  3.92188  0
C  C30  1  0.55599496  0.03623416  0.72342323  1  -0.037971  0  -0.003374  0.001983  0  3.967984  0
C  C31  1  0.60651416  0.78443293  0.08595678  1  0.083871  0  -0.067315  -0.107254  0  3.940438  0
C  C32  1  0.59501427  0.73807209  0.18856336  1  -0.252591  0  -0.007649  -0.116237  0  3.910788  0
C  C33  1  0.47324235  0.64344347  0.24549372  1  0.030198  0  0.007258  -0.020469  0  3.902441  0
C  C34  1  0.37950627  0.59662593  0.19622935  1  -0.047661  0  -0.068939  -0.079689  0  3.922708  0
C  C35  1  0.40506281  0.64097623  0.09400945  1  -0.029692  0  -0.061636  -0.071864  0  3.92242  0
C  C36  1  0.51413699  0.73623291  0.03801397  1  0.031483  0  0.001744  0.016157  0  3.95836  0
S  S37  1  0.24837060  0.44743570  0.82614243  1  3.136228  0  0.558823  1.190316  0  5.971128  0
S  S38  1  0.41997231  0.23502686  0.43974232  1  3.138414  0  0.558621  1.188426  0  5.977425  0
S  S39  1  0.73309652  0.81289102  0.23392698  1  3.139042  0  0.5632  1.194618  0  5.940759  0
N  N40  1  0.53529841  0.87898155  0.73158204  1  -1.212235  0  -0.304024  -0.405015  0  3.208627  0
N  N41  1  0.48316920  0.73291887  0.88674017  1  -1.229934  0  -0.306628  -0.407873  0  3.209609  0
N  N42  1  0.56525251  0.88456920  0.87978898  1  -1.173867  0  -0.305627  -0.405668  0  3.196579  0
O  O43  1  0.17025059  0.38668945  0.57826109  1  -1.246201  0  -0.225213  -0.586067  0  2.364921  0
O  O44  1  0.18661059  0.53635203  0.38983103  1  -1.248256  0  -0.226672  -0.592972  0  2.386668  0
O  O45  1  0.12171501  0.57696473  0.54060125  1  -1.23842  0  -0.223112  -0.578008  0  2.342124  0
O  O46  1  0.66055218  0.40063038  0.50210503  1  -1.252745  0  -0.235284  -0.595839  0  2.363351  0
O  O47  1  0.59326720  0.49882371  0.60010644  1  -1.256366  0  -0.238287  -0.605198  0  2.367103  0
O  O48  1  0.62898204  0.59622794  0.40552596  1  -1.259256  0  -0.237818  -0.60621  0  2.414587  0
O  O49  1  0.52846980  0.38087215  0.84381032  1  -1.309972  0  -0.311289  -0.538157  0  2.254746  0
O  O50  1  0.07463620  0.44180956  0.91168035  1  -1.279871  0  -0.301007  -0.509112  0  2.101553  0
O  O51  1  0.04746724  0.42935880  0.76031198  1  -1.2851  0  -0.337144  -0.537727  0  2.321224  0
O  O52  1  0.69922141  0.28158808  0.37754003  1  -1.310256  0  -0.311078  -0.537225  0  2.27767  0
O  O53  1  0.29838062  0.15921804  0.42828304  1  -1.275597  0  -0.300376  -0.507752  0  2.109333  0
O  O54  1  0.17739910  0.32103362  0.42113858  1  -1.286217  0  -0.338164  -0.536844  0  2.315387  0
O  O55  1  0.98534959  0.75558762  0.30061598  1  -1.314492  0  -0.310171  -0.558489  0  2.372418  0
O  O56  1  0.82154391  0.90476916  0.15020126  1  -1.294448  0  -0.305727  -0.517513  0  2.10523  0
O  O57  1  0.46601216  0.82702703  0.29911146  1  -1.285572  0  -0.340369  -0.5202  0  2.244221  0
