# generated using pymatgen
data_NiH18C18(NO)4
_symmetry_space_group_name_H-M   'P 1'
_cell_length_a   8.78852726
_cell_length_b   8.78837010
_cell_length_c   13.77912767
_cell_angle_alpha   70.12590656
_cell_angle_beta   70.12563118
_cell_angle_gamma   62.60180154
_symmetry_Int_Tables_number   1
_chemical_formula_structural   NiH18C18(NO)4
_chemical_formula_sum   'Ni2 H36 C36 N8 O8'
_cell_volume   866.87268061
_cell_formula_units_Z   2
loop_
 _symmetry_equiv_pos_site_id
 _symmetry_equiv_pos_as_xyz
  1  'x, y, z'
loop_
 _atom_site_type_symbol
 _atom_site_label
 _atom_site_symmetry_multiplicity
 _atom_site_fract_x
 _atom_site_fract_y
 _atom_site_fract_z
 _atom_site_occupancy
 _atom_site_pbe_bader_spin_density
 _atom_site_pbe_cm5_charge
 _atom_site_pbe_ddec_charge
 _atom_site_pbe_ddec_spin_density
 _atom_site_pbe_ddec_sum_bond_order
 _atom_site_pbe_magmom
Ni  Ni0  1  0.50001656  0.49999211  0.99999511  1  0  0.571724  0.510676  0  2.699177  0
Ni  Ni1  1  0.50000474  0.49999168  0.50000093  1  0  0.571729  0.51067  0  2.699157  0
H  H2  1  0.97422868  0.02406999  0.07035610  1  0  0.100857  0.0977  0  1.035502  0
H  H3  1  0.97591201  0.02580987  0.42963942  1  0  0.100869  0.097692  0  1.035451  0
H  H4  1  0.02579595  0.97592516  0.92964796  1  0  0.100895  0.097731  0  1.035511  0
H  H5  1  0.02407319  0.97421607  0.57036990  1  0  0.100803  0.09766  0  1.035586  0
H  H6  1  0.20526129  0.78251364  0.16211875  1  0  0.102218  0.097379  0  1.033803  0
H  H7  1  0.21748479  0.79475015  0.33789945  1  0  0.102185  0.097383  0  1.033695  0
H  H8  1  0.79474502  0.21748335  0.83789640  1  0  0.102171  0.097337  0  1.033829  0
H  H9  1  0.78250645  0.20525966  0.66211831  1  0  0.102198  0.097361  0  1.03375  0
H  H10  1  0.89359564  0.46283065  0.97395987  1  0  0.117728  0.119278  0  1.033204  0
H  H11  1  0.53722827  0.10638108  0.52603804  1  0  0.117702  0.119216  0  1.033092  0
H  H12  1  0.10640960  0.53719398  0.02602921  1  0  0.117706  0.119308  0  1.033076  0
H  H13  1  0.46281260  0.89359185  0.47396788  1  0  0.117727  0.11931  0  1.033082  0
H  H14  1  0.59309426  0.59520769  0.75169637  1  0  0.135029  0.117374  0  1.085848  0
H  H15  1  0.40473614  0.40692877  0.74831122  1  0  0.135058  0.117442  0  1.085799  0
H  H16  1  0.40691308  0.40475893  0.24830031  1  0  0.135044  0.117443  0  1.085865  0
H  H17  1  0.59522693  0.59308798  0.25169526  1  0  0.135039  0.11738  0  1.085915  0
H  H18  1  0.09000285  0.53119096  0.77157286  1  0  0.11872  0.120684  0  1.060195  0
H  H19  1  0.46884618  0.90997503  0.72842246  1  0  0.118729  0.120698  0  1.060194  0
H  H20  1  0.90999989  0.46882850  0.22841476  1  0  0.118743  0.120742  0  1.060082  0
H  H21  1  0.53118300  0.09000301  0.27158397  1  0  0.118738  0.120729  0  1.060195  0
H  H22  1  0.98892677  0.69277833  0.59240214  1  0  0.109174  0.094741  0  1.010617  0
H  H23  1  0.30722219  0.01105093  0.90759454  1  0  0.1091  0.094672  0  1.010514  0
H  H24  1  0.01107007  0.30720719  0.40758278  1  0  0.10911  0.094675  0  1.010594  0
H  H25  1  0.69276476  0.98895425  0.09241181  1  0  0.109099  0.094686  0  1.010519  0
H  H26  1  0.77704440  0.71874542  0.58818904  1  0  0.113661  0.100043  0  0.980837  0
H  H27  1  0.28122194  0.22292332  0.91181345  1  0  0.113609  0.099957  0  0.980809  0
H  H28  1  0.22294051  0.28124747  0.41180255  1  0  0.113603  0.099984  0  0.980811  0
H  H29  1  0.71874730  0.77707676  0.08818773  1  0  0.113575  0.099906  0  0.980896  0
H  H30  1  0.89869602  0.39723452  0.58840512  1  0  0.091085  0.084811  0  1.027155  0
H  H31  1  0.60271636  0.10133745  0.91160369  1  0  0.091102  0.084814  0  1.027274  0
H  H32  1  0.10129081  0.60276668  0.41157873  1  0  0.091072  0.084791  0  1.027086  0
H  H33  1  0.39723722  0.89869181  0.08841167  1  0  0.091094  0.084853  0  1.027158  0
H  H34  1  0.11029130  0.37922619  0.58357441  1  0  0.093653  0.095544  0  0.981002  0
H  H35  1  0.62076948  0.88974065  0.91641955  1  0  0.093673  0.095571  0  0.981193  0
H  H36  1  0.88970087  0.62075936  0.41640920  1  0  0.093605  0.095526  0  0.980839  0
H  H37  1  0.37920254  0.11029260  0.08359742  1  0  0.093582  0.095495  0  0.980992  0
C  C38  1  0.72314806  0.31769377  0.13641418  1  0  0.208502  0.547548  0  4.210616  0
C  C39  1  0.68231185  0.27685198  0.36359064  1  0  0.208433  0.547437  0  4.21087  0
C  C40  1  0.27685794  0.68230661  0.86358731  1  0  0.208451  0.547448  0  4.21078  0
C  C41  1  0.31768347  0.72316023  0.63640846  1  0  0.208513  0.547506  0  4.210688  0
C  C42  1  0.84479785  0.15864443  0.19804293  1  0  -0.011164  -0.050846  0  3.964191  0
C  C43  1  0.84135789  0.15520930  0.30196190  1  0  -0.01116  -0.050931  0  3.964385  0
C  C44  1  0.15519989  0.84135843  0.80195964  1  0  -0.011111  -0.050889  0  3.964356  0
C  C45  1  0.15864264  0.84480407  0.69804036  1  0  -0.011192  -0.050951  0  3.964337  0
C  C46  1  0.97474931  0.02259272  0.14959656  1  0  -0.085862  -0.099574  0  3.97516  0
C  C47  1  0.97740962  0.02525545  0.35039858  1  0  -0.085922  -0.099643  0  3.975334  0
C  C48  1  0.02525510  0.97740473  0.85041014  1  0  -0.085923  -0.099531  0  3.975462  0
C  C49  1  0.02258785  0.97475655  0.64960452  1  0  -0.085881  -0.099565  0  3.97551  0
C  C50  1  0.10606197  0.88884453  0.20059523  1  0  -0.087004  -0.073705  0  3.999516  0
C  C51  1  0.11115744  0.89393502  0.29940737  1  0  -0.086989  -0.073686  0  3.999446  0
C  C52  1  0.89394521  0.11115400  0.79941583  1  0  -0.086925  -0.073693  0  3.999504  0
C  C53  1  0.88884103  0.10606488  0.70060144  1  0  -0.087013  -0.073705  0  3.999447  0
C  C54  1  0.86125389  0.49621716  0.89834867  1  0  -0.008802  -0.056948  0  3.982622  0
C  C55  1  0.50381343  0.13872742  0.60164878  1  0  -0.008808  -0.056737  0  3.982466  0
C  C56  1  0.13876457  0.50378139  0.10164065  1  0  -0.00894  -0.057126  0  3.982866  0
C  C57  1  0.49621686  0.86124551  0.39835549  1  0  -0.008945  -0.057136  0  3.982813  0
C  C58  1  0.69907006  0.56582270  0.78728325  1  0  0.135226  0.062958  0  3.87764  0
C  C59  1  0.43417686  0.30094148  0.71270986  1  0  0.135183  0.062876  0  3.877573  0
C  C60  1  0.30093556  0.43416907  0.21270830  1  0  0.135218  0.062768  0  3.877749  0
C  C61  1  0.56582002  0.69906422  0.28728871  1  0  0.13523  0.062913  0  3.877781  0
C  C62  1  0.95940973  0.53029328  0.79815649  1  0  0.00058  -0.099572  0  3.915859  0
C  C63  1  0.46972087  0.04057848  0.70184186  1  0  0.000541  -0.099698  0  3.915726  0
C  C64  1  0.04060072  0.46970801  0.20182946  1  0  0.000626  -0.099653  0  3.916115  0
C  C65  1  0.53030517  0.95940061  0.29816859  1  0  0.00063  -0.099586  0  3.915856  0
C  C66  1  0.89987441  0.62539091  0.61335055  1  0  -0.050948  -0.064075  0  3.852323  0
C  C67  1  0.37460711  0.10011376  0.88664324  1  0  -0.050801  -0.063823  0  3.852379  0
C  C68  1  0.10011781  0.37459973  0.38663573  1  0  -0.050796  -0.06397  0  3.852341  0
C  C69  1  0.62538385  0.89989443  0.11335670  1  0  -0.050764  -0.063825  0  3.85214  0
C  C70  1  0.98470991  0.46976104  0.56019474  1  0  -0.162395  -0.158748  0  3.921394  0
C  C71  1  0.53021229  0.01531000  0.93979564  1  0  -0.162558  -0.158934  0  3.921953  0
C  C72  1  0.01528054  0.53023337  0.43979407  1  0  -0.162515  -0.158771  0  3.921167  0
C  C73  1  0.46975366  0.98471735  0.06020903  1  0  -0.162487  -0.158864  0  3.921248  0
N  N74  1  0.69799286  0.51970926  0.89059599  1  0  -0.36495  -0.231306  0  3.687282  0
N  N75  1  0.48030440  0.30199737  0.60939836  1  0  -0.364914  -0.231387  0  3.687386  0
N  N76  1  0.30202489  0.48028791  0.10939445  1  0  -0.364839  -0.231205  0  3.68738  0
N  N77  1  0.51970603  0.69798762  0.39059792  1  0  -0.364934  -0.231332  0  3.687497  0
N  N78  1  0.85501892  0.57452881  0.72925556  1  0  -0.237371  0.056333  0  3.753683  0
N  N79  1  0.42547263  0.14498758  0.77073994  1  0  -0.237268  0.056398  0  3.753512  0
N  N80  1  0.14498190  0.42546034  0.27073520  1  0  -0.237401  0.056516  0  3.753866  0
N  N81  1  0.57453057  0.85501671  0.22926134  1  0  -0.237329  0.056438  0  3.753469  0
O  O82  1  0.65261894  0.29016217  0.07834543  1  0  -0.294726  -0.469308  0  2.36754  0
O  O83  1  0.70982535  0.34739936  0.42165293  1  0  -0.294653  -0.469171  0  2.367967  0
O  O84  1  0.34739928  0.70982926  0.92165400  1  0  -0.294649  -0.469227  0  2.367747  0
O  O85  1  0.29016485  0.65260051  0.57835526  1  0  -0.294715  -0.469215  0  2.36764  0
O  O86  1  0.70160119  0.46644758  0.14084804  1  0  -0.308979  -0.545554  0  2.218336  0
O  O87  1  0.53355986  0.29840180  0.35914106  1  0  -0.308946  -0.545488  0  2.218089  0
O  O88  1  0.29840696  0.53355192  0.85914594  1  0  -0.308979  -0.545499  0  2.21826  0
O  O89  1  0.46644115  0.70160265  0.64085697  1  0  -0.308983  -0.545529  0  2.218097  0
