# generated using pymatgen
data_NaZnH14C11NO9
_symmetry_space_group_name_H-M   'P 1'
_cell_length_a   7.90420574
_cell_length_b   8.48197233
_cell_length_c   11.43795320
_cell_angle_alpha   98.99785152
_cell_angle_beta   97.28550022
_cell_angle_gamma   94.79686529
_symmetry_Int_Tables_number   1
_chemical_formula_structural   NaZnH14C11NO9
_chemical_formula_sum   'Na2 Zn2 H28 C22 N2 O18'
_cell_volume   747.08570460
_cell_formula_units_Z   2
loop_
 _symmetry_equiv_pos_site_id
 _symmetry_equiv_pos_as_xyz
  1  'x, y, z'
loop_
 _atom_site_type_symbol
 _atom_site_label
 _atom_site_symmetry_multiplicity
 _atom_site_fract_x
 _atom_site_fract_y
 _atom_site_fract_z
 _atom_site_occupancy
 _atom_site_hle17_bader_spin_density
 _atom_site_hle17_ddec_charge
 _atom_site_hle17_ddec_spin_density
 _atom_site_hle17_ddec_sum_bond_order
 _atom_site_hle17_magmom
 _atom_site_hse06_10hf_bader_spin_density
 _atom_site_hse06_10hf_ddec_charge
 _atom_site_hse06_10hf_ddec_spin_density
 _atom_site_hse06_10hf_ddec_sum_bond_order
 _atom_site_hse06_10hf_magmom
 _atom_site_hse06_bader_spin_density
 _atom_site_hse06_ddec_charge
 _atom_site_hse06_ddec_spin_density
 _atom_site_hse06_ddec_sum_bond_order
 _atom_site_hse06_magmom
 _atom_site_pbe_bader_spin_density
 _atom_site_pbe_cm5_charge
 _atom_site_pbe_ddec_charge
 _atom_site_pbe_ddec_spin_density
 _atom_site_pbe_ddec_sum_bond_order
 _atom_site_pbe_magmom
Na  Na0  1  0.71408720  0.47498472  0.53658709  1  0  0.901559  0  0.372304  0  0  0.858324  0  0.52154  0  0  0.868671  0  0.500204  0  0  0.668595  0.850738  0  0.536844  0
Na  Na1  1  0.28590095  0.52501422  0.46341038  1  0  0.901574  0  0.372275  0  0  0.858335  0  0.521512  0  0  0.868677  0  0.50018  0  0  0.668589  0.850749  0  0.536818  0
Zn  Zn2  1  0.81842720  0.12717294  0.65487043  1  0  1.146369  0  1.754469  0  0  0.968467  0  2.232077  0  0  1.019167  0  2.168977  0  0  0.684724  0.932599  0  2.275622  0
Zn  Zn3  1  0.18157873  0.87280137  0.34513236  1  0  1.146505  0  1.754166  0  0  0.968581  0  2.231864  0  0  1.019286  0  2.168764  0  0  0.684847  0.932716  0  2.275412  0
H  H4  1  0.37525348  0.20693032  0.82123300  1  0  0.099399  0  0.947613  0  0  0.109245  0  1.015369  0  0  0.110658  0  1.014942  0  0  0.109148  0.108284  0  1.015666  0
H  H5  1  0.62475887  0.79308457  0.17876748  1  0  0.099501  0  0.947504  0  0  0.109318  0  1.015259  0  0  0.110733  0  1.014833  0  0  0.109196  0.108359  0  1.015551  0
H  H6  1  0.35828378  0.15360498  0.66385702  1  0  0.127733  0  0.924895  0  0  0.142753  0  0.981273  0  0  0.145298  0  0.979845  0  0  0.125418  0.140896  0  0.982421  0
H  H7  1  0.64170585  0.84640526  0.33616009  1  0  0.12774  0  0.924827  0  0  0.142806  0  0.981096  0  0  0.145361  0  0.979664  0  0  0.12546  0.140942  0  0.982265  0
H  H8  1  0.34953877  0.90939947  0.62746079  1  0  0.116456  0  0.941518  0  0  0.1302  0  1.004416  0  0  0.132061  0  1.003696  0  0  0.122569  0.128889  0  1.005035  0
H  H9  1  0.65044184  0.09059273  0.37254317  1  0  0.116616  0  0.941379  0  0  0.130225  0  1.004381  0  0  0.132092  0  1.003648  0  0  0.122562  0.128922  0  1.005001  0
H  H10  1  0.44746141  0.79241772  0.72450521  1  0  0.112105  0  0.933772  0  0  0.123506  0  0.999355  0  0  0.125951  0  0.997243  0  0  0.120857  0.121781  0  1.000923  0
H  H11  1  0.55254792  0.20757808  0.27549656  1  0  0.112047  0  0.933794  0  0  0.123433  0  0.999356  0  0  0.125878  0  0.997236  0  0  0.120845  0.121716  0  1.000928  0
H  H12  1  0.61183270  0.27218427  0.95172958  1  0  0.105779  0  0.953848  0  0  0.120621  0  1.005853  0  0  0.123562  0  1.00503  0  0  0.106009  0.118512  0  1.00657  0
H  H13  1  0.38817787  0.72781841  0.04826163  1  0  0.105797  0  0.954007  0  0  0.120693  0  1.005916  0  0  0.123635  0  1.005087  0  0  0.106068  0.118586  0  1.006631  0
H  H14  1  0.77471518  0.24923954  0.14300775  1  0  0.089149  0  0.954899  0  0  0.102319  0  1.012547  0  0  0.105815  0  1.009269  0  0  0.103778  0.099742  0  1.015002  0
H  H15  1  0.22529089  0.75076003  0.85699497  1  0  0.089112  0  0.954859  0  0  0.102275  0  1.012511  0  0  0.105771  0  1.009232  0  0  0.103774  0.099693  0  1.014966  0
H  H16  1  0.85041428  0.76197940  0.00879757  1  0  0.100916  0  0.934138  0  0  0.11362  0  0.988231  0  0  0.117394  0  0.98493  0  0  0.105694  0.110847  0  0.990689  0
H  H17  1  0.14960903  0.23802268  0.99119041  1  0  0.10089  0  0.93408  0  0  0.113615  0  0.988158  0  0  0.117385  0  0.984857  0  0  0.105716  0.110848  0  0.990609  0
H  H18  1  0.68021698  0.77779284  0.81635964  1  0  0.099941  0  0.976711  0  0  0.108612  0  1.042764  0  0  0.112485  0  1.040663  0  0  0.102582  0.105823  0  1.04443  0
H  H19  1  0.31980594  0.22220687  0.18362895  1  0  0.099902  0  0.976733  0  0  0.10851  0  1.042866  0  0  0.112387  0  1.040759  0  0  0.102521  0.105723  0  1.044534  0
H  H20  1  0.94827371  0.16286795  0.44758638  1  0  0.446566  0  0.842699  0  0  0.414988  0  0.906625  0  0  0.425884  0  0.890572  0  0  0.304462  0.407243  0  0.918038  0
H  H21  1  0.05171767  0.83712732  0.55241365  1  0  0.446598  0  0.842661  0  0  0.415004  0  0.906617  0  0  0.425903  0  0.890557  0  0  0.304448  0.407258  0  0.918029  0
H  H22  1  0.04316641  0.29244281  0.56174448  1  0  0.44345  0  0.854146  0  0  0.412191  0  0.917296  0  0  0.423712  0  0.900612  0  0  0.297913  0.404061  0  0.929046  0
H  H23  1  0.95681494  0.70756104  0.43824672  1  0  0.443417  0  0.854193  0  0  0.412172  0  0.917334  0  0  0.423695  0  0.900647  0  0  0.297914  0.404043  0  0.929084  0
H  H24  1  0.97048389  0.71433682  0.71995902  1  0  0.431688  0  0.876778  0  0  0.397101  0  0.946464  0  0  0.407276  0  0.931848  0  0  0.292687  0.389944  0  0.956718  0
H  H25  1  0.02951213  0.28567140  0.28003750  1  0  0.431753  0  0.876715  0  0  0.397151  0  0.94643  0  0  0.407331  0  0.931806  0  0  0.292697  0.389994  0  0.956684  0
H  H26  1  0.87099952  0.55784041  0.76010387  1  0  0.433323  0  0.828145  0  0  0.410739  0  0.888743  0  0  0.419852  0  0.875261  0  0  0.316543  0.404221  0  0.89739  0
H  H27  1  0.12900041  0.44217760  0.23990450  1  0  0.433345  0  0.828197  0  0  0.410775  0  0.88871  0  0  0.419888  0  0.875229  0  0  0.316557  0.404257  0  0.897411  0
H  H28  1  0.90207770  0.49291904  0.33235564  1  0  0.427322  0  0.877914  0  0  0.399831  0  0.934972  0  0  0.410248  0  0.9197  0  0  0.29142  0.392489  0  0.945717  0
H  H29  1  0.09790300  0.50708143  0.66764303  1  0  0.427353  0  0.87787  0  0  0.39974  0  0.935117  0  0  0.410159  0  0.919843  0  0  0.29135  0.392398  0  0.945863  0
H  H30  1  0.71342910  0.55594343  0.31472035  1  0  0.425786  0  0.877299  0  0  0.394843  0  0.941141  0  0  0.405341  0  0.925769  0  0  0.290684  0.38744  0  0.951959  0
H  H31  1  0.28655747  0.44404616  0.68528478  1  0  0.425843  0  0.877228  0  0  0.394885  0  0.941095  0  0  0.405386  0  0.925721  0  0  0.290717  0.387481  0  0.951915  0
C  C32  1  0.55922008  0.33368530  0.73861817  1  0  0.687122  0  3.87975  0  0  0.636371  0  4.189905  0  0  0.669659  0  4.181733  0  0  0.209387  0.613671  0  4.19483  0
C  C33  1  0.44077990  0.66631554  0.26137798  1  0  0.687516  0  3.879771  0  0  0.636716  0  4.189933  0  0  0.669997  0  4.181764  0  0  0.209437  0.614022  0  4.194856  0
C  C34  1  0.44979966  0.17971955  0.74699355  1  0  -0.190252  0  3.677392  0  0  -0.24906  0  3.927669  0  0  -0.250048  0  3.935827  0  0  -0.068568  -0.248375  0  3.921983  0
C  C35  1  0.55020063  0.82029237  0.25301249  1  0  -0.19056  0  3.677182  0  0  -0.249269  0  3.927341  0  0  -0.250273  0  3.935518  0  0  -0.068678  -0.248583  0  3.921648  0
C  C36  1  0.58287845  0.83337291  0.57984562  1  0  0.706877  0  3.849565  0  0  0.660015  0  4.153036  0  0  0.693255  0  4.144641  0  0  0.21597  0.637363  0  4.158134  0
C  C37  1  0.41710775  0.16662282  0.42016359  1  0  0.70722  0  3.849004  0  0  0.66022  0  4.152597  0  0  0.693458  0  4.1442  0  0  0.216104  0.637576  0  4.157701  0
C  C38  1  0.47365262  0.89156295  0.67580182  1  0  -0.193098  0  3.685925  0  0  -0.255508  0  3.939829  0  0  -0.256059  0  3.947059  0  0  -0.065297  -0.255238  0  3.934891  0
C  C39  1  0.52633070  0.10843041  0.32420425  1  0  -0.19347  0  3.685985  0  0  -0.255601  0  3.939758  0  0  -0.256149  0  3.946989  0  0  -0.0653  -0.255367  0  3.934863  0
C  C40  1  0.63307853  0.02718360  0.86747230  1  0  0.209671  0  3.779631  0  0  0.20104  0  4.026346  0  0  0.212067  0  4.047679  0  0  0.10239  0.19367  0  4.011725  0
C  C41  1  0.36692326  0.97282081  0.13252525  1  0  0.209609  0  3.779812  0  0  0.201017  0  4.026504  0  0  0.212045  0  4.047834  0  0  0.102379  0.193647  0  4.011885  0
C  C42  1  0.66281244  0.15922231  0.96205312  1  0  -0.163404  0  3.721414  0  0  -0.182613  0  3.975708  0  0  -0.190236  0  3.996777  0  0  -0.100169  -0.177668  0  3.961493  0
C  C43  1  0.33720395  0.84077810  0.03795153  1  0  -0.163519  0  3.72167  0  0  -0.182781  0  3.975925  0  0  -0.1904  0  3.996987  0  0  -0.100255  -0.177839  0  3.961712  0
C  C44  1  0.75578541  0.14647216  0.07072336  1  0  -0.038144  0  3.748738  0  0  -0.063852  0  4.00076  0  0  -0.059299  0  4.01876  0  0  -0.083026  -0.066557  0  3.988407  0
C  C45  1  0.24424146  0.85353041  0.92928774  1  0  -0.037799  0  3.748285  0  0  -0.063472  0  4.000277  0  0  -0.058917  0  4.018278  0  0  -0.082837  -0.066173  0  3.987917  0
C  C46  1  0.82519150  0.00391491  0.08932465  1  0  -0.114882  0  3.805881  0  0  -0.09353  0  4.047346  0  0  -0.105874  0  4.072791  0  0  -0.03891  -0.085531  0  4.030193  0
C  C47  1  0.17481692  0.99609022  0.91066486  1  0  -0.115133  0  3.805908  0  0  -0.093825  0  4.047458  0  0  -0.106176  0  4.072903  0  0  -0.039058  -0.085826  0  4.030302  0
C  C48  1  0.79646869  0.87284076  0.99501231  1  0  -0.035832  0  3.755347  0  0  -0.061986  0  4.007859  0  0  -0.057291  0  4.025977  0  0  -0.083098  -0.0648  0  3.995416  0
C  C49  1  0.20354787  0.12715924  0.00497745  1  0  -0.035746  0  3.755033  0  0  -0.061911  0  4.007537  0  0  -0.057212  0  4.025658  0  0  -0.08298  -0.064727  0  3.9951  0
C  C50  1  0.70180740  0.88307385  0.88642836  1  0  -0.186708  0  3.737963  0  0  -0.204861  0  3.996519  0  0  -0.213537  0  4.017948  0  0  -0.106925  -0.199162  0  3.98205  0
C  C51  1  0.29819869  0.11691713  0.11356825  1  0  -0.18659  0  3.738004  0  0  -0.204694  0  3.996536  0  0  -0.213373  0  4.017961  0  0  -0.106949  -0.198994  0  3.982074  0
C  C52  1  0.92874283  0.99213813  0.20396803  1  0  0.654007  0  3.911797  0  0  0.599348  0  4.209984  0  0  0.634212  0  4.203308  0  0  0.207911  0.575628  0  4.213867  0
C  C53  1  0.07126483  0.00785539  0.79603598  1  0  0.653806  0  3.911688  0  0  0.599118  0  4.209908  0  0  0.633986  0  4.203235  0  0  0.207797  0.575399  0  4.213787  0
N  N54  1  0.54098444  0.03915612  0.75725253  1  0  -0.173073  0  3.455494  0  0  -0.082117  0  3.681048  0  0  -0.101299  0  3.705325  0  0  -0.294928  -0.068584  0  3.663815  0
N  N55  1  0.45901834  0.96084731  0.24275464  1  0  -0.172898  0  3.455605  0  0  -0.082094  0  3.681138  0  0  -0.101284  0  3.705433  0  0  -0.294921  -0.068554  0  3.663913  0
O  O56  1  0.49379876  0.46326539  0.75703617  1  0  -0.620417  0  1.907733  0  0  -0.574083  0  2.124533  0  0  -0.597129  0  2.113674  0  0  -0.318608  -0.557992  0  2.131526  0
O  O57  1  0.50619053  0.53674070  0.24296038  1  0  -0.620567  0  1.90793  0  0  -0.574243  0  2.124762  0  0  -0.597286  0  2.1139  0  0  -0.318668  -0.558152  0  2.131756  0
O  O58  1  0.71159671  0.32557166  0.70988283  1  0  -0.711207  0  2.094831  0  0  -0.635016  0  2.374806  0  0  -0.665186  0  2.358219  0  0  -0.362631  -0.613848  0  2.38559  0
O  O59  1  0.28841477  0.67442853  0.29010647  1  0  -0.711299  0  2.094924  0  0  -0.635091  0  2.374921  0  0  -0.665258  0  2.358328  0  0  -0.362577  -0.613923  0  2.38571  0
O  O60  1  0.70490339  0.92786971  0.55571385  1  0  -0.664759  0  2.062546  0  0  -0.587515  0  2.339726  0  0  -0.617308  0  2.322652  0  0  -0.322555  -0.566696  0  2.350885  0
O  O61  1  0.29511388  0.07212148  0.44430657  1  0  -0.664873  0  2.062424  0  0  -0.587639  0  2.339686  0  0  -0.617427  0  2.322613  0  0  -0.322685  -0.566821  0  2.350839  0
O  O62  1  0.54136544  0.69304726  0.52411371  1  0  -0.709153  0  1.947323  0  0  -0.666995  0  2.198102  0  0  -0.689272  0  2.185941  0  0  -0.432595  -0.651467  0  2.206126  0
O  O63  1  0.45862578  0.30695526  0.47588703  1  0  -0.709287  0  1.947174  0  0  -0.667087  0  2.198008  0  0  -0.689368  0  2.185849  0  0  -0.432621  -0.651555  0  2.206026  0
O  O64  1  0.94843873  0.10973082  0.29089483  1  0  -0.681359  0  2.048623  0  0  -0.6159  0  2.280255  0  0  -0.64077  0  2.268356  0  0  -0.321881  -0.59858  0  2.288054  0
O  O65  1  0.05156457  0.89025923  0.70910754  1  0  -0.68126  0  2.048603  0  0  -0.615798  0  2.280238  0  0  -0.640665  0  2.26834  0  0  -0.32189  -0.59847  0  2.288011  0
O  O66  1  0.99663199  0.86068606  0.21152292  1  0  -0.644506  0  2.052844  0  0  -0.572998  0  2.324371  0  0  -0.601726  0  2.309039  0  0  -0.324527  -0.55305  0  2.334355  0
O  O67  1  0.00335585  0.13931887  0.78847337  1  0  -0.644385  0  2.052474  0  0  -0.57284  0  2.323971  0  0  -0.601571  0  2.308645  0  0  -0.324437  -0.55289  0  2.333944  0
O  O68  1  0.93165089  0.22448876  0.52584700  1  0  -0.868791  0  1.871234  0  0  -0.798591  0  2.087619  0  0  -0.820348  0  2.047709  0  0  -0.5789  -0.783375  0  2.115482  0
O  O69  1  0.06833326  0.77550914  0.47415086  1  0  -0.868751  0  1.871111  0  0  -0.798591  0  2.087503  0  0  -0.82035  0  2.047587  0  0  -0.578898  -0.783377  0  2.115365  0
O  O70  1  0.92772195  0.59711857  0.69785983  1  0  -0.872457  0  1.848538  0  0  -0.81806  0  2.026811  0  0  -0.836455  0  1.995376  0  0  -0.626386  -0.805085  0  2.047822  0
O  O71  1  0.07227780  0.40288970  0.30214404  1  0  -0.872524  0  1.84851  0  0  -0.818175  0  2.026696  0  0  -0.836572  0  1.995253  0  0  -0.626434  -0.805198  0  2.047762  0
O  O72  1  0.81867687  0.55636716  0.37313100  1  0  -0.897283  0  1.829468  0  0  -0.841466  0  1.997094  0  0  -0.860751  0  1.963769  0  0  -0.649783  -0.827856  0  2.020333  0
O  O73  1  0.18130610  0.44362373  0.62687217  1  0  -0.897374  0  1.829328  0  0  -0.841461  0  1.997088  0  0  -0.860747  0  1.963761  0  0  -0.649742  -0.827852  0  2.020331  0
