# generated using pymatgen
data_ZnH17C21NO7
_symmetry_space_group_name_H-M   'P 1'
_cell_length_a   9.13209619
_cell_length_b   9.52033952
_cell_length_c   14.55225069
_cell_angle_alpha   107.16172398
_cell_angle_beta   93.48767872
_cell_angle_gamma   113.00134122
_symmetry_Int_Tables_number   1
_chemical_formula_structural   ZnH17C21NO7
_chemical_formula_sum   'Zn2 H34 C42 N2 O14'
_cell_volume   1090.20039020
_cell_formula_units_Z   2
loop_
 _symmetry_equiv_pos_site_id
 _symmetry_equiv_pos_as_xyz
  1  'x, y, z'
loop_
 _atom_site_type_symbol
 _atom_site_label
 _atom_site_symmetry_multiplicity
 _atom_site_fract_x
 _atom_site_fract_y
 _atom_site_fract_z
 _atom_site_occupancy
 _atom_site_hle17_bader_spin_density
 _atom_site_hle17_ddec_charge
 _atom_site_hle17_ddec_spin_density
 _atom_site_hle17_ddec_sum_bond_order
 _atom_site_hle17_magmom
 _atom_site_hse06_10hf_bader_spin_density
 _atom_site_hse06_10hf_ddec_charge
 _atom_site_hse06_10hf_ddec_spin_density
 _atom_site_hse06_10hf_ddec_sum_bond_order
 _atom_site_hse06_10hf_magmom
 _atom_site_hse06_bader_spin_density
 _atom_site_hse06_ddec_charge
 _atom_site_hse06_ddec_spin_density
 _atom_site_hse06_ddec_sum_bond_order
 _atom_site_hse06_magmom
 _atom_site_pbe_bader_spin_density
 _atom_site_pbe_cm5_charge
 _atom_site_pbe_ddec_charge
 _atom_site_pbe_ddec_spin_density
 _atom_site_pbe_ddec_sum_bond_order
 _atom_site_pbe_magmom
Zn  Zn0  1  0.31520554  0.39111843  0.28956725  1  0  1.151689  0  1.724381  0  0  0.976248  0  2.20821  0  0  1.028797  0  2.140175  0  0  0.666129  0.939074  0  2.255369  0
Zn  Zn1  1  0.68479377  0.60888007  0.71043247  1  0  1.151688  0  1.724439  0  0  0.976244  0  2.208255  0  0  1.028794  0  2.140221  0  0  0.666117  0.939073  0  2.255416  0
H  H2  1  0.38010598  0.68486812  0.39509569  1  0  0.41438  0  0.829727  0  0  0.402468  0  0.875563  0  0  0.410357  0  0.866848  0  0  0.324524  0.396823  0  0.881905  0
H  H3  1  0.61990703  0.31513163  0.60490067  1  0  0.414514  0  0.82939  0  0  0.402592  0  0.875259  0  0  0.410482  0  0.866537  0  0  0.324551  0.396946  0  0.881606  0
H  H4  1  0.52309176  0.65721534  0.44656951  1  0  0.445464  0  0.858614  0  0  0.409919  0  0.927894  0  0  0.422382  0  0.910068  0  0  0.289751  0.401152  0  0.940405  0
H  H5  1  0.47691524  0.34278319  0.55342845  1  0  0.445365  0  0.85876  0  0  0.409904  0  0.927923  0  0  0.422367  0  0.910097  0  0  0.289681  0.401137  0  0.940434  0
H  H6  1  0.34780832  0.88178164  0.05414791  1  0  0.095902  0  0.963498  0  0  0.104308  0  1.028325  0  0  0.107172  0  1.027344  0  0  0.100902  0.102237  0  1.029152  0
H  H7  1  0.65219145  0.11821792  0.94584652  1  0  0.095892  0  0.963462  0  0  0.104249  0  1.028342  0  0  0.107111  0  1.027368  0  0  0.100869  0.102179  0  1.029167  0
H  H8  1  0.53500274  0.74750723  0.00910957  1  0  0.102897  0  0.945566  0  0  0.115098  0  1.004379  0  0  0.118094  0  1.002714  0  0  0.105707  0.112856  0  1.005873  0
H  H9  1  0.46499743  0.25249590  0.99088347  1  0  0.102861  0  0.945575  0  0  0.115067  0  1.004385  0  0  0.118063  0  1.002718  0  0  0.105694  0.112826  0  1.005875  0
H  H10  1  0.92749277  0.16164871  0.22490104  1  0  0.114735  0  0.963436  0  0  0.122579  0  1.028878  0  0  0.126525  0  1.026053  0  0  0.103227  0.1197  0  1.031046  0
H  H11  1  0.07250342  0.83834501  0.77510112  1  0  0.114805  0  0.963414  0  0  0.122605  0  1.028903  0  0  0.126551  0  1.026078  0  0  0.103225  0.119728  0  1.03107  0
H  H12  1  0.74028752  0.29198147  0.26956385  1  0  0.096507  0  0.952532  0  0  0.107077  0  1.011854  0  0  0.110363  0  1.009576  0  0  0.10299  0.104899  0  1.012941  0
H  H13  1  0.25970646  0.70801219  0.73043683  1  0  0.096577  0  0.952514  0  0  0.107113  0  1.011863  0  0  0.110399  0  1.009585  0  0  0.103013  0.104936  0  1.012949  0
H  H14  1  0.79549770  0.76010013  0.01853192  1  0  0.107645  0  0.946058  0  0  0.118299  0  1.012358  0  0  0.119069  0  1.012292  0  0  0.119287  0.11749  0  1.01264  0
H  H15  1  0.20450392  0.23989605  0.98147021  1  0  0.107579  0  0.94605  0  0  0.118249  0  1.012366  0  0  0.119018  0  1.012304  0  0  0.119287  0.117439  0  1.012649  0
H  H16  1  0.97102284  0.94680293  0.08354127  1  0  0.117402  0  0.90741  0  0  0.134753  0  0.959605  0  0  0.136555  0  0.957993  0  0  0.128224  0.133493  0  0.960791  0
H  H17  1  0.02897757  0.05319560  0.91645918  1  0  0.117359  0  0.907527  0  0  0.13473  0  0.959717  0  0  0.136533  0  0.958103  0  0  0.12823  0.133472  0  0.9609  0
H  H18  1  0.63203648  0.65162302  0.14783607  1  0  0.125205  0  0.943352  0  0  0.131603  0  1.006874  0  0  0.134888  0  1.003776  0  0  0.135457  0.129207  0  1.009083  0
H  H19  1  0.36796385  0.34837793  0.85216483  1  0  0.1252  0  0.943303  0  0  0.131585  0  1.006827  0  0  0.134869  0  1.003729  0  0  0.135446  0.129187  0  1.009037  0
H  H20  1  0.67524519  0.52671009  0.26869751  1  0  0.138401  0  0.975386  0  0  0.145252  0  1.032967  0  0  0.149159  0  1.031716  0  0  0.118831  0.142341  0  1.033919  0
H  H21  1  0.32475081  0.47328840  0.73130276  1  0  0.138383  0  0.975389  0  0  0.145229  0  1.033004  0  0  0.149143  0  1.031744  0  0  0.118802  0.142322  0  1.033949  0
H  H22  1  0.96093019  0.61074393  0.35343432  1  0  0.102734  0  0.908845  0  0  0.118348  0  0.957366  0  0  0.120563  0  0.955841  0  0  0.12074  0.116662  0  0.958489  0
H  H23  1  0.03906625  0.38925823  0.64656801  1  0  0.10275  0  0.9088  0  0  0.118358  0  0.957326  0  0  0.12057  0  0.955803  0  0  0.120763  0.116672  0  0.958448  0
H  H24  1  0.19290591  0.81502037  0.30948472  1  0  0.110092  0  0.922855  0  0  0.124933  0  0.970273  0  0  0.127566  0  0.970649  0  0  0.119223  0.122943  0  0.97031  0
H  H25  1  0.80709047  0.18498429  0.69052082  1  0  0.110066  0  0.92282  0  0  0.124917  0  0.970237  0  0  0.127549  0  0.970618  0  0  0.119214  0.122932  0  0.97027  0
H  H26  1  0.13039381  0.92946451  0.18488316  1  0  0.119971  0  0.990914  0  0  0.125435  0  1.055547  0  0  0.129068  0  1.05225  0  0  0.131253  0.122868  0  1.057872  0
H  H27  1  0.86960469  0.07054260  0.81512291  1  0  0.120017  0  0.990857  0  0  0.125432  0  1.055553  0  0  0.129066  0  1.05225  0  0  0.131268  0.122863  0  1.057879  0
H  H28  1  0.29798735  0.10793134  0.55528570  1  0  0.094094  0  0.967904  0  0  0.102954  0  1.030251  0  0  0.106887  0  1.027292  0  0  0.100301  0.100069  0  1.032536  0
H  H29  1  0.70201622  0.89207213  0.44471785  1  0  0.094109  0  0.967881  0  0  0.102926  0  1.030285  0  0  0.106854  0  1.027323  0  0  0.100316  0.100042  0  1.03257  0
H  H30  1  0.89190188  0.09794921  0.38327546  1  0  0.102388  0  0.95474  0  0  0.109903  0  1.018866  0  0  0.113232  0  1.017227  0  0  0.102181  0.107494  0  1.020118  0
H  H31  1  0.10810168  0.90205424  0.61672740  1  0  0.102373  0  0.954774  0  0  0.109908  0  1.018878  0  0  0.113238  0  1.017237  0  0  0.102173  0.107498  0  1.02013  0
H  H32  1  0.90242901  0.37704943  0.12604461  1  0  0.095325  0  0.977776  0  0  0.103584  0  1.043464  0  0  0.105998  0  1.043503  0  0  0.097798  0.101862  0  1.043396  0
H  H33  1  0.09756770  0.62294549  0.87395709  1  0  0.095337  0  0.977815  0  0  0.103527  0  1.043568  0  0  0.105962  0  1.043587  0  0  0.09782  0.101806  0  1.0435  0
H  H34  1  0.29092322  0.59414465  0.98971554  1  0  0.091854  0  0.975529  0  0  0.101683  0  1.040142  0  0  0.104775  0  1.038135  0  0  0.100977  0.099419  0  1.041783  0
H  H35  1  0.70907654  0.40585757  0.01028763  1  0  0.091915  0  0.97549  0  0  0.101724  0  1.040115  0  0  0.104817  0  1.038109  0  0  0.100981  0.09946  0  1.041755  0
C  C36  1  0.41989023  0.17328422  0.18913212  1  0  0.635701  0  3.925219  0  0  0.586843  0  4.217038  0  0  0.621142  0  4.210253  0  0  0.201684  0.563496  0  4.2211  0
C  C37  1  0.58010694  0.82671177  0.81086499  1  0  0.635658  0  3.92528  0  0  0.586786  0  4.217108  0  0  0.621084  0  4.210324  0  0  0.201631  0.563438  0  4.221171  0
C  C38  1  0.53256604  0.09413449  0.16456725  1  0  -0.070021  0  3.768337  0  0  -0.045667  0  3.994733  0  0  -0.054696  0  4.019758  0  0  -0.020489  -0.040132  0  3.978236  0
C  C39  1  0.46743163  0.90586270  0.83542942  1  0  -0.070032  0  3.768162  0  0  -0.045661  0  3.994532  0  0  -0.054691  0  4.019556  0  0  -0.020464  -0.040127  0  3.978035  0
C  C40  1  0.47451531  0.94036713  0.09158710  1  0  -0.06205  0  3.747096  0  0  -0.083745  0  3.991997  0  0  -0.084026  0  4.014544  0  0  -0.082813  -0.083427  0  3.976905  0
C  C41  1  0.52548594  0.05963596  0.90840391  1  0  -0.062063  0  3.746933  0  0  -0.08373  0  3.991873  0  0  -0.084013  0  4.014422  0  0  -0.082838  -0.083414  0  3.976781  0
C  C42  1  0.57818261  0.86613050  0.06696494  1  0  -0.109788  0  3.728868  0  0  -0.133033  0  3.982866  0  0  -0.136667  0  4.004164  0  0  -0.085971  -0.13088  0  3.968599  0
C  C43  1  0.42181496  0.13386907  0.93303078  1  0  -0.109863  0  3.728621  0  0  -0.133109  0  3.982621  0  0  -0.136742  0  4.003921  0  0  -0.086019  -0.130956  0  3.968356  0
C  C44  1  0.74115371  0.94480865  0.11479293  1  0  0.077556  0  3.754424  0  0  0.095503  0  3.99779  0  0  0.095978  0  4.021541  0  0  -0.010254  0.095476  0  3.981439  0
C  C45  1  0.25883847  0.05518856  0.88520627  1  0  0.077564  0  3.754397  0  0  0.09554  0  3.99776  0  0  0.096015  0  4.02151  0  0  -0.010252  0.095515  0  3.981405  0
C  C46  1  0.80019015  0.09899110  0.18782623  1  0  -0.122201  0  3.725278  0  0  -0.142538  0  3.975512  0  0  -0.146261  0  3.995673  0  0  -0.092019  -0.140062  0  3.961821  0
C  C47  1  0.19980743  0.90100852  0.81217088  1  0  -0.122261  0  3.725301  0  0  -0.142566  0  3.975519  0  0  -0.146288  0  3.99568  0  0  -0.091981  -0.140091  0  3.961827  0
C  C48  1  0.69607380  0.17257387  0.21265311  1  0  -0.068689  0  3.748586  0  0  -0.089538  0  3.993757  0  0  -0.089176  0  4.014295  0  0  -0.086584  -0.089299  0  3.979256  0
C  C49  1  0.30392016  0.82741973  0.78734550  1  0  -0.068769  0  3.748469  0  0  -0.08959  0  3.993628  0  0  -0.089228  0  4.014164  0  0  -0.086618  -0.089352  0  3.979129  0
C  C50  1  0.85120186  0.86236048  0.08827866  1  0  -0.067898  0  3.57525  0  0  -0.13576  0  3.821449  0  0  -0.131299  0  3.830103  0  0  -0.043777  -0.13862  0  3.815456  0
C  C51  1  0.14879576  0.13763923  0.91172190  1  0  -0.067581  0  3.575297  0  0  -0.135518  0  3.821582  0  0  -0.131058  0  3.830232  0  0  -0.043713  -0.13838  0  3.81559  0
C  C52  1  0.75368838  0.68472031  0.18608734  1  0  0.094856  0  3.556055  0  0  0.055077  0  3.800276  0  0  0.062548  0  3.816728  0  0  0.07628  0.050597  0  3.789055  0
C  C53  1  0.24631018  0.31528427  0.81391483  1  0  0.094812  0  3.555971  0  0  0.0551  0  3.800137  0  0  0.062571  0  3.816591  0  0  0.07626  0.050621  0  3.788917  0
C  C54  1  0.77975316  0.61773124  0.25442564  1  0  -0.098317  0  3.67582  0  0  -0.11087  0  3.930442  0  0  -0.119628  0  3.951812  0  0  -0.064324  -0.104908  0  3.915388  0
C  C55  1  0.22024167  0.38226969  0.74557641  1  0  -0.098252  0  3.675787  0  0  -0.110856  0  3.930416  0  0  -0.119623  0  3.951784  0  0  -0.064253  -0.104896  0  3.915362  0
C  C56  1  0.93838410  0.66353056  0.30016879  1  0  0.026936  0  3.675691  0  0  -0.0018  0  3.940223  0  0  0.00451  0  3.956509  0  0  -0.042926  -0.005762  0  3.928617  0
C  C57  1  0.06161294  0.33647040  0.69983335  1  0  0.026983  0  3.675677  0  0  -0.001719  0  3.940193  0  0  0.004594  0  3.956478  0  0  -0.042924  -0.005681  0  3.928591  0
C  C58  1  0.06715777  0.77621207  0.27629244  1  0  -0.092081  0  3.724965  0  0  -0.108961  0  3.990345  0  0  -0.117174  0  4.012373  0  0  -0.065232  -0.103693  0  3.975653  0
C  C59  1  0.93284287  0.22379754  0.72371624  1  0  -0.092074  0  3.725059  0  0  -0.108969  0  3.990426  0  0  -0.117183  0  4.012454  0  0  -0.065233  -0.103705  0  3.975726  0
C  C60  1  0.03589546  0.84059258  0.20754706  1  0  0.092784  0  3.55798  0  0  0.050796  0  3.806908  0  0  0.058316  0  3.823503  0  0  0.072415  0.045846  0  3.795684  0
C  C61  1  0.96410429  0.15940960  0.79245472  1  0  0.092732  0  3.55808  0  0  0.050774  0  3.807019  0  0  0.058296  0  3.823611  0  0  0.072385  0.04583  0  3.795787  0
C  C62  1  0.22038661  0.23555161  0.42477271  1  0  0.643841  0  3.913471  0  0  0.594091  0  4.204666  0  0  0.628373  0  4.197676  0  0  0.207301  0.57092  0  4.208438  0
C  C63  1  0.77961542  0.76444817  0.57522872  1  0  0.644009  0  3.913401  0  0  0.594229  0  4.204588  0  0  0.628512  0  4.197596  0  0  0.207409  0.571059  0  4.20836  0
C  C64  1  0.10691672  0.11594212  0.46505130  1  0  -0.066709  0  3.764699  0  0  -0.043761  0  3.997912  0  0  -0.050785  0  4.021591  0  0  -0.019598  -0.039147  0  3.981843  0
C  C65  1  0.89308148  0.88405637  0.53494837  1  0  -0.066802  0  3.764693  0  0  -0.043802  0  3.997858  0  0  -0.050827  0  4.021534  0  0  -0.019659  -0.039188  0  3.981789  0
C  C66  1  0.16734369  0.05962583  0.53054114  1  0  -0.085979  0  3.762743  0  0  -0.107204  0  4.011331  0  0  -0.108978  0  4.032839  0  0  -0.089849  -0.10594  0  3.996776  0
C  C67  1  0.83265597  0.94037879  0.46946177  1  0  -0.08596  0  3.76269  0  0  -0.107176  0  4.011288  0  0  -0.10894  0  4.032786  0  0  -0.089866  -0.105915  0  3.996739  0
C  C68  1  0.93831607  0.05522199  0.43496120  1  0  -0.080385  0  3.744394  0  0  -0.103751  0  3.995605  0  0  -0.104668  0  4.01653  0  0  -0.088757  -0.102976  0  3.981355  0
C  C69  1  0.06168316  0.94477897  0.56504034  1  0  -0.08039  0  3.74443  0  0  -0.103794  0  3.995635  0  0  -0.10471  0  4.016563  0  0  -0.088764  -0.103017  0  3.981383  0
C  C70  1  0.22679465  0.47199891  0.13456216  1  0  0.63158  0  3.947254  0  0  0.586433  0  4.237467  0  0  0.620795  0  4.229196  0  0  0.196256  0.563184  0  4.242059  0
C  C71  1  0.77320847  0.52800082  0.86543725  1  0  0.631441  0  3.947111  0  0  0.586297  0  4.237328  0  0  0.620657  0  4.229062  0  0  0.196215  0.563047  0  4.241916  0
C  C72  1  0.10877708  0.48609092  0.06524395  1  0  -0.063634  0  3.760454  0  0  -0.041033  0  3.991863  0  0  -0.047689  0  4.014128  0  0  -0.022801  -0.03657  0  3.976692  0
C  C73  1  0.89122283  0.51390640  0.93475626  1  0  -0.063648  0  3.76049  0  0  -0.041049  0  3.991871  0  0  -0.047705  0  4.014142  0  0  -0.022834  -0.03658  0  3.976686  0
C  C74  1  0.94418190  0.43122626  0.07086819  1  0  -0.08223  0  3.752133  0  0  -0.103909  0  3.999877  0  0  -0.10471  0  4.021032  0  0  -0.091681  -0.103269  0  3.985634  0
C  C75  1  0.05582050  0.56877966  0.92913713  1  0  -0.082255  0  3.752251  0  0  -0.103871  0  4.000001  0  0  -0.10469  0  4.021138  0  0  -0.091752  -0.103242  0  3.985774  0
C  C76  1  0.16313565  0.55413870  0.99365758  1  0  -0.089793  0  3.769887  0  0  -0.114261  0  4.022129  0  0  -0.115424  0  4.04295  0  0  -0.092477  -0.113319  0  4.007976  0
C  C77  1  0.83686280  0.44585248  0.00633939  1  0  -0.089913  0  3.769847  0  0  -0.114368  0  4.022123  0  0  -0.115534  0  4.042941  0  0  -0.092514  -0.113428  0  4.007969  0
N  N78  1  0.88128114  0.79423311  0.16414151  1  0  0.005415  0  3.525246  0  0  0.101806  0  3.733149  0  0  0.087424  0  3.76075  0  0  -0.198447  0.11113  0  3.714461  0
N  N79  1  0.11871581  0.20577024  0.83586038  1  0  0.005313  0  3.525255  0  0  0.101708  0  3.733167  0  0  0.087327  0  3.760763  0  0  -0.198458  0.111031  0  3.714478  0
O  O80  1  0.45039953  0.63004345  0.38087571  1  0  -0.83123  0  1.887552  0  0  -0.769536  0  2.097958  0  0  -0.790817  0  2.063116  0  0  -0.56401  -0.754711  0  2.122324  0
O  O81  1  0.54960975  0.36995265  0.61912053  1  0  -0.831296  0  1.887383  0  0  -0.769668  0  2.097697  0  0  -0.790949  0  2.062851  0  0  -0.563967  -0.754842  0  2.122068  0
O  O82  1  0.48221781  0.31439924  0.25881346  1  0  -0.659126  0  2.085116  0  0  -0.583593  0  2.352002  0  0  -0.613911  0  2.336093  0  0  -0.326642  -0.562187  0  2.362189  0
O  O83  1  0.51777938  0.68559682  0.74118572  1  0  -0.65915  0  2.085162  0  0  -0.583589  0  2.35203  0  0  -0.613908  0  2.336121  0  0  -0.326655  -0.562184  0  2.362219  0
O  O84  1  0.27428008  0.10358565  0.14458191  1  0  -0.622748  0  1.936502  0  0  -0.579573  0  2.165371  0  0  -0.60232  0  2.155555  0  0  -0.32502  -0.564184  0  2.171754  0
O  O85  1  0.72571801  0.89641516  0.85541474  1  0  -0.622712  0  1.936585  0  0  -0.579512  0  2.165434  0  0  -0.602256  0  2.155616  0  0  -0.324961  -0.564131  0  2.171841  0
O  O86  1  0.15427336  0.26135773  0.35448883  1  0  -0.651299  0  2.041072  0  0  -0.583388  0  2.309306  0  0  -0.612608  0  2.293286  0  0  -0.322955  -0.562883  0  2.319539  0
O  O87  1  0.84572603  0.73863835  0.64551045  1  0  -0.651296  0  2.041073  0  0  -0.58339  0  2.309338  0  0  -0.612613  0  2.293319  0  0  -0.322932  -0.562885  0  2.319567  0
O  O88  1  0.37169311  0.30269160  0.45711595  1  0  -0.617104  0  1.997204  0  0  -0.561553  0  2.210638  0  0  -0.586056  0  2.198982  0  0  -0.315047  -0.54441  0  2.218065  0
O  O89  1  0.62830898  0.69730568  0.54288228  1  0  -0.617268  0  1.997155  0  0  -0.561666  0  2.210605  0  0  -0.586171  0  2.19895  0  0  -0.315159  -0.544522  0  2.218031  0
O  O90  1  0.17316876  0.44052476  0.21036656  1  0  -0.676548  0  2.034515  0  0  -0.604974  0  2.305513  0  0  -0.635247  0  2.289421  0  0  -0.341936  -0.583679  0  2.315674  0
O  O91  1  0.82683376  0.55947618  0.78963305  1  0  -0.676457  0  2.034538  0  0  -0.604864  0  2.305498  0  0  -0.635137  0  2.289414  0  0  -0.341878  -0.583569  0  2.315661  0
O  O92  1  0.36367846  0.48803478  0.11645898  1  0  -0.617422  0  1.899994  0  0  -0.576466  0  2.122973  0  0  -0.598319  0  2.112844  0  0  -0.327752  -0.561104  0  2.129395  0
O  O93  1  0.63632041  0.51196006  0.88353936  1  0  -0.617362  0  1.899794  0  0  -0.576401  0  2.12276  0  0  -0.598254  0  2.112634  0  0  -0.327734  -0.561038  0  2.12918  0
