# generated using pymatgen
data_CdH15C20NO6
_symmetry_space_group_name_H-M   'P 1'
_cell_length_a   9.48376076
_cell_length_b   9.76523026
_cell_length_c   10.77196279
_cell_angle_alpha   88.49927400
_cell_angle_beta   72.57539341
_cell_angle_gamma   69.45680754
_symmetry_Int_Tables_number   1
_chemical_formula_structural   CdH15C20NO6
_chemical_formula_sum   'Cd2 H30 C40 N2 O12'
_cell_volume   887.81508564
_cell_formula_units_Z   2
loop_
 _symmetry_equiv_pos_site_id
 _symmetry_equiv_pos_as_xyz
  1  'x, y, z'
loop_
 _atom_site_type_symbol
 _atom_site_label
 _atom_site_symmetry_multiplicity
 _atom_site_fract_x
 _atom_site_fract_y
 _atom_site_fract_z
 _atom_site_occupancy
 _atom_site_hle17_bader_spin_density
 _atom_site_hle17_ddec_charge
 _atom_site_hle17_ddec_spin_density
 _atom_site_hle17_ddec_sum_bond_order
 _atom_site_hle17_magmom
 _atom_site_hse06_10hf_bader_spin_density
 _atom_site_hse06_10hf_ddec_charge
 _atom_site_hse06_10hf_ddec_spin_density
 _atom_site_hse06_10hf_ddec_sum_bond_order
 _atom_site_hse06_10hf_magmom
 _atom_site_hse06_bader_spin_density
 _atom_site_hse06_ddec_charge
 _atom_site_hse06_ddec_spin_density
 _atom_site_hse06_ddec_sum_bond_order
 _atom_site_hse06_magmom
 _atom_site_pbe_bader_spin_density
 _atom_site_pbe_cm5_charge
 _atom_site_pbe_ddec_charge
 _atom_site_pbe_ddec_spin_density
 _atom_site_pbe_ddec_sum_bond_order
 _atom_site_pbe_magmom
Cd  Cd0  1  0.65063997  0.57310356  0.15168704  1  0  1.153142  0  1.599545  0  0  0.965818  0  2.040425  0  0  1.025889  0  1.984109  0  0  0.768761  0.923751  0  2.078103  0
Cd  Cd1  1  0.34936137  0.42689603  0.84831073  1  0  1.15315  0  1.599563  0  0  0.965804  0  2.040461  0  0  1.025882  0  1.98414  0  0  0.768756  0.923739  0  2.078142  0
H  H2  1  0.73175134  0.42678190  0.90889802  1  0  0.433424  0  0.870138  0  0  0.396542  0  0.943896  0  0  0.40898  0  0.925791  0  0  0.285378  0.387735  0  0.956714  0
H  H3  1  0.26824926  0.57321666  0.09110462  1  0  0.433407  0  0.87016  0  0  0.396522  0  0.943926  0  0  0.408965  0  0.925814  0  0  0.285384  0.387717  0  0.956743  0
H  H4  1  0.88983425  0.45949594  0.90208757  1  0  0.439272  0  0.861161  0  0  0.404225  0  0.930934  0  0  0.416825  0  0.912829  0  0  0.28723  0.395305  0  0.94372  0
H  H5  1  0.11016516  0.54050584  0.09790971  1  0  0.439296  0  0.861122  0  0  0.404228  0  0.930908  0  0  0.416825  0  0.912808  0  0  0.287263  0.395308  0  0.943692  0
H  H6  1  0.66492174  0.41819321  0.40822681  1  0  0.08692  0  0.951091  0  0  0.094944  0  1.014548  0  0  0.09749  0  1.013148  0  0  0.116524  0.093352  0  1.015067  0
H  H7  1  0.33507681  0.58181079  0.59177248  1  0  0.086873  0  0.951101  0  0  0.094928  0  1.014532  0  0  0.097473  0  1.013132  0  0  0.116523  0.093335  0  1.015051  0
H  H8  1  0.61953093  0.20646182  0.52420296  1  0  0.111159  0  0.940303  0  0  0.125216  0  0.99332  0  0  0.128166  0  0.992356  0  0  0.113057  0.123328  0  0.993586  0
H  H9  1  0.38047242  0.79354110  0.47579791  1  0  0.111158  0  0.940344  0  0  0.125235  0  0.993345  0  0  0.128184  0  0.992381  0  0  0.113062  0.123347  0  0.993611  0
H  H10  1  0.46268378  0.10948105  0.21061164  1  0  0.116491  0  0.951882  0  0  0.125438  0  1.014429  0  0  0.128565  0  1.01386  0  0  0.111414  0.12329  0  1.014817  0
H  H11  1  0.53731990  0.89051528  0.78938841  1  0  0.116551  0  0.951893  0  0  0.125473  0  1.014454  0  0  0.1286  0  1.013888  0  0  0.111443  0.123325  0  1.014841  0
H  H12  1  0.50512455  0.33261861  0.11155523  1  0  0.085812  0  0.957595  0  0  0.095349  0  1.01979  0  0  0.097349  0  1.018338  0  0  0.116129  0.093778  0  1.0211  0
H  H13  1  0.49487494  0.66737996  0.88844769  1  0  0.085783  0  0.957601  0  0  0.095329  0  1.019781  0  0  0.097329  0  1.018324  0  0  0.116101  0.093757  0  1.021091  0
H  H14  1  0.48815989  0.93867881  0.37387126  1  0  0.105765  0  0.949573  0  0  0.115466  0  1.011972  0  0  0.118625  0  1.010458  0  0  0.107361  0.113152  0  1.013212  0
H  H15  1  0.51184857  0.06131646  0.62613224  1  0  0.105819  0  0.949549  0  0  0.115531  0  1.011902  0  0  0.11869  0  1.01039  0  0  0.107387  0.113218  0  1.01314  0
H  H16  1  0.37671149  0.04903973  0.04509274  1  0  0.094748  0  0.975651  0  0  0.102714  0  1.042413  0  0  0.105834  0  1.040107  0  0  0.101223  0.100336  0  1.044353  0
H  H17  1  0.62328914  0.95095879  0.95490710  1  0  0.094791  0  0.975702  0  0  0.102765  0  1.04244  0  0  0.105884  0  1.040135  0  0  0.101239  0.100387  0  1.044381  0
H  H18  1  0.15113733  0.26732077  0.02959971  1  0  0.101921  0  0.963242  0  0  0.112204  0  1.024699  0  0  0.114988  0  1.023385  0  0  0.102383  0.110066  0  1.026049  0
H  H19  1  0.84886440  0.73267776  0.97040078  1  0  0.101894  0  0.963248  0  0  0.112188  0  1.024705  0  0  0.11497  0  1.02339  0  0  0.102383  0.110051  0  1.026055  0
H  H20  1  0.87902770  0.26175870  0.10259160  1  0  0.076858  0  0.976198  0  0  0.084325  0  1.046201  0  0  0.08706  0  1.04401  0  0  0.096671  0.08251  0  1.047464  0
H  H21  1  0.12097362  0.73824092  0.89740804  1  0  0.076836  0  0.976215  0  0  0.084297  0  1.04623  0  0  0.087031  0  1.044038  0  0  0.096659  0.082483  0  1.047493  0
H  H22  1  0.83487006  0.03477726  0.18854000  1  0  0.108506  0  0.96245  0  0  0.117615  0  1.024748  0  0  0.119907  0  1.025838  0  0  0.103554  0.115881  0  1.02456  0
H  H23  1  0.16512974  0.96522345  0.81145906  1  0  0.108485  0  0.962491  0  0  0.117601  0  1.024776  0  0  0.119888  0  1.025879  0  0  0.103551  0.115867  0  1.024588  0
H  H24  1  0.12991437  0.88888192  0.39012230  1  0  0.104985  0  0.97012  0  0  0.114943  0  1.032873  0  0  0.117738  0  1.032559  0  0  0.100702  0.113047  0  1.033251  0
H  H25  1  0.87008169  0.11111990  0.60987769  1  0  0.104997  0  0.970199  0  0  0.114955  0  1.032938  0  0  0.117751  0  1.032624  0  0  0.100709  0.11306  0  1.033314  0
H  H26  1  0.05278671  0.83647276  0.62238631  1  0  0.075764  0  0.993467  0  0  0.083066  0  1.062712  0  0  0.084559  0  1.063915  0  0  0.091614  0.082239  0  1.061471  0
H  H27  1  0.94720910  0.16352686  0.37761288  1  0  0.075769  0  0.993525  0  0  0.083076  0  1.062762  0  0  0.084577  0  1.063936  0  0  0.091605  0.082249  0  1.061517  0
H  H28  1  0.88086172  0.68803658  0.69725461  1  0  0.095438  0  0.959566  0  0  0.105453  0  1.02125  0  0  0.108188  0  1.021175  0  0  0.09734  0.103326  0  1.021553  0
H  H29  1  0.11913520  0.31196304  0.30274429  1  0  0.095445  0  0.959598  0  0  0.10549  0  1.021248  0  0  0.108227  0  1.021171  0  0  0.097361  0.103363  0  1.021553  0
H  H30  1  0.78444611  0.59642496  0.53690311  1  0  0.096614  0  0.937835  0  0  0.108439  0  0.994596  0  0  0.111078  0  0.993814  0  0  0.103361  0.106631  0  0.995201  0
H  H31  1  0.21554889  0.40357683  0.46309436  1  0  0.096629  0  0.937841  0  0  0.10845  0  0.994601  0  0  0.111088  0  0.993821  0  0  0.103376  0.106641  0  0.995207  0
C  C32  1  0.61870916  0.34723910  0.36904891  1  0  0.117988  0  3.727697  0  0  0.087223  0  3.98097  0  0  0.094026  0  4.000009  0  0  0.041858  0.082918  0  3.967063  0
C  C33  1  0.38129283  0.65276162  0.63095144  1  0  0.118066  0  3.727648  0  0  0.087275  0  3.980931  0  0  0.09408  0  3.999969  0  0  0.041903  0.082974  0  3.967023  0
C  C34  1  0.59351536  0.22874944  0.43243678  1  0  -0.134039  0  3.677579  0  0  -0.152674  0  3.92594  0  0  -0.158722  0  3.944131  0  0  -0.071951  -0.147903  0  3.91231  0
C  C35  1  0.40648884  0.77125128  0.56756394  1  0  -0.134066  0  3.677589  0  0  -0.152698  0  3.926018  0  0  -0.158747  0  3.944208  0  0  -0.071989  -0.147927  0  3.912388  0
C  C36  1  0.53616926  0.13892462  0.37699714  1  0  0.144948  0  3.786339  0  0  0.157032  0  4.020627  0  0  0.163531  0  4.040782  0  0  0.01656  0.153128  0  4.006276  0
C  C37  1  0.46383953  0.86107279  0.62300157  1  0  0.144889  0  3.786295  0  0  0.156846  0  4.020738  0  0  0.163347  0  4.040886  0  0  0.016535  0.152942  0  4.00639  0
C  C38  1  0.50669806  0.17598673  0.25771998  1  0  -0.156909  0  3.670823  0  0  -0.171157  0  3.913965  0  0  -0.179366  0  3.934341  0  0  -0.075259  -0.166351  0  3.900484  0
C  C39  1  0.49330631  0.82401070  0.74227986  1  0  -0.156901  0  3.670804  0  0  -0.171089  0  3.913982  0  0  -0.179296  0  3.934357  0  0  -0.075272  -0.166283  0  3.900499  0
C  C40  1  0.53125336  0.29866919  0.20174909  1  0  0.134468  0  3.708095  0  0  0.103287  0  3.956774  0  0  0.111114  0  3.975861  0  0  0.044774  0.097889  0  3.944593  0
C  C41  1  0.46874946  0.70132935  0.79825205  1  0  0.13445  0  3.708132  0  0  0.103271  0  3.956796  0  0  0.111099  0  3.975883  0  0  0.044784  0.097873  0  3.944616  0
C  C42  1  0.50499382  0.01328956  0.43726075  1  0  -0.084306  0  3.675031  0  0  -0.105318  0  3.925928  0  0  -0.108531  0  3.94604  0  0  -0.071242  -0.102986  0  3.912202  0
C  C43  1  0.49501605  0.98670786  0.56273954  1  0  -0.084333  0  3.675019  0  0  -0.105261  0  3.925922  0  0  -0.108473  0  3.946032  0  0  -0.071221  -0.10293  0  3.912198  0
C  C44  1  0.37626375  0.79113945  0.13307381  1  0  0.644265  0  3.927222  0  0  0.593404  0  4.220389  0  0  0.628275  0  4.213696  0  0  0.195402  0.569796  0  4.223764  0
C  C45  1  0.62373889  0.20886240  0.86692913  1  0  0.644186  0  3.927328  0  0  0.593297  0  4.220559  0  0  0.628172  0  4.213863  0  0  0.195347  0.56969  0  4.223931  0
C  C46  1  0.23502701  0.91840312  0.12591073  1  0  -0.169987  0  3.747845  0  0  -0.154279  0  3.989083  0  0  -0.164664  0  4.011011  0  0  -0.027543  -0.147404  0  3.974294  0
C  C47  1  0.76497451  0.08159318  0.87408616  1  0  -0.169885  0  3.747851  0  0  -0.154239  0  3.989157  0  0  -0.164631  0  4.011097  0  0  -0.027553  -0.147363  0  3.974366  0
C  C48  1  0.25719247  0.04728348  0.07817385  1  0  -0.05577  0  3.737113  0  0  -0.079268  0  3.98801  0  0  -0.078378  0  4.008602  0  0  -0.081716  -0.079503  0  3.973647  0
C  C49  1  0.74280864  0.95271390  0.92182219  1  0  -0.055859  0  3.737217  0  0  -0.079334  0  3.988139  0  0  -0.078445  0  4.008733  0  0  -0.081729  -0.07957  0  3.973777  0
C  C50  1  0.13109455  0.16981418  0.06917568  1  0  -0.068155  0  3.736354  0  0  -0.083181  0  3.985953  0  0  -0.086344  0  4.006412  0  0  -0.089788  -0.081025  0  3.97199  0
C  C51  1  0.86890723  0.83018430  0.93082108  1  0  -0.068107  0  3.736319  0  0  -0.083162  0  3.985949  0  0  -0.086321  0  4.006404  0  0  -0.089806  -0.081005  0  3.971989  0
C  C52  1  0.97810743  0.16688066  0.11063099  1  0  -0.017808  0  3.742905  0  0  -0.033631  0  3.994964  0  0  -0.032336  0  4.014325  0  0  -0.0806  -0.034199  0  3.981489  0
C  C53  1  0.02189414  0.83312116  0.88936944  1  0  -0.017745  0  3.742803  0  0  -0.033555  0  3.99487  0  0  -0.032258  0  4.014229  0  0  -0.080514  -0.03412  0  3.981386  0
C  C54  1  0.95245209  0.04125126  0.15922554  1  0  -0.177053  0  3.754573  0  0  -0.198507  0  4.009363  0  0  -0.204129  0  4.030151  0  0  -0.097813  -0.195421  0  3.99607  0
C  C55  1  0.04754888  0.95874940  0.84076951  1  0  -0.177027  0  3.754634  0  0  -0.198493  0  4.009403  0  0  -0.204115  0  4.030187  0  0  -0.097837  -0.195406  0  3.996112  0
C  C56  1  0.07996496  0.91748605  0.16525917  1  0  0.257325  0  3.760305  0  0  0.242522  0  4.019208  0  0  0.253349  0  4.034925  0  0  0.088747  0.235215  0  4.008506  0
C  C57  1  0.92003572  0.08251244  0.83473787  1  0  0.257189  0  3.760442  0  0  0.242451  0  4.019291  0  0  0.253281  0  4.035006  0  0  0.08872  0.235144  0  4.008587  0
C  C58  1  0.00580372  0.76690863  0.33252692  1  0  0.280438  0  3.753519  0  0  0.261883  0  4.013218  0  0  0.274941  0  4.027777  0  0  0.091568  0.253287  0  4.002835  0
C  C59  1  0.99419249  0.23308992  0.66747406  1  0  0.280516  0  3.753496  0  0  0.261906  0  4.013272  0  0  0.274963  0  4.02783  0  0  0.091577  0.25331  0  4.002887  0
C  C60  1  0.05711708  0.82191533  0.42231361  1  0  -0.210039  0  3.773057  0  0  -0.230285  0  4.026631  0  0  -0.237319  0  4.046706  0  0  -0.114321  -0.225706  0  4.013189  0
C  C61  1  0.94287633  0.17808761  0.57768795  1  0  -0.210102  0  3.773184  0  0  -0.230318  0  4.026762  0  0  -0.237355  0  4.046838  0  0  -0.114339  -0.225739  0  4.013317  0
C  C62  1  0.01234440  0.79318730  0.55297271  1  0  -0.036763  0  3.7902  0  0  -0.048069  0  4.038022  0  0  -0.045859  0  4.0583  0  0  -0.092098  -0.049992  0  4.024368  0
C  C63  1  0.98764834  0.20681454  0.44702813  1  0  -0.036822  0  3.790362  0  0  -0.048134  0  4.038188  0  0  -0.045921  0  4.058476  0  0  -0.092092  -0.050055  0  4.02453  0
C  C64  1  0.91541106  0.71070385  0.59525952  1  0  -0.103997  0  3.782515  0  0  -0.121065  0  4.038719  0  0  -0.12625  0  4.060885  0  0  -0.105629  -0.117846  0  4.02393  0
C  C65  1  0.08458282  0.28929796  0.40473918  1  0  -0.104051  0  3.782677  0  0  -0.121152  0  4.038881  0  0  -0.126339  0  4.06105  0  0  -0.105685  -0.117933  0  4.024088  0
C  C66  1  0.86243890  0.65873035  0.50572003  1  0  -0.041506  0  3.7593  0  0  -0.065001  0  4.010168  0  0  -0.062577  0  4.030569  0  0  -0.081887  -0.066625  0  3.996868  0
C  C67  1  0.13755454  0.34127257  0.49427967  1  0  -0.041419  0  3.75936  0  0  -0.064902  0  4.010228  0  0  -0.062479  0  4.030632  0  0  -0.081866  -0.066527  0  3.996931  0
C  C68  1  0.90702983  0.68435167  0.37337131  1  0  -0.167835  0  3.727677  0  0  -0.151139  0  3.968616  0  0  -0.161827  0  3.988547  0  0  -0.027673  -0.143951  0  3.955565  0
C  C69  1  0.09296447  0.31564904  0.62662731  1  0  -0.167859  0  3.727632  0  0  -0.151152  0  3.96861  0  0  -0.161838  0  3.98854  0  0  -0.027661  -0.143964  0  3.955558  0
C  C70  1  0.83936835  0.63178480  0.28390372  1  0  0.66275  0  3.893301  0  0  0.611297  0  4.184218  0  0  0.647629  0  4.175884  0  0  0.20365  0.586475  0  4.189518  0
C  C71  1  0.16062859  0.36821480  0.71609426  1  0  0.662732  0  3.893513  0  0  0.611255  0  4.184469  0  0  0.647583  0  4.176147  0  0  0.203641  0.586429  0  4.189768  0
N  N72  1  0.58802141  0.38260413  0.25541465  1  0  -0.364821  0  3.290225  0  0  -0.282287  0  3.557388  0  0  -0.304009  0  3.576063  0  0  -0.338272  -0.267706  0  3.544242  0
N  N73  1  0.41197837  0.61739660  0.74458627  1  0  -0.364793  0  3.290234  0  0  -0.282254  0  3.557405  0  0  -0.303976  0  3.57608  0  0  -0.338265  -0.267673  0  3.544258  0
O  O74  1  0.49386628  0.81882484  0.14517016  1  0  -0.630936  0  1.931368  0  0  -0.5652  0  2.168867  0  0  -0.594063  0  2.159044  0  0  -0.325743  -0.544815  0  2.174814  0
O  O75  1  0.50613630  0.18118022  0.85482620  1  0  -0.63089  0  1.931334  0  0  -0.56513  0  2.168825  0  0  -0.593999  0  2.159013  0  0  -0.325715  -0.544745  0  2.174773  0
O  O76  1  0.38003688  0.65925368  0.12555069  1  0  -0.652897  0  2.000628  0  0  -0.587251  0  2.23801  0  0  -0.615999  0  2.227465  0  0  -0.320613  -0.567491  0  2.244465  0
O  O77  1  0.61996309  0.34074615  0.87446600  1  0  -0.652906  0  2.000765  0  0  -0.587233  0  2.238157  0  0  -0.615981  0  2.227609  0  0  -0.320569  -0.567475  0  2.24461  0
O  O78  1  0.04736985  0.79168212  0.20237182  1  0  -0.309521  0  2.422392  0  0  -0.234669  0  2.647483  0  0  -0.253433  0  2.651003  0  0  -0.15296  -0.221053  0  2.644047  0
O  O79  1  0.95262926  0.20831751  0.79762838  1  0  -0.309484  0  2.422392  0  0  -0.234626  0  2.647484  0  0  -0.253389  0  2.651002  0  0  -0.152947  -0.221009  0  2.644047  0
O  O80  1  0.91735734  0.58525838  0.16468209  1  0  -0.640042  0  1.962608  0  0  -0.574264  0  2.188705  0  0  -0.602796  0  2.177444  0  0  -0.313943  -0.554589  0  2.196233  0
O  O81  1  0.08264139  0.41474232  0.83531539  1  0  -0.640084  0  1.962791  0  0  -0.57429  0  2.188887  0  0  -0.602821  0  2.177629  0  0  -0.313982  -0.554625  0  2.196443  0
O  O82  1  0.69670782  0.63671340  0.33388297  1  0  -0.644657  0  2.006248  0  0  -0.578883  0  2.257104  0  0  -0.610306  0  2.24921  0  0  -0.324522  -0.55723  0  2.261543  0
O  O83  1  0.30329144  0.36328294  0.66611729  1  0  -0.644614  0  2.006282  0  0  -0.578832  0  2.25715  0  0  -0.610255  0  2.249262  0  0  -0.324481  -0.557176  0  2.261588  0
O  O84  1  0.77059036  0.49852965  0.93943390  1  0  -0.861956  0  1.865974  0  0  -0.792311  0  2.080995  0  0  -0.817237  0  2.042009  0  0  -0.591716  -0.774674  0  2.108106  0
O  O85  1  0.22941016  0.50147213  0.06056309  1  0  -0.86197  0  1.865945  0  0  -0.792284  0  2.081013  0  0  -0.817213  0  2.042029  0  0  -0.591757  -0.774649  0  2.108123  0
