# generated using pymatgen
data_MgH8C12(NO2)2
_symmetry_space_group_name_H-M   'P 1'
_cell_length_a   9.95094898
_cell_length_b   10.50700568
_cell_length_c   13.19202629
_cell_angle_alpha   89.99965833
_cell_angle_beta   89.99997247
_cell_angle_gamma   102.78048941
_symmetry_Int_Tables_number   1
_chemical_formula_structural   MgH8C12(NO2)2
_chemical_formula_sum   'Mg4 H32 C48 N8 O16'
_cell_volume   1345.11583365
_cell_formula_units_Z   4
loop_
 _symmetry_equiv_pos_site_id
 _symmetry_equiv_pos_as_xyz
  1  'x, y, z'
loop_
 _atom_site_type_symbol
 _atom_site_label
 _atom_site_symmetry_multiplicity
 _atom_site_fract_x
 _atom_site_fract_y
 _atom_site_fract_z
 _atom_site_occupancy
 _atom_site_pbe_bader_charge
 _atom_site_pbe_bader_spin_density
 _atom_site_pbe_cm5_charge
 _atom_site_pbe_ddec_charge
 _atom_site_pbe_ddec_spin_density
 _atom_site_pbe_ddec_sum_bond_order
 _atom_site_pbe_magmom
Mg  Mg0  1  0.62716066  0.74969884  0.76312271  1  1.694895  0  0.829226  1.311907  0  1.517069  0
Mg  Mg1  1  0.37283453  0.25029929  0.26312039  1  1.694964  0  0.829282  1.311806  0  1.517127  0
Mg  Mg2  1  0.12027907  0.75090664  0.76185158  1  1.693246  0  0.835085  1.305928  0  1.523765  0
Mg  Mg3  1  0.87971914  0.24908672  0.26185210  1  1.693235  0  0.835038  1.305926  0  1.52396  0
H  H4  1  0.11267894  0.99486843  0.52777400  1  0.136454  0  0.104221  0.112401  0  1.039075  0
H  H5  1  0.88731175  0.00512175  0.02777492  1  0.136365  0  0.104194  0.112404  0  1.039056  0
H  H6  1  0.09200358  0.12931037  0.37213053  1  0.136221  0  0.119934  0.086828  0  1.056592  0
H  H7  1  0.90798548  0.87068287  0.87213139  1  0.136341  0  0.119999  0.086902  0  1.056716  0
H  H8  1  0.69198038  0.99905734  0.59801630  1  0.146718  0  0.103479  0.113568  0  1.06903  0
H  H9  1  0.30800731  0.00092833  0.09801445  1  0.146647  0  0.103467  0.113536  0  1.069187  0
H  H10  1  0.68683474  0.13223580  0.43884039  1  0.101126  0  0.113112  0.078678  0  1.019926  0
H  H11  1  0.31315678  0.86775503  0.93883924  1  0.101622  0  0.113109  0.078715  0  1.019891  0
H  H12  1  0.05677088  0.50121884  0.92324438  1  0.167981  0  0.107406  0.122053  0  1.056714  0
H  H13  1  0.94322533  0.49877514  0.42324975  1  0.168143  0  0.10742  0.122067  0  1.056719  0
H  H14  1  0.06400796  0.36305758  0.07940618  1  0.109939  0  0.115445  0.080913  0  1.011627  0
H  H15  1  0.93600059  0.63693164  0.57941118  1  0.110084  0  0.115458  0.080877  0  1.011719  0
H  H16  1  0.63705001  0.50287450  0.99923865  1  0.087962  0  0.10122  0.107259  0  1.049705  0
H  H17  1  0.36295452  0.49713072  0.49921849  1  0.087794  0  0.101244  0.107296  0  1.049688  0
H  H18  1  0.66252322  0.37180741  0.15458782  1  0.146536  0  0.117048  0.085078  0  1.061208  0
H  H19  1  0.33749365  0.62819792  0.65457112  1  0.146526  0  0.117026  0.085091  0  1.061138  0
H  H20  1  0.37025730  0.34895385  0.86840776  1  0.07615  0  0.112736  0.122207  0  0.978567  0
H  H21  1  0.62974430  0.65104651  0.36840723  1  0.076082  0  0.112718  0.122193  0  0.978693  0
H  H22  1  0.37844545  0.21850311  0.02676406  1  0.105885  0  0.115516  0.078749  0  1.040086  0
H  H23  1  0.62155091  0.78149498  0.52675940  1  0.10593  0  0.115536  0.078764  0  1.040034  0
H  H24  1  0.32259994  0.66929607  0.05978597  1  0.083041  0  0.108747  0.114829  0  1.006828  0
H  H25  1  0.67741533  0.33070608  0.55978798  1  0.083561  0  0.108772  0.114867  0  1.006823  0
H  H26  1  0.34716001  0.52931350  0.20974431  1  0.087871  0  0.122014  0.092322  0  0.991017  0
H  H27  1  0.65284258  0.47068620  0.70974339  1  0.087977  0  0.12202  0.092336  0  0.991009  0
H  H28  1  0.39271291  0.82095635  0.46765622  1  0.066552  0  0.107615  0.113777  0  1.011544  0
H  H29  1  0.60728524  0.17905674  0.96764306  1  0.066613  0  0.10759  0.113798  0  1.011406  0
H  H30  1  0.37640970  0.96272258  0.31748866  1  0.094837  0  0.122491  0.091748  0  0.981348  0
H  H31  1  0.62358859  0.03728102  0.81747996  1  0.094973  0  0.122452  0.091691  0  0.981413  0
H  H32  1  0.38622264  0.15410880  0.65767032  1  0.109753  0  0.112277  0.121029  0  0.979487  0
H  H33  1  0.61378718  0.84591576  0.15767114  1  0.110209  0  0.112281  0.121077  0  0.979372  0
H  H34  1  0.37611483  0.28271740  0.49874447  1  0.099801  0  0.116661  0.080592  0  1.032187  0
H  H35  1  0.62388789  0.71729846  0.99875224  1  0.100124  0  0.116686  0.080585  0  1.032176  0
C  C36  1  0.91152606  0.90420397  0.66625316  1  1.623164  0  0.232697  0.633471  0  4.172695  0
C  C37  1  0.08848733  0.09578468  0.16625321  1  1.623866  0  0.232714  0.633442  0  4.172323  0
C  C38  1  0.90399720  0.98852765  0.57439217  1  -0.096549  0  -0.00192  0.005944  0  3.933322  0
C  C39  1  0.09599398  0.01145538  0.07439262  1  -0.096362  0  -0.001885  0.005964  0  3.933588  0
C  C40  1  0.01767875  0.02540569  0.51036657  1  -0.038433  0  -0.082059  -0.136636  0  3.935867  0
C  C41  1  0.98231502  0.97458470  0.01036587  1  -0.038482  0  -0.081986  -0.136607  0  3.935733  0
C  C42  1  0.00640742  0.09990268  0.42493979  1  0.48853  0  0.048573  0.099745  0  3.932448  0
C  C43  1  0.99357787  0.90008714  0.92493820  1  0.488331  0  0.048476  0.09973  0  3.932336  0
C  C44  1  0.78278687  0.02848259  0.55004567  1  -0.069846  0  -0.088776  -0.160567  0  3.961047  0
C  C45  1  0.21720640  0.97151040  0.05004834  1  -0.07006  0  -0.088722  -0.160528  0  3.961325  0
C  C46  1  0.77989473  0.10166135  0.46255629  1  0.47785  0  0.043994  0.097867  0  3.969133  0
C  C47  1  0.22009189  0.89833015  0.96255654  1  0.477417  0  0.043914  0.097771  0  3.969276  0
C  C48  1  0.83525114  0.59605596  0.85788633  1  1.640061  0  0.229491  0.621611  0  4.194877  0
C  C49  1  0.16475613  0.40393296  0.35788792  1  1.640469  0  0.229452  0.621544  0  4.194518  0
C  C50  1  0.84570679  0.51200021  0.94974960  1  -0.040233  0  -0.001412  0.007667  0  3.92735  0
C  C51  1  0.15429382  0.48800531  0.44974018  1  -0.040628  0  -0.001382  0.00755  0  3.927402  0
C  C52  1  0.96709125  0.47149382  0.97219959  1  -0.043489  0  -0.0806  -0.140905  0  3.918711  0
C  C53  1  0.03290989  0.52849988  0.47220065  1  -0.043677  0  -0.080632  -0.140867  0  3.918672  0
C  C54  1  0.97139461  0.39647075  0.05874798  1  0.465664  0  0.051645  0.107877  0  3.943267  0
C  C55  1  0.02860976  0.60352728  0.55874972  1  0.465683  0  0.051678  0.107934  0  3.943372  0
C  C56  1  0.73355585  0.47433268  0.01536027  1  -0.061082  0  -0.088782  -0.154341  0  3.963364  0
C  C57  1  0.26645185  0.52566674  0.51535091  1  -0.060324  0  -0.088703  -0.154299  0  3.963071  0
C  C58  1  0.74692245  0.40027142  0.10060285  1  0.441843  0  0.040096  0.08751  0  3.956802  0
C  C59  1  0.25308526  0.59972830  0.60059011  1  0.441415  0  0.040067  0.087549  0  3.956558  0
C  C60  1  0.33820960  0.60140500  0.85816841  1  1.645138  0  0.236357  0.628695  0  4.190738  0
C  C61  1  0.66176758  0.39859389  0.35816452  1  1.645146  0  0.236319  0.628656  0  4.190513  0
C  C62  1  0.34699868  0.52050798  0.95152045  1  -0.066581  0  0.013209  0.029353  0  3.930008  0
C  C63  1  0.65300616  0.47949374  0.45151845  1  -0.06674  0  0.013303  0.029579  0  3.929814  0
C  C64  1  0.36302479  0.39206073  0.94278441  1  -0.005334  0  -0.07997  -0.154228  0  3.949422  0
C  C65  1  0.63697725  0.60794196  0.44278029  1  -0.005275  0  -0.079941  -0.154298  0  3.949511  0
C  C66  1  0.36868948  0.31966672  0.03035007  1  0.478802  0  0.04927  0.09509  0  3.973893  0
C  C67  1  0.63130991  0.68033142  0.53034741  1  0.478598  0  0.049239  0.095157  0  3.973912  0
C  C68  1  0.33830680  0.57077446  0.04900924  1  -0.018251  0  -0.080604  -0.163565  0  3.963218  0
C  C69  1  0.66170952  0.42923266  0.54900624  1  -0.018585  0  -0.080665  -0.16374  0  3.963212  0
C  C70  1  0.35028630  0.49314570  0.13250380  1  0.487539  0  0.053908  0.10496  0  3.959978  0
C  C71  1  0.64972356  0.50685964  0.63250347  1  0.487459  0  0.053933  0.105004  0  3.959929  0
C  C72  1  0.40836694  0.89854618  0.66950145  1  1.646571  0  0.232328  0.61644  0  4.211665  0
C  C73  1  0.59161920  0.10146608  0.16949142  1  1.646354  0  0.232093  0.616221  0  4.21183  0
C  C74  1  0.39390109  0.97719506  0.57554906  1  -0.055563  0  0.015302  0.035687  0  3.914163  0
C  C75  1  0.60610934  0.02282724  0.07554242  1  -0.055578  0  0.015386  0.035603  0  3.91454  0
C  C76  1  0.38989614  0.92318131  0.47820857  1  0.01803  0  -0.081361  -0.158439  0  3.940761  0
C  C77  1  0.61010622  0.07683276  0.97820120  1  0.018126  0  -0.081429  -0.15853  0  3.940865  0
C  C78  1  0.38113918  0.00152938  0.39444577  1  0.499445  0  0.054105  0.107024  0  3.957996  0
C  C79  1  0.61886500  0.99847860  0.89443856  1  0.498919  0  0.054193  0.10721  0  3.957708  0
C  C80  1  0.38698493  0.10840987  0.58353777  1  -0.046441  0  -0.080953  -0.158322  0  3.948695  0
C  C81  1  0.61301981  0.89160933  0.08353610  1  -0.046865  0  -0.08085  -0.158196  0  3.948719  0
C  C82  1  0.38091876  0.18020230  0.49563829  1  0.43822  0  0.05007  0.09658  0  3.976381  0
C  C83  1  0.61908458  0.81981166  0.99563875  1  0.438202  0  0.049957  0.096588  0  3.976546  0
N  N84  1  0.88943735  0.13739477  0.40084542  1  -1.289712  0  -0.356954  -0.31536  0  3.467018  0
N  N85  1  0.11055265  0.86259826  0.90084589  1  -1.289646  0  -0.356876  -0.315373  0  3.467087  0
N  N86  1  0.86401501  0.36151734  0.12262759  1  -1.283104  0  -0.351438  -0.316925  0  3.462279  0
N  N87  1  0.13599587  0.63847839  0.62262305  1  -1.283261  0  -0.351508  -0.317062  0  3.462422  0
N  N88  1  0.36442564  0.36901896  0.12421044  1  -1.263068  0  -0.349389  -0.316391  0  3.459574  0
N  N89  1  0.63557433  0.63098719  0.62420725  1  -1.262981  0  -0.34942  -0.316442  0  3.459521  0
N  N90  1  0.37866085  0.12883541  0.40195909  1  -1.274086  0  -0.346102  -0.319131  0  3.458222  0
N  N91  1  0.62133320  0.87116742  0.90195780  1  -1.274135  0  -0.346158  -0.319322  0  3.458125  0
O  O92  1  0.80538448  0.87527569  0.72213246  1  -1.238134  0  -0.357737  -0.658094  0  2.323167  0
O  O93  1  0.19460716  0.12471007  0.22212551  1  -1.238657  0  -0.357659  -0.657892  0  2.323454  0
O  O94  1  0.02426932  0.87006377  0.67966986  1  -1.232197  0  -0.346551  -0.638933  0  2.302028  0
O  O95  1  0.97571919  0.12992613  0.17967621  1  -1.232194  0  -0.346687  -0.639136  0  2.301311  0
O  O96  1  0.72126935  0.63057946  0.84796058  1  -1.237247  0  -0.353753  -0.658413  0  2.331535  0
O  O97  1  0.27872018  0.36942078  0.34795395  1  -1.237343  0  -0.353636  -0.658222  0  2.332083  0
O  O98  1  0.93714983  0.62393877  0.79867396  1  -1.251597  0  -0.34681  -0.6385  0  2.289032  0
O  O99  1  0.06283213  0.37605391  0.29866739  1  -1.251699  0  -0.346907  -0.638558  0  2.288135  0
O  O100  1  0.44269060  0.62536715  0.80101184  1  -1.227494  0  -0.343616  -0.63765  0  2.306586  0
O  O101  1  0.55731298  0.37462796  0.30102023  1  -1.228126  0  -0.343615  -0.637608  0  2.307158  0
O  O102  1  0.22537018  0.63512533  0.84533788  1  -1.220385  0  -0.327398  -0.614751  0  2.307327  0
O  O103  1  0.77463773  0.36486662  0.34533561  1  -1.219797  0  -0.327433  -0.614869  0  2.306643  0
O  O104  1  0.52259075  0.86430120  0.67710762  1  -1.227308  0  -0.334736  -0.634272  0  2.321447  0
O  O105  1  0.47741839  0.13570571  0.17710050  1  -1.227436  0  -0.334569  -0.633928  0  2.322102  0
O  O106  1  0.31065792  0.87711909  0.73205218  1  -1.209665  0  -0.334357  -0.619925  0  2.280407  0
O  O107  1  0.68934947  0.12288443  0.23205490  1  -1.209352  0  -0.334352  -0.619996  0  2.279638  0
