# generated using pymatgen
data_Cu3H10(C4O3)4
_symmetry_space_group_name_H-M   'P 1'
_cell_length_a   5.03554335
_cell_length_b   10.42272694
_cell_length_c   15.36881951
_cell_angle_alpha   90.00587415
_cell_angle_beta   90.62042731
_cell_angle_gamma   89.99881411
_symmetry_Int_Tables_number   1
_chemical_formula_structural   Cu3H10(C4O3)4
_chemical_formula_sum   'Cu6 H20 C32 O24'
_cell_volume   806.57126199
_cell_formula_units_Z   2
loop_
 _symmetry_equiv_pos_site_id
 _symmetry_equiv_pos_as_xyz
  1  'x, y, z'
loop_
 _atom_site_type_symbol
 _atom_site_label
 _atom_site_symmetry_multiplicity
 _atom_site_fract_x
 _atom_site_fract_y
 _atom_site_fract_z
 _atom_site_occupancy
 _atom_site_hle17_ddec_charge
 _atom_site_hle17_ddec_spin_density
 _atom_site_hle17_ddec_sum_bond_order
 _atom_site_hle17_magmom
 _atom_site_hse06_10hf_ddec_charge
 _atom_site_hse06_10hf_ddec_spin_density
 _atom_site_hse06_10hf_ddec_sum_bond_order
 _atom_site_hse06_10hf_magmom
 _atom_site_hse06_ddec_charge
 _atom_site_hse06_ddec_spin_density
 _atom_site_hse06_ddec_sum_bond_order
 _atom_site_hse06_magmom
 _atom_site_pbe_cm5_charge
 _atom_site_pbe_ddec_charge
 _atom_site_pbe_ddec_spin_density
 _atom_site_pbe_ddec_sum_bond_order
 _atom_site_pbe_magmom
Cu  Cu0  1  0.49945213  0.50015194  0.49987327  1  1.040093  0.713175  1.55759  0.541  1.050229  0.825567  1.914061  0.685  1.135334  0.896159  1.860258  0.771  0.727351  0.990813  0.76993  1.958234  0.624
Cu  Cu1  1  0.49944925  0.99984810  0.99987266  1  1.040007  -0.713342  1.557842  -0.541  1.049994  -0.825556  1.914345  -0.685  1.135132  -0.896173  1.860558  -0.771  0.72736  0.990573  -0.769908  1.958511  -0.624
Cu  Cu2  1  0.40051929  0.86605380  0.48731344  1  0.985354  -0.55183  1.807207  -0.415  1.001635  -0.753769  2.199107  -0.617  1.098538  -0.859482  2.129966  -0.728  0.721613  0.921898  -0.572123  2.265824  -0.459
Cu  Cu3  1  0.59968918  0.36609571  0.01270541  1  0.983738  -0.547051  1.808101  -0.411  1.00041  -0.753088  2.200126  -0.616  1.097937  -0.859325  2.130617  -0.727  0.721136  0.92093  -0.571398  2.266657  -0.458
Cu  Cu4  1  0.59970259  0.13390759  0.51269845  1  0.98392  0.546989  1.808225  0.411  1.000623  0.75312  2.200184  0.616  1.098123  0.859356  2.130723  0.727  0.721272  0.921226  0.571433  2.266645  0.458
Cu  Cu5  1  0.40055205  0.63395107  0.98732094  1  0.985192  0.551664  1.806937  0.415  1.001365  0.753729  2.198983  0.617  1.098459  0.85947  2.129697  0.728  0.721559  0.921609  0.572107  2.265758  0.46
H  H6  1  0.27302201  0.35922341  0.61361756  1  0.427867  -0.000152  0.870632  -0.001  0.400467  0.000515  0.933536  0.0  0.413974  0.000361  0.914493  0.0  0.290574  0.390728  0.000611  0.947201  0.0
H  H7  1  0.72665434  0.85900010  0.88625322  1  0.428227  -4.5e-05  0.870384  0.001  0.400695  -0.000546  0.933372  0.0  0.414147  -0.00037  0.914411  0.0  0.290807  0.390987  -0.000643  0.946989  -0.001
H  H8  1  0.72665449  0.64098070  0.38625566  1  0.428282  4.3e-05  0.870213  -0.001  0.400757  0.000546  0.933263  0.0  0.414205  0.00037  0.914301  0.0  0.290822  0.391047  0.000644  0.946885  0.001
H  H9  1  0.27302408  0.14078666  0.11362195  1  0.428101  0.000146  0.870414  0.001  0.400708  -0.000514  0.93323  0.0  0.414223  -0.00036  0.914175  0.0  0.290678  0.390966  -0.00061  0.946902  0.0
H  H10  1  0.10626948  0.49151276  0.59721928  1  0.43027  -0.000262  0.867153  -0.001  0.404018  0.00036  0.925012  0.0  0.416438  0.00018  0.907218  0.0  0.297893  0.395122  0.000503  0.937822  0.0
H  H11  1  0.89316955  0.99124421  0.90278055  1  0.430096  -0.000135  0.867171  0.001  0.404375  -0.000803  0.924124  0.0  0.416735  -0.000469  0.906437  0.0  0.298284  0.395537  -0.001018  0.936855  0.0
H  H12  1  0.89320175  0.50874317  0.40278649  1  0.429905  0.000135  0.867421  -0.001  0.404184  0.000804  0.924373  0.0  0.416542  0.00047  0.906691  0.0  0.298175  0.395353  0.001019  0.937091  0.0
H  H13  1  0.10630569  0.00849170  0.09722457  1  0.430253  0.000253  0.867165  0.001  0.403971  -0.000359  0.925051  0.0  0.416403  -0.00018  0.907246  0.0  0.297852  0.395053  -0.000502  0.937884  0.0
H  H14  1  0.37701988  0.03324490  0.73209674  1  0.110352  -8.9e-05  0.929716  0.0  0.121892  -0.000181  0.985871  0.0  0.12474  -0.000145  0.983618  0.0  0.10985  0.119837  -0.000175  0.987761  0.0
H  H15  1  0.62307346  0.53321253  0.76791569  1  0.110418  -0.000153  0.929897  0.0  0.121975  -0.000171  0.98604  0.0  0.124729  -0.000151  0.983918  0.0  0.110052  0.119949  -0.000139  0.987907  0.0
H  H16  1  0.62304123  0.96674911  0.26791138  1  0.110319  0.000137  0.929755  0.0  0.121996  0.000171  0.985795  0.0  0.124717  0.000152  0.983714  0.0  0.11003  0.119967  0.000139  0.987656  0.0
H  H17  1  0.37698275  0.46679395  0.23211906  1  0.110404  6.9e-05  0.929946  0.0  0.121855  0.000181  0.986192  0.0  0.124699  0.000145  0.983953  0.0  0.109879  0.119805  0.000175  0.988084  0.0
H  H18  1  0.40039854  0.80248268  0.77516744  1  0.121636  6.4e-05  0.962824  0.0  0.130398  6.5e-05  1.023027  0.0  0.133913  3.7e-05  1.022405  0.0  0.10488  0.127792  8.1e-05  1.023754  0.0
H  H19  1  0.59960943  0.30243556  0.72487328  1  0.121601  6.5e-05  0.962626  0.0  0.130441  4.2e-05  1.022577  0.0  0.133961  2.5e-05  1.021974  0.0  0.104914  0.127841  4.7e-05  1.023296  0.0
H  H20  1  0.59961176  0.19752476  0.22487349  1  0.121676  -6.3e-05  0.962627  0.0  0.130522  -4.1e-05  1.022582  0.0  0.134044  -2.5e-05  1.021972  0.0  0.104966  0.127913  -4.7e-05  1.023314  0.0
H  H21  1  0.40038647  0.69756805  0.27518186  1  0.121779  -4.4e-05  0.962532  0.0  0.130509  -6.5e-05  1.022777  0.0  0.134034  -3.7e-05  1.022172  0.0  0.104888  0.12791  -8.1e-05  1.023488  0.0
H  H22  1  0.10185644  0.64635118  0.70067518  1  0.09775  0.000608  0.950753  0.0  0.109681  0.000578  1.009896  0.0  0.111942  0.000387  1.008368  0.0  0.10785  0.107977  0.000637  1.011524  0.0
H  H23  1  0.89819039  0.14634838  0.79936756  1  0.09739  2.7e-05  0.951107  0.0  0.109588  -3.9e-05  1.010009  0.0  0.111844  -1.7e-05  1.008497  0.0  0.107824  0.107881  -0.000125  1.011633  0.0
H  H24  1  0.89819936  0.35363323  0.29937128  1  0.097455  -1.2e-05  0.9508  0.0  0.109625  3.9e-05  1.009759  0.0  0.111889  1.8e-05  1.008237  0.0  0.107827  0.10788  0.000125  1.011453  0.0
H  H25  1  0.10188328  0.85367633  0.20067904  1  0.097863  -0.000621  0.950834  -0.001  0.109788  -0.000577  1.009966  0.0  0.112054  -0.000387  1.008427  0.0  0.107911  0.10808  -0.000637  1.011591  0.0
C  C26  1  0.89249736  0.78806935  0.62595676  1  -0.215156  0.008927  3.736881  0.01  -0.201516  0.006366  3.985195  0.008  -0.220766  0.004772  4.007415  0.006  -0.036411  -0.188233  0.007054  3.969724  0.008
C  C27  1  0.10762771  0.28809825  0.87404356  1  -0.215623  -0.002813  3.738312  -0.004  -0.201034  -0.000508  3.985864  -0.001  -0.220283  0.000299  4.008084  0.0  -0.036067  -0.18781  -0.00188  3.970509  -0.003
C  C28  1  0.10764141  0.21186517  0.37404607  1  -0.216078  0.002739  3.738146  0.004  -0.201336  0.000509  3.985534  0.001  -0.220586  -0.000296  4.00775  0.0  -0.03622  -0.188129  0.00188  3.9702  0.003
C  C29  1  0.89254095  0.71196483  0.12595623  1  -0.215093  -0.009092  3.736845  -0.01  -0.20124  -0.006367  3.985023  -0.008  -0.220492  -0.004771  4.007251  -0.006  -0.036321  -0.187938  -0.007055  3.969525  -0.008
C  C30  1  0.86605868  0.92114627  0.60580861  1  0.349834  -0.000177  3.782959  -0.001  0.33071  -0.000308  4.051409  -0.001  0.355003  -0.000372  4.067194  -0.001  0.094684  0.31345  -7.6e-05  4.037642  0.0
C  C31  1  0.13415070  0.42121175  0.89415462  1  0.350065  -0.000323  3.78208  -0.001  0.330861  -0.00012  4.050194  -0.001  0.35509  1e-06  4.066089  -0.001  0.0949  0.313545  -0.00012  4.036529  -0.001
C  C32  1  0.13415472  0.07876331  0.39416157  1  0.350252  0.000316  3.782632  0.001  0.330959  0.00012  4.050625  0.001  0.355206  -6e-06  4.066507  0.001  0.094845  0.313651  0.000121  4.036942  0.001
C  C33  1  0.86609235  0.57886668  0.10581969  1  0.349671  0.000207  3.782667  0.001  0.330318  0.000308  4.051302  0.001  0.354599  0.000372  4.067107  0.001  0.094603  0.313067  7.6e-05  4.037522  0.0
C  C34  1  0.05098865  0.00937143  0.64329072  1  -0.235437  0.001358  3.741236  0.001  -0.2265  -0.001149  4.002763  -0.001  -0.245219  -0.001095  4.025206  -0.001  -0.042743  -0.213191  -0.000667  3.986391  -0.001
C  C35  1  0.94913189  0.50940749  0.85670477  1  -0.235832  -0.003579  3.74196  -0.004  -0.226294  -0.001768  4.002993  -0.002  -0.244982  -0.001556  4.025447  -0.002  -0.042812  -0.212963  -0.00166  3.986623  -0.002
C  C36  1  0.94912863  0.99058323  0.35670153  1  -0.236238  0.003408  3.742019  0.003  -0.226526  0.001767  4.002879  0.002  -0.245263  0.00156  4.025399  0.002  -0.04287  -0.213196  0.001659  3.986487  0.002
C  C37  1  0.05099875  0.49063545  0.14330321  1  -0.235163  -0.001548  3.742117  -0.002  -0.225995  0.001149  4.003371  0.001  -0.244678  0.001097  4.025771  0.001  -0.042628  -0.212697  0.000668  3.987024  0.001
C  C38  1  0.23859034  0.96394512  0.70416602  1  0.003653  -0.002523  3.707302  -0.003  -0.028564  -0.000924  3.972613  -0.001  -0.019895  -0.000827  3.987523  -0.001  -0.072034  -0.034202  -0.00086  3.96233  -0.001
C  C39  1  0.76150849  0.46394425  0.79585055  1  0.004276  0.00126  3.706981  0.001  -0.028266  0.000128  3.972122  0.0  -0.019656  3.3e-05  3.987195  0.0  -0.071812  -0.033901  0.000277  3.961837  0.0
C  C40  1  0.76146833  0.03603641  0.29585509  1  0.004495  -0.001128  3.707123  -0.001  -0.028203  -0.000129  3.972246  0.0  -0.019556  -3.6e-05  3.987346  0.0  -0.071768  -0.033831  -0.000277  3.961932  0.0
C  C41  1  0.23857766  0.53608429  0.20417987  1  0.003496  0.002734  3.707315  0.003  -0.028728  0.000924  3.97263  0.001  -0.02007  0.000826  3.987527  0.001  -0.071962  -0.034373  0.00086  3.962378  0.001
C  C42  1  0.25418390  0.83538559  0.72764545  1  -0.096778  0.001584  3.720712  0.002  -0.11621  0.000241  3.986208  0.0  -0.124235  0.000255  4.00561  0.0  -0.103773  -0.111208  0.000132  3.973432  0.0
C  C43  1  0.74585923  0.33537626  0.77238136  1  -0.097764  -0.001887  3.721122  -0.002  -0.116069  0.000325  3.985486  0.0  -0.124165  0.00017  4.004978  0.0  -0.103683  -0.111085  0.00039  3.972749  0.0
C  C44  1  0.74583268  0.16459690  0.27238641  1  -0.097669  0.001707  3.72121  0.002  -0.116017  -0.000325  3.985638  0.0  -0.124103  -0.000166  4.005114  0.0  -0.103708  -0.111028  -0.00039  3.972877  0.0
C  C45  1  0.25416696  0.66464653  0.22765969  1  -0.096777  -0.001907  3.720226  -0.002  -0.116172  -0.000242  3.985675  0.0  -0.124222  -0.000255  4.005097  0.0  -0.103838  -0.111167  -0.000131  3.97291  0.0
C  C46  1  0.08567474  0.74848462  0.68663177  1  0.012067  -0.000235  3.697241  0.0  -0.018204  0.000282  3.952698  0.0  -0.009335  0.000169  3.968446  0.0  -0.070769  -0.023921  0.000366  3.942199  0.0
C  C47  1  0.91437939  0.24848394  0.81338957  1  0.012131  0.00091  3.698517  0.001  -0.01806  0.00044  3.953086  0.001  -0.009125  0.000505  3.968783  0.001  -0.07068  -0.023811  0.000296  3.942653  0.001
C  C48  1  0.91437156  0.25148924  0.31340226  1  0.01202  -0.000881  3.697915  -0.001  -0.018157  -0.000441  3.952428  -0.001  -0.009236  -0.000508  3.968142  -0.001  -0.07066  -0.023882  -0.000295  3.94202  -0.001
C  C49  1  0.08570486  0.75154940  0.18663823  1  0.011843  0.000384  3.697735  0.001  -0.018484  -0.000282  3.953206  0.0  -0.009611  -0.00017  3.968951  0.0  -0.070887  -0.024199  -0.000366  3.942698  0.0
C  C50  1  0.73488405  0.68748742  0.58226647  1  0.680955  -0.003542  3.807582  -0.006  0.639289  -0.002561  4.09549  -0.004  0.682202  -0.002524  4.085915  -0.004  0.215907  0.609081  -0.002156  4.101206  -0.004
C  C51  1  0.26511775  0.18760325  0.91777532  1  0.679955  0.004908  3.807639  0.009  0.638508  -8.5e-05  4.096572  0.003  0.681641  0.000207  4.087035  0.002  0.215834  0.608205  -0.000498  4.102186  0.003
C  C52  1  0.26515018  0.31238378  0.41777203  1  0.680045  -0.004941  3.807758  -0.009  0.638471  8.8e-05  4.096808  -0.003  0.68161  -0.000204  4.087264  -0.002  0.215738  0.608168  0.000501  4.102447  -0.003
C  C53  1  0.73493639  0.81253467  0.08226138  1  0.680919  0.003507  3.807355  0.006  0.639082  0.00256  4.095418  0.004  0.681992  0.002522  4.085845  0.004  0.215756  0.608869  0.002154  4.101117  0.004
C  C54  1  0.07322621  0.14742904  0.61752090  1  0.653504  -0.003243  3.875354  -0.006  0.608734  2e-06  4.18022  -0.002  0.649045  4.5e-05  4.171547  -0.001  0.205849  0.580758  8.7e-05  4.184643  -0.002
C  C55  1  0.92693669  0.64742063  0.88249608  1  0.653658  -0.002945  3.875958  -0.005  0.608928  -0.000149  4.180752  -0.002  0.649198  -5.1e-05  4.172144  -0.001  0.206108  0.580932  -0.000118  4.18516  -0.002
C  C56  1  0.92690018  0.85255442  0.38249485  1  0.653986  0.002998  3.875673  0.005  0.609191  0.000149  4.180412  0.002  0.649481  4.9e-05  4.171776  0.001  0.206232  0.581186  0.000119  4.184825  0.002
C  C57  1  0.07318726  0.35260216  0.11753266  1  0.652741  0.003237  3.876548  0.006  0.608021  0.0  4.181356  0.002  0.648319  -4.7e-05  4.172688  0.001  0.205535  0.580054  -8.6e-05  4.18576  0.002
O  O58  1  0.80746323  0.56999306  0.58535868  1  -0.59066  0.054372  2.00765  0.075  -0.55145  0.033006  2.254584  0.05  -0.590372  0.023698  2.244586  0.038  -0.291459  -0.524965  0.039905  2.26185  0.058
O  O59  1  0.19273449  0.07006795  0.91464450  1  -0.585288  -0.076281  2.006802  -0.105  -0.549139  -0.048412  2.255375  -0.073  -0.589204  -0.033553  2.245965  -0.053  -0.290186  -0.522365  -0.056168  2.262426  -0.081
O  O60  1  0.19277675  0.42992419  0.41464683  1  -0.585302  0.076284  2.006693  0.105  -0.549041  0.04843  2.255234  0.073  -0.589104  0.033573  2.245822  0.053  -0.290083  -0.52227  0.056179  2.262292  0.081
O  O61  1  0.80754154  0.93002104  0.08535217  1  -0.590748  -0.054302  2.007599  -0.075  -0.551383  -0.032966  2.254518  -0.05  -0.590293  -0.023665  2.24452  -0.038  -0.291432  -0.524901  -0.039859  2.261773  -0.058
O  O62  1  0.51736471  0.71025843  0.53928059  1  -0.642561  -0.03224  2.213403  -0.043  -0.617708  -0.030515  2.526103  -0.044  -0.663332  -0.026401  2.509378  -0.039  -0.335875  -0.582618  -0.02467  2.536428  -0.034
O  O63  1  0.48239678  0.21031651  0.96090861  1  -0.640749  -0.051521  2.212302  -0.074  -0.617275  -0.042964  2.525422  -0.066  -0.66333  -0.034783  2.50911  -0.055  -0.335655  -0.581861  -0.04243  2.535602  -0.063
O  O64  1  0.48240609  0.28965211  0.46090630  1  -0.640797  0.051489  2.212735  0.074  -0.61731  0.042935  2.525931  0.066  -0.663348  0.034759  2.509598  0.055  -0.335713  -0.581921  0.042393  2.536135  0.063
O  O65  1  0.51741384  0.78977442  0.03927532  1  -0.642412  0.032227  2.213232  0.043  -0.617497  0.030505  2.525959  0.044  -0.663192  0.026391  2.509315  0.039  -0.335802  -0.582425  0.024654  2.53635  0.034
O  O66  1  0.67924185  0.96112938  0.54967742  1  -0.614037  0.008564  2.354705  0.012  -0.599787  0.004946  2.702722  0.008  -0.65849  0.003668  2.698883  0.006  -0.351358  -0.55167  0.003585  2.702032  0.005
O  O67  1  0.32118284  0.46120962  0.95022553  1  -0.615111  0.010776  2.354274  0.015  -0.599779  0.00567  2.701759  0.009  -0.658613  0.003936  2.698077  0.006  -0.35134  -0.551618  0.005107  2.70111  0.008
O  O68  1  0.32116050  0.03877443  0.45022907  1  -0.614887  -0.010851  2.354444  -0.015  -0.599573  -0.005657  2.701933  -0.009  -0.658352  -0.00393  2.698208  -0.006  -0.351212  -0.551434  -0.005099  2.701264  -0.008
O  O69  1  0.67926112  0.53887840  0.04968388  1  -0.613766  -0.008648  2.354108  -0.012  -0.599427  -0.004947  2.702185  -0.008  -0.658165  -0.003673  2.698373  -0.006  -0.351239  -0.551291  -0.003588  2.701495  -0.005
O  O70  1  0.89469353  0.20614232  0.57161335  1  -0.589297  0.071031  2.082253  0.098  -0.568214  0.052822  2.376786  0.079  -0.612201  0.041454  2.363274  0.065  -0.333777  -0.536556  0.048201  2.38697  0.07
O  O71  1  0.10552077  0.70615933  0.92835505  1  -0.588485  0.07286  2.082102  0.1  -0.568257  0.05305  2.377231  0.079  -0.612325  0.04159  2.363773  0.065  -0.333758  -0.536556  0.048768  2.387459  0.07
O  O72  1  0.10550606  0.79382865  0.42835413  1  -0.588562  -0.072879  2.081951  -0.1  -0.568346  -0.053048  2.377078  -0.079  -0.612369  -0.041593  2.363597  -0.065  -0.333766  -0.536643  -0.048769  2.387285  -0.07
O  O73  1  0.89465191  0.29385578  0.07164346  1  -0.588929  -0.071098  2.082074  -0.098  -0.567935  -0.05284  2.376618  -0.079  -0.611924  -0.041464  2.363119  -0.065  -0.333658  -0.536248  -0.048221  2.386789  -0.07
O  O74  1  0.28069440  0.20818642  0.64078130  1  -0.615614  0.017119  2.00558  0.024  -0.576588  0.009215  2.246308  0.014  -0.606584  0.004621  2.235415  0.008  -0.301984  -0.55327  0.011757  2.252499  0.017
O  O75  1  0.71935940  0.70813530  0.85928757  1  -0.616375  0.011834  2.005853  0.017  -0.576534  0.007381  2.246112  0.012  -0.606544  0.003902  2.235351  0.007  -0.301974  -0.553146  0.007871  2.252277  0.012
O  O76  1  0.71929470  0.79183541  0.35929787  1  -0.616612  -0.011866  2.006431  -0.017  -0.57681  -0.007376  2.246814  -0.012  -0.606809  -0.0039  2.23603  -0.007  -0.302036  -0.553423  -0.007866  2.252981  -0.012
O  O77  1  0.28064748  0.29184048  0.14079433  1  -0.615292  -0.017123  2.005717  -0.024  -0.576309  -0.009223  2.246346  -0.014  -0.60634  -0.004623  2.235531  -0.008  -0.301916  -0.552978  -0.01177  2.252524  -0.017
O  O78  1  0.28901548  0.45548704  0.60241836  1  -0.794415  0.07133  1.937358  0.096  -0.768369  0.047631  2.148319  0.068  -0.803677  0.036233  2.111943  0.054  -0.573878  -0.743789  0.055135  2.174119  0.076
O  O79  1  0.71049257  0.95530795  0.89740269  1  -0.795756  -0.071323  1.937639  -0.096  -0.768999  -0.048405  2.148073  -0.069  -0.804158  -0.036761  2.111745  -0.055  -0.57434  -0.744529  -0.055867  2.173814  -0.077
O  O80  1  0.71052129  0.54467966  0.39741740  1  -0.795698  0.071297  1.937817  0.096  -0.768971  0.048393  2.148372  0.069  -0.804114  0.036753  2.112036  0.055  -0.57422  -0.744496  0.055847  2.174113  0.077
O  O81  1  0.28904633  0.04452198  0.10242917  1  -0.794548  -0.071338  1.93722  -0.096  -0.768495  -0.04764  2.148214  -0.068  -0.803824  -0.03624  2.111796  -0.054  -0.573938  -0.7439  -0.055143  2.17408  -0.076
