# generated using pymatgen
data_HoH8C12(NO3)3
_symmetry_space_group_name_H-M   'P 1'
_cell_length_a   8.07026096
_cell_length_b   7.88072421
_cell_length_c   12.27219066
_cell_angle_alpha   78.32496209
_cell_angle_beta   99.08295621
_cell_angle_gamma   78.72030659
_symmetry_Int_Tables_number   1
_chemical_formula_structural   HoH8C12(NO3)3
_chemical_formula_sum   'Ho2 H16 C24 N6 O18'
_cell_volume   733.58072776
_cell_formula_units_Z   2
loop_
 _symmetry_equiv_pos_site_id
 _symmetry_equiv_pos_as_xyz
  1  'x, y, z'
loop_
 _atom_site_type_symbol
 _atom_site_label
 _atom_site_symmetry_multiplicity
 _atom_site_fract_x
 _atom_site_fract_y
 _atom_site_fract_z
 _atom_site_occupancy
 _atom_site_hle17_bader_spin_density
 _atom_site_hle17_ddec_charge
 _atom_site_hle17_ddec_spin_density
 _atom_site_hle17_ddec_sum_bond_order
 _atom_site_hle17_magmom
 _atom_site_hse06_10hf_bader_spin_density
 _atom_site_hse06_10hf_ddec_charge
 _atom_site_hse06_10hf_ddec_spin_density
 _atom_site_hse06_10hf_ddec_sum_bond_order
 _atom_site_hse06_10hf_magmom
 _atom_site_hse06_bader_spin_density
 _atom_site_hse06_ddec_charge
 _atom_site_hse06_ddec_spin_density
 _atom_site_hse06_ddec_sum_bond_order
 _atom_site_hse06_magmom
 _atom_site_pbe_bader_spin_density
 _atom_site_pbe_cm5_charge
 _atom_site_pbe_ddec_charge
 _atom_site_pbe_ddec_spin_density
 _atom_site_pbe_ddec_sum_bond_order
 _atom_site_pbe_magmom
Ho  Ho0  1  0.28659430  0.70368189  0.47533875  1  0  2.231098  0  1.570279  0  0  2.075542  0  2.046919  0  0  2.21645  0  1.837557  0  0  1.496817  2.038241  0  2.076427  0
Ho  Ho1  1  0.71340399  0.29630039  0.52465335  1  0  2.231263  0  1.570195  0  0  2.075819  0  2.046606  0  0  2.216591  0  1.837458  0  0  1.496925  2.03851  0  2.076157  0
H  H2  1  0.79647142  0.41302977  0.91283567  1  0  0.115257  0  0.952501  0  0  0.124232  0  1.014034  0  0  0.127382  0  1.013452  0  0  0.109712  0.122044  0  1.014401  0
H  H3  1  0.20352256  0.58701258  0.08714069  1  0  0.115147  0  0.952436  0  0  0.12416  0  1.013972  0  0  0.12731  0  1.013378  0  0  0.109708  0.121974  0  1.014338  0
H  H4  1  0.97833492  0.54403155  0.79005804  1  0  0.099999  0  0.903128  0  0  0.109632  0  0.958426  0  0  0.112573  0  0.956218  0  0  0.125747  0.107542  0  0.959936  0
H  H5  1  0.02166293  0.45604329  0.20993612  1  0  0.099819  0  0.903389  0  0  0.109531  0  0.958582  0  0  0.112465  0  0.956391  0  0  0.125684  0.107437  0  0.960094  0
H  H6  1  0.89650436  0.01206917  0.89868805  1  0  0.088971  0  0.927132  0  0  0.097136  0  0.988366  0  0  0.10015  0  0.985483  0  0  0.120175  0.094996  0  0.990381  0
H  H7  1  0.10353876  0.98794200  0.10137975  1  0  0.089088  0  0.927129  0  0  0.097195  0  0.988391  0  0  0.100204  0  0.985523  0  0  0.120306  0.095053  0  0.990405  0
H  H8  1  0.70853818  0.90005886  0.02856186  1  0  0.109545  0  0.950943  0  0  0.119053  0  1.012365  0  0  0.122842  0  1.010156  0  0  0.108482  0.11631  0  1.014145  0
H  H9  1  0.29149414  0.09992000  0.97148471  1  0  0.10944  0  0.951151  0  0  0.119044  0  1.012503  0  0  0.122828  0  1.01031  0  0  0.10847  0.116302  0  1.014273  0
H  H10  1  0.80960719  0.29685328  0.12241855  1  0  0.291738  0  0.935717  0  0  0.264926  0  1.013697  0  0  0.275174  0  1.005073  0  0  0.308697  0.257582  0  1.019854  0
H  H11  1  0.19041154  0.70316688  0.87758018  1  0  0.291814  0  0.935597  0  0  0.264953  0  1.013642  0  0  0.275218  0  1.005006  0  0  0.308683  0.257611  0  1.019796  0
H  H12  1  0.58661802  0.11584628  0.12934477  1  0  0.396755  0  0.817488  0  0  0.373393  0  0.887062  0  0  0.382303  0  0.877445  0  0  0.336418  0.367009  0  0.893974  0
H  H13  1  0.41336675  0.88415233  0.87063828  1  0  0.396589  0  0.817568  0  0  0.373315  0  0.887004  0  0  0.382224  0  0.877391  0  0  0.336473  0.366934  0  0.893921  0
H  H14  1  0.53469485  0.94373687  0.41171841  1  0  0.450426  0  0.83738  0  0  0.424076  0  0.890632  0  0  0.435282  0  0.874413  0  0  0.312701  0.416677  0  0.901401  0
H  H15  1  0.46531331  0.05626161  0.58825764  1  0  0.450559  0  0.837255  0  0  0.424231  0  0.890461  0  0  0.435435  0  0.874244  0  0  0.312841  0.416832  0  0.901229  0
H  H16  1  0.62520227  0.74012349  0.42441823  1  0  0.447479  0  0.846965  0  0  0.418726  0  0.905809  0  0  0.429923  0  0.889607  0  0  0.306927  0.411085  0  0.91699  0
H  H17  1  0.37478784  0.25987405  0.57555354  1  0  0.447441  0  0.847027  0  0  0.418753  0  0.905788  0  0  0.429934  0  0.88961  0  0  0.306887  0.411107  0  0.916979  0
C  C18  1  0.41219536  0.58593827  0.29131313  1  0  0.656613  0  3.923509  0  0  0.608168  0  4.217886  0  0  0.641984  0  4.217885  0  0  0.207816  0.584779  0  4.22448  0
C  C19  1  0.58777994  0.41402182  0.70868000  1  0  0.656435  0  3.923756  0  0  0.607998  0  4.218118  0  0  0.641811  0  4.218112  0  0  0.207627  0.584609  0  4.224697  0
C  C20  1  0.52098253  0.53661944  0.21013328  1  0  0.065524  0  3.703957  0  0  0.061923  0  3.966578  0  0  0.063617  0  3.98147  0  0  0.109251  0.060971  0  3.956355  0
C  C21  1  0.47900550  0.46335495  0.78986220  1  0  0.065457  0  3.704121  0  0  0.062035  0  3.966472  0  0  0.063723  0  3.981358  0  0  0.109446  0.061095  0  3.956228  0
C  C22  1  0.61020024  0.36572091  0.20945540  1  0  -0.030275  0  3.732239  0  0  -0.044379  0  3.99402  0  0  -0.049065  0  4.014247  0  0  0.090637  -0.041784  0  3.981551  0
C  C23  1  0.38980543  0.63426256  0.79053747  1  0  -0.030077  0  3.732113  0  0  -0.044355  0  3.993936  0  0  -0.049008  0  4.014145  0  0  0.090565  -0.041774  0  3.981466  0
C  C24  1  0.60745246  0.18782483  0.27066244  1  0  0.672234  0  3.780028  0  0  0.619752  0  4.078899  0  0  0.655316  0  4.070105  0  0  0.257555  0.595624  0  4.086363  0
C  C25  1  0.39256109  0.81215313  0.72933379  1  0  0.672058  0  3.780365  0  0  0.619716  0  4.079051  0  0  0.655275  0  4.070259  0  0  0.257515  0.595585  0  4.086513  0
C  C26  1  0.65903222  0.56732585  0.07289395  1  0  0.329769  0  3.736383  0  0  0.298269  0  4.014515  0  0  0.311803  0  4.02741  0  0  0.221744  0.289492  0  4.005315  0
C  C27  1  0.34095801  0.43267890  0.92710315  1  0  0.329658  0  3.736524  0  0  0.298143  0  4.014665  0  0  0.311722  0  4.027579  0  0  0.221694  0.289346  0  4.005461  0
C  C28  1  0.74368418  0.64454631  0.98535828  1  0  0.014129  0  3.828604  0  0  0.027829  0  4.068695  0  0  0.028628  0  4.091875  0  0  0.001863  0.027311  0  4.052993  0
C  C29  1  0.25631426  0.35546870  0.01464576  1  0  0.014468  0  3.828221  0  0  0.02822  0  4.068315  0  0  0.028902  0  4.091649  0  0  0.002013  0.027736  0  4.052566  0
C  C30  1  0.81476032  0.54617200  0.91342544  1  0  -0.16046  0  3.736224  0  0  -0.182887  0  3.988738  0  0  -0.190498  0  4.013246  0  0  -0.0876  -0.177784  0  3.972107  0
C  C31  1  0.18523827  0.45386447  0.08656825  1  0  -0.160358  0  3.735966  0  0  -0.182895  0  3.988584  0  0  -0.190462  0  4.013117  0  0  -0.087651  -0.177808  0  3.971946  0
C  C32  1  0.91754452  0.61872369  0.84510305  1  0  0.133369  0  3.681879  0  0  0.107444  0  3.941006  0  0  0.113517  0  3.956572  0  0  0.050467  0.103464  0  3.930233  0
C  C33  1  0.08245948  0.38133087  0.15490304  1  0  0.133507  0  3.682351  0  0  0.107582  0  3.94146  0  0  0.113656  0  3.957025  0  0  0.050535  0.10361  0  3.930681  0
C  C34  1  0.87318891  0.87878450  0.90626989  1  0  0.134886  0  3.705604  0  0  0.107378  0  3.965417  0  0  0.113814  0  3.980785  0  0  0.054539  0.103185  0  3.954719  0
C  C35  1  0.12683148  0.12123969  0.09377107  1  0  0.135245  0  3.705685  0  0  0.10785  0  3.96546  0  0  0.114282  0  3.980819  0  0  0.054673  0.103658  0  3.954762  0
C  C36  1  0.76587915  0.81874830  0.97609432  1  0  -0.144456  0  3.708337  0  0  -0.164986  0  3.956573  0  0  -0.170936  0  3.976483  0  0  -0.080765  -0.16106  0  3.94321  0
C  C37  1  0.23413782  0.18125510  0.02393547  1  0  -0.144625  0  3.708573  0  0  -0.165292  0  3.956736  0  0  -0.171209  0  3.976682  0  0  -0.080842  -0.161372  0  3.943362  0
C  C38  1  0.05759191  0.43312676  0.55398527  1  0  0.585424  0  3.900951  0  0  0.540543  0  4.197577  0  0  0.571657  0  4.19362  0  0  0.215803  0.519186  0  4.20522  0
C  C39  1  0.94238571  0.56685962  0.44601251  1  0  0.585618  0  3.900762  0  0  0.540562  0  4.197549  0  0  0.571649  0  4.193631  0  0  0.21575  0.519198  0  4.205201  0
C  C40  1  0.97900996  0.93803725  0.55133887  1  0  0.57072  0  3.909475  0  0  0.528068  0  4.207737  0  0  0.558969  0  4.205968  0  0  0.210795  0.506843  0  4.214213  0
C  C41  1  0.02099484  0.06195667  0.44865914  1  0  0.570955  0  3.909129  0  0  0.528326  0  4.207364  0  0  0.559232  0  4.205587  0  0  0.210941  0.507096  0  4.213849  0
N  N42  1  0.54907371  0.65927742  0.12304730  1  0  -0.377227  0  2.892394  0  0  -0.364847  0  3.169016  0  0  -0.375073  0  3.177818  0  0  -0.325852  -0.357625  0  3.162447  0
N  N43  1  0.45090085  0.34071167  0.87695005  1  0  -0.377325  0  2.892692  0  0  -0.365004  0  3.169277  0  0  -0.375226  0  3.178066  0  0  -0.32601  -0.357787  0  3.16271  0
N  N44  1  0.69417214  0.38777222  0.12008077  1  0  -0.359818  0  3.416152  0  0  -0.302662  0  3.654427  0  0  -0.319599  0  3.669214  0  0  -0.37552  -0.291091  0  3.644489  0
N  N45  1  0.30583213  0.61223115  0.87991099  1  0  -0.359874  0  3.416022  0  0  -0.302671  0  3.654378  0  0  -0.319655  0  3.669171  0  0  -0.375432  -0.291088  0  3.644425  0
N  N46  1  0.95579796  0.77713811  0.84660887  1  0  -0.288098  0  3.092968  0  0  -0.246018  0  3.356543  0  0  -0.256825  0  3.36855  0  0  -0.308267  -0.238332  0  3.347881  0
N  N47  1  0.04421549  0.22290503  0.15342116  1  0  -0.288514  0  3.093477  0  0  -0.246481  0  3.357027  0  0  -0.257279  0  3.369029  0  0  -0.308548  -0.238794  0  3.348358  0
O  O48  1  0.28749031  0.71975981  0.26350890  1  0  -0.609731  0  1.916588  0  0  -0.571224  0  2.145217  0  0  -0.601785  0  2.134829  0  0  -0.319846  -0.555725  0  2.151436  0
O  O49  1  0.71248399  0.28019880  0.73649017  1  0  -0.609679  0  1.916282  0  0  -0.571156  0  2.144845  0  0  -0.601695  0  2.134462  0  0  -0.319739  -0.55567  0  2.151087  0
O  O50  1  0.45638101  0.48706647  0.39414469  1  0  -0.803414  0  2.139526  0  0  -0.744469  0  2.396993  0  0  -0.793  0  2.388245  0  0  -0.427584  -0.724786  0  2.40163  0
O  O51  1  0.54360678  0.51290005  0.60584858  1  0  -0.803193  0  2.139592  0  0  -0.744309  0  2.397113  0  0  -0.792873  0  2.38843  0  0  -0.427526  -0.724626  0  2.401748  0
O  O52  1  0.60110187  0.14604517  0.37220783  1  0  -0.570717  0  2.093936  0  0  -0.516572  0  2.319798  0  0  -0.548591  0  2.309225  0  0  -0.2739  -0.500861  0  2.325478  0
O  O53  1  0.39893409  0.85393117  0.62778734  1  0  -0.570796  0  2.093851  0  0  -0.516759  0  2.319682  0  0  -0.548794  0  2.309111  0  0  -0.273976  -0.501048  0  2.325354  0
O  O54  1  0.61141907  0.06148312  0.21111009  1  0  -0.484624  0  2.03248  0  0  -0.435442  0  2.230904  0  0  -0.453554  0  2.214923  0  0  -0.30327  -0.42255  0  2.241272  0
O  O55  1  0.38858435  0.93850731  0.78887192  1  0  -0.484336  0  2.032786  0  0  -0.435212  0  2.231008  0  0  -0.45331  0  2.215007  0  0  -0.303201  -0.42231  0  2.241351  0
O  O56  1  0.21658144  0.43841723  0.57214353  1  0  -0.685241  0  2.098759  0  0  -0.630866  0  2.338902  0  0  -0.666176  0  2.326249  0  0  -0.364684  -0.613199  0  2.345196  0
O  O57  1  0.78339946  0.56156384  0.42785339  1  0  -0.68539  0  2.09891  0  0  -0.630876  0  2.339078  0  0  -0.666163  0  2.326429  0  0  -0.364629  -0.613209  0  2.345387  0
O  O58  1  0.98711293  0.33113448  0.61397459  1  0  -0.642413  0  2.009579  0  0  -0.601226  0  2.245434  0  0  -0.63438  0  2.231574  0  0  -0.362781  -0.585618  0  2.25188  0
O  O59  1  0.01285713  0.66887042  0.38602710  1  0  -0.642387  0  2.009372  0  0  -0.601154  0  2.245306  0  0  -0.634322  0  2.23147  0  0  -0.362719  -0.585541  0  2.25174  0
O  O60  1  0.07680147  0.78337726  0.58734739  1  0  -0.673397  0  2.082941  0  0  -0.628508  0  2.329388  0  0  -0.664343  0  2.320868  0  0  -0.366488  -0.609909  0  2.332446  0
O  O61  1  0.92319770  0.21661151  0.41264876  1  0  -0.673517  0  2.083113  0  0  -0.628673  0  2.329593  0  0  -0.664491  0  2.321072  0  0  -0.366534  -0.610072  0  2.332663  0
O  O62  1  0.85020602  0.00169852  0.59003884  1  0  -0.649868  0  2.027128  0  0  -0.6065  0  2.272544  0  0  -0.64188  0  2.257927  0  0  -0.392501  -0.589947  0  2.278692  0
O  O63  1  0.14980866  0.99829380  0.40996365  1  0  -0.649904  0  2.026738  0  0  -0.606523  0  2.272163  0  0  -0.641923  0  2.25753  0  0  -0.392549  -0.589972  0  2.27831  0
O  O64  1  0.51848496  0.82144063  0.43103883  1  0  -0.914324  0  1.869584  0  0  -0.865683  0  2.063198  0  0  -0.895777  0  2.022443  0  0  -0.657169  -0.852244  0  2.085495  0
O  O65  1  0.48150245  0.17856249  0.56892473  1  0  -0.914458  0  1.869631  0  0  -0.865893  0  2.063133  0  0  -0.895957  0  2.022411  0  0  -0.657299  -0.852449  0  2.08544  0
