# generated using pymatgen
data_Mg3H10(C5O6)2
_symmetry_space_group_name_H-M   'P 1'
_cell_length_a   9.92823331
_cell_length_b   11.21080507
_cell_length_c   14.88879201
_cell_angle_alpha   91.78148687
_cell_angle_beta   89.99962991
_cell_angle_gamma   89.99997058
_symmetry_Int_Tables_number   1
_chemical_formula_structural   Mg3H10(C5O6)2
_chemical_formula_sum   'Mg12 H40 C40 O48'
_cell_volume   1656.37350494
_cell_formula_units_Z   4
loop_
 _symmetry_equiv_pos_site_id
 _symmetry_equiv_pos_as_xyz
  1  'x, y, z'
loop_
 _atom_site_type_symbol
 _atom_site_label
 _atom_site_symmetry_multiplicity
 _atom_site_fract_x
 _atom_site_fract_y
 _atom_site_fract_z
 _atom_site_occupancy
 _atom_site_hle17_bader_spin_density
 _atom_site_hle17_ddec_charge
 _atom_site_hle17_ddec_spin_density
 _atom_site_hle17_ddec_sum_bond_order
 _atom_site_hle17_magmom
 _atom_site_hse06_10hf_bader_spin_density
 _atom_site_hse06_10hf_ddec_charge
 _atom_site_hse06_10hf_ddec_spin_density
 _atom_site_hse06_10hf_ddec_sum_bond_order
 _atom_site_hse06_10hf_magmom
 _atom_site_hse06_bader_spin_density
 _atom_site_hse06_ddec_charge
 _atom_site_hse06_ddec_spin_density
 _atom_site_hse06_ddec_sum_bond_order
 _atom_site_hse06_magmom
 _atom_site_pbe_bader_spin_density
 _atom_site_pbe_cm5_charge
 _atom_site_pbe_ddec_charge
 _atom_site_pbe_ddec_spin_density
 _atom_site_pbe_ddec_sum_bond_order
 _atom_site_pbe_magmom
Mg  Mg0  1  0.91751536  0.74424589  0.86444244  1  0  1.493195  0  1.140023  0  0  1.374739  0  1.400083  0  0  1.402046  0  1.359941  0  0  0.822567  1.355452  0  1.42809  0
Mg  Mg1  1  0.41751512  0.75575658  0.63556054  1  0  1.493174  0  1.140022  0  0  1.37471  0  1.400083  0  0  1.402014  0  1.359932  0  0  0.822582  1.355405  0  1.428128  0
Mg  Mg2  1  0.08248424  0.25574827  0.13555602  1  0  1.493214  0  1.139913  0  0  1.374716  0  1.40012  0  0  1.401957  0  1.360045  0  0  0.822571  1.355438  0  1.428111  0
Mg  Mg3  1  0.58248751  0.24425186  0.36443956  1  0  1.493248  0  1.139852  0  0  1.374763  0  1.400031  0  0  1.402036  0  1.359924  0  0  0.822619  1.355478  0  1.428037  0
Mg  Mg4  1  0.00000072  0.99999407  0.00000427  1  0  1.483175  0  1.160667  0  0  1.371675  0  1.422172  0  0  1.398033  0  1.382931  0  0  0.820605  1.352996  0  1.449687  0
Mg  Mg5  1  0.49999376  0.50000553  0.49999269  1  0  1.483113  0  1.160761  0  0  1.371711  0  1.422094  0  0  1.398074  0  1.38284  0  0  0.820578  1.353064  0  1.449568  0
Mg  Mg6  1  0.10638901  0.76036747  0.69036851  1  0  1.482762  0  1.171398  0  0  1.367736  0  1.431499  0  0  1.393878  0  1.39363  0  0  0.828264  1.349435  0  1.457545  0
Mg  Mg7  1  0.60638676  0.73963609  0.80963517  1  0  1.48273  0  1.171458  0  0  1.367673  0  1.431565  0  0  1.393832  0  1.393668  0  0  0.828244  1.349375  0  1.457605  0
Mg  Mg8  1  0.89361564  0.23964095  0.30962756  1  0  1.482907  0  1.17119  0  0  1.367823  0  1.431334  0  0  1.394006  0  1.393384  0  0  0.828339  1.3495  0  1.457429  0
Mg  Mg9  1  0.39361486  0.26036611  0.19036413  1  0  1.482717  0  1.171481  0  0  1.367739  0  1.431478  0  0  1.393868  0  1.393633  0  0  0.82825  1.349442  0  1.45752  0
Mg  Mg10  1  0.99999953  0.49999984  0.00000036  1  0  1.48616  0  1.164892  0  0  1.373747  0  1.429045  0  0  1.400277  0  1.38946  0  0  0.820864  1.355074  0  1.456471  0
Mg  Mg11  1  0.50001002  0.00000274  0.50000017  1  0  1.486223  0  1.164744  0  0  1.373886  0  1.42879  0  0  1.400343  0  1.389344  0  0  0.820862  1.355214  0  1.456215  0
H  H12  1  0.01650596  0.03777421  0.72982184  1  0  0.023247  0  0.903913  0  0  0.032136  0  0.970505  0  0  0.032264  0  0.966638  0  0  0.122606  0.031836  0  0.973339  0
H  H13  1  0.51649893  0.46222820  0.77017848  1  0  0.023241  0  0.903944  0  0  0.03215  0  0.970525  0  0  0.032276  0  0.966656  0  0  0.122589  0.03185  0  0.973359  0
H  H14  1  0.98349768  0.96222802  0.27018619  1  0  0.023213  0  0.904031  0  0  0.032167  0  0.970548  0  0  0.032295  0  0.966682  0  0  0.122593  0.031869  0  0.97338  0
H  H15  1  0.48350672  0.53777841  0.22981083  1  0  0.023151  0  0.904107  0  0  0.032163  0  0.970571  0  0  0.032294  0  0.966701  0  0  0.122581  0.031865  0  0.973404  0
H  H16  1  0.60356778  0.95153821  0.95413475  1  0  0.018308  0  0.922605  0  0  0.027062  0  0.99318  0  0  0.027046  0  0.989278  0  0  0.120291  0.026833  0  0.996112  0
H  H17  1  0.10356146  0.54846001  0.54587085  1  0  0.018282  0  0.92259  0  0  0.027084  0  0.993123  0  0  0.027071  0  0.989212  0  0  0.120305  0.026849  0  0.996056  0
H  H18  1  0.39643485  0.04845420  0.04587106  1  0  0.018185  0  0.922653  0  0  0.027017  0  0.99314  0  0  0.027003  0  0.989234  0  0  0.120268  0.026782  0  0.996071  0
H  H19  1  0.89642807  0.45154576  0.45412919  1  0  0.018267  0  0.922708  0  0  0.027052  0  0.99322  0  0  0.027035  0  0.989316  0  0  0.120336  0.026816  0  0.996154  0
H  H20  1  0.74518173  0.61894224  0.63162665  1  0  0.028252  0  0.927128  0  0  0.034424  0  0.999901  0  0  0.035031  0  0.995745  0  0  0.125813  0.033733  0  1.002996  0
H  H21  1  0.24518723  0.88106037  0.86838313  1  0  0.028386  0  0.927039  0  0  0.034474  0  0.999922  0  0  0.035089  0  0.995757  0  0  0.125854  0.033784  0  1.003019  0
H  H22  1  0.25481888  0.38106173  0.36837067  1  0  0.028277  0  0.927112  0  0  0.034431  0  0.999914  0  0  0.035041  0  0.995753  0  0  0.12583  0.033746  0  1.003008  0
H  H23  1  0.75481439  0.11893560  0.13162007  1  0  0.028379  0  0.926993  0  0  0.03443  0  0.999928  0  0  0.035045  0  0.995763  0  0  0.12584  0.033744  0  1.003019  0
H  H24  1  0.69637149  0.50652579  0.00004222  1  0  0.025249  0  0.895064  0  0  0.035868  0  0.957062  0  0  0.036458  0  0.952422  0  0  0.125651  0.035077  0  0.960758  0
H  H25  1  0.19637263  0.99346923  0.49995581  1  0  0.025193  0  0.895039  0  0  0.035834  0  0.957014  0  0  0.036422  0  0.952375  0  0  0.125649  0.035045  0  0.960708  0
H  H26  1  0.30362208  0.49346388  0.99994943  1  0  0.025212  0  0.895067  0  0  0.035843  0  0.957059  0  0  0.036425  0  0.952424  0  0  0.12562  0.035052  0  0.960753  0
H  H27  1  0.80364410  0.00653204  0.50003675  1  0  0.025228  0  0.894932  0  0  0.035884  0  0.956901  0  0  0.036467  0  0.952262  0  0  0.125621  0.03509  0  0.960601  0
H  H28  1  0.19299629  0.50790655  0.76027858  1  0  0.015226  0  0.897434  0  0  0.026914  0  0.961296  0  0  0.026932  0  0.95724  0  0  0.120507  0.026609  0  0.964329  0
H  H29  1  0.69299861  0.99208978  0.73971786  1  0  0.015221  0  0.89739  0  0  0.0269  0  0.961271  0  0  0.02689  0  0.95724  0  0  0.120502  0.026595  0  0.964307  0
H  H30  1  0.80700533  0.49208759  0.23971585  1  0  0.015237  0  0.897427  0  0  0.026808  0  0.96141  0  0  0.026824  0  0.957343  0  0  0.120479  0.026506  0  0.964438  0
H  H31  1  0.30701107  0.00791421  0.26028416  1  0  0.015235  0  0.897454  0  0  0.026769  0  0.961469  0  0  0.026791  0  0.957391  0  0  0.120484  0.026467  0  0.964498  0
H  H32  1  0.17161506  0.81229750  0.06958441  1  0  0.020062  0  0.946551  0  0  0.027806  0  1.016613  0  0  0.027521  0  1.013831  0  0  0.120969  0.02779  0  1.018699  0
H  H33  1  0.67161672  0.68769933  0.43041712  1  0  0.020074  0  0.946521  0  0  0.027825  0  1.016579  0  0  0.027538  0  1.0138  0  0  0.120974  0.027806  0  1.018666  0
H  H34  1  0.82839260  0.18769483  0.93040528  1  0  0.020034  0  0.946535  0  0  0.027787  0  1.016591  0  0  0.027502  0  1.013807  0  0  0.120943  0.027771  0  1.018676  0
H  H35  1  0.32839497  0.31230202  0.56959358  1  0  0.020037  0  0.946546  0  0  0.027804  0  1.016585  0  0  0.027518  0  1.013802  0  0  0.120955  0.027787  0  1.018669  0
H  H36  1  0.06817885  0.28920735  0.49461511  1  0  0.213774  0  0.997622  0  0  0.211516  0  1.054859  0  0  0.218326  0  1.049767  0  0  0.127901  0.206714  0  1.058506  0
H  H37  1  0.56815941  0.21076868  0.00537465  1  0  0.213737  0  0.997323  0  0  0.211399  0  1.054682  0  0  0.218211  0  1.04958  0  0  0.127891  0.206593  0  1.058354  0
H  H38  1  0.93182176  0.71078417  0.50539068  1  0  0.21366  0  0.997659  0  0  0.21149  0  1.054786  0  0  0.218296  0  1.049707  0  0  0.127874  0.206678  0  1.058444  0
H  H39  1  0.43181300  0.78920235  0.99463877  1  0  0.213825  0  0.997129  0  0  0.211499  0  1.054434  0  0  0.218313  0  1.04933  0  0  0.127903  0.206691  0  1.058113  0
H  H40  1  0.05828879  0.30309220  0.71985334  1  0  0.207364  0  0.963756  0  0  0.2111  0  1.010792  0  0  0.215894  0  1.008393  0  0  0.132997  0.207776  0  1.012479  0
H  H41  1  0.55830499  0.19687623  0.78013669  1  0  0.207247  0  0.963842  0  0  0.211141  0  1.010679  0  0  0.215937  0  1.008276  0  0  0.133003  0.207814  0  1.012371  0
H  H42  1  0.94169268  0.69690021  0.28015180  1  0  0.207238  0  0.963898  0  0  0.211082  0  1.010781  0  0  0.215879  0  1.00838  0  0  0.132976  0.207754  0  1.012474  0
H  H43  1  0.44170268  0.80311531  0.21987515  1  0  0.207248  0  0.963814  0  0  0.211083  0  1.010757  0  0  0.215876  0  1.008359  0  0  0.13293  0.207756  0  1.012452  0
H  H44  1  0.22423401  0.19932240  0.87664202  1  0  0.215042  0  0.93847  0  0  0.220314  0  0.983013  0  0  0.225731  0  0.979697  0  0  0.141027  0.21647  0  0.985486  0
H  H45  1  0.72422848  0.30073436  0.62336861  1  0  0.215052  0  0.938283  0  0  0.220321  0  0.982835  0  0  0.225797  0  0.979421  0  0  0.141061  0.216478  0  0.985307  0
H  H46  1  0.77576258  0.80066725  0.12334762  1  0  0.215254  0  0.938077  0  0  0.220331  0  0.982896  0  0  0.22577  0  0.979545  0  0  0.141061  0.21649  0  0.985365  0
H  H47  1  0.27575904  0.69932409  0.37663857  1  0  0.215042  0  0.938514  0  0  0.220314  0  0.983047  0  0  0.225746  0  0.979707  0  0  0.141033  0.216472  0  0.985518  0
H  H48  1  0.31405464  0.11346201  0.66754898  1  0  0.213678  0  0.97776  0  0  0.212554  0  1.033603  0  0  0.218597  0  1.029758  0  0  0.132204  0.208317  0  1.036326  0
H  H49  1  0.81405713  0.38656884  0.83246677  1  0  0.21353  0  0.978005  0  0  0.212478  0  1.033749  0  0  0.218523  0  1.029901  0  0  0.13213  0.20824  0  1.036471  0
H  H50  1  0.68592885  0.88652319  0.33244123  1  0  0.213773  0  0.977711  0  0  0.212588  0  1.033641  0  0  0.218628  0  1.029802  0  0  0.132265  0.208351  0  1.036366  0
H  H51  1  0.18594247  0.61345216  0.16754770  1  0  0.213682  0  0.977819  0  0  0.212669  0  1.033497  0  0  0.218714  0  1.029649  0  0  0.132243  0.208429  0  1.03622  0
C  C52  1  0.00110689  0.98519111  0.79054319  1  0  0.66444  0  3.828217  0  0  0.584762  0  4.145435  0  0  0.61827  0  4.133791  0  0  0.182101  0.562147  0  4.152647  0
C  C53  1  0.50110171  0.51481341  0.70946029  1  0  0.664399  0  3.828128  0  0  0.584684  0  4.145396  0  0  0.618197  0  4.133747  0  0  0.182078  0.562064  0  4.152605  0
C  C54  1  0.99889272  0.01480486  0.20945933  1  0  0.664549  0  3.828486  0  0  0.584836  0  4.145687  0  0  0.61834  0  4.134053  0  0  0.182244  0.562221  0  4.152895  0
C  C55  1  0.49889488  0.48519233  0.29053303  1  0  0.664452  0  3.828513  0  0  0.584703  0  4.145762  0  0  0.618199  0  4.134125  0  0  0.18224  0.562085  0  4.152973  0
C  C56  1  0.71093838  0.92667434  0.94871503  1  0  0.659508  0  3.824858  0  0  0.580401  0  4.138937  0  0  0.613846  0  4.128175  0  0  0.180529  0.557768  0  4.145774  0
C  C57  1  0.21092897  0.57332828  0.55129154  1  0  0.659533  0  3.824695  0  0  0.580407  0  4.138792  0  0  0.613851  0  4.12803  0  0  0.18051  0.557771  0  4.14563  0
C  C58  1  0.28906224  0.07331718  0.05129010  1  0  0.659592  0  3.825142  0  0  0.580437  0  4.139295  0  0  0.61388  0  4.128536  0  0  0.180532  0.557808  0  4.146128  0
C  C59  1  0.78906560  0.42668104  0.44870522  1  0  0.65959  0  3.824862  0  0  0.5805  0  4.138937  0  0  0.613947  0  4.128177  0  0  0.180513  0.557865  0  4.145772  0
C  C60  1  0.82393067  0.66133093  0.67408503  1  0  0.671976  0  3.792115  0  0  0.591311  0  4.105439  0  0  0.625056  0  4.094233  0  0  0.185379  0.568509  0  4.112521  0
C  C61  1  0.32393660  0.83867340  0.82592176  1  0  0.671893  0  3.791434  0  0  0.591185  0  4.104846  0  0  0.624926  0  4.09365  0  0  0.185351  0.568386  0  4.111926  0
C  C62  1  0.17606894  0.33867662  0.32591371  1  0  0.672059  0  3.791913  0  0  0.591356  0  4.105268  0  0  0.625099  0  4.094067  0  0  0.185536  0.568553  0  4.112351  0
C  C63  1  0.67606804  0.16132256  0.17408077  1  0  0.672001  0  3.791599  0  0  0.59132  0  4.104977  0  0  0.625057  0  4.093783  0  0  0.185479  0.568521  0  4.112056  0
C  C64  1  0.71738675  0.57494606  0.95010766  1  0  0.662668  0  3.81883  0  0  0.583999  0  4.134001  0  0  0.617581  0  4.122241  0  0  0.180794  0.561293  0  4.141467  0
C  C65  1  0.21738824  0.92505385  0.54989278  1  0  0.662652  0  3.818613  0  0  0.58397  0  4.133788  0  0  0.617554  0  4.12202  0  0  0.180782  0.561264  0  4.141256  0
C  C66  1  0.28260984  0.42504899  0.04989015  1  0  0.662715  0  3.818846  0  0  0.58403  0  4.134037  0  0  0.617618  0  4.122265  0  0  0.18084  0.561326  0  4.141504  0
C  C67  1  0.78263051  0.07495188  0.45009853  1  0  0.662891  0  3.818793  0  0  0.584189  0  4.133991  0  0  0.61778  0  4.122214  0  0  0.181001  0.561484  0  4.141454  0
C  C68  1  0.12327970  0.54210139  0.81320492  1  0  0.660387  0  3.840178  0  0  0.584781  0  4.150747  0  0  0.61826  0  4.139486  0  0  0.180288  0.562157  0  4.157929  0
C  C69  1  0.62328153  0.95789589  0.68679386  1  0  0.660395  0  3.840003  0  0  0.584807  0  4.150555  0  0  0.618308  0  4.139284  0  0  0.180294  0.562183  0  4.157737  0
C  C70  1  0.87672293  0.45789633  0.18679228  1  0  0.660468  0  3.839819  0  0  0.584955  0  4.15029  0  0  0.618445  0  4.13903  0  0  0.180361  0.562333  0  4.157462  0
C  C71  1  0.37672814  0.04210987  0.31320551  1  0  0.660375  0  3.839898  0  0  0.584921  0  4.150305  0  0  0.618409  0  4.139037  0  0  0.180308  0.562297  0  4.157495  0
C  C72  1  0.10538095  0.75809366  0.02523374  1  0  0.668145  0  3.802816  0  0  0.588614  0  4.113379  0  0  0.622863  0  4.100586  0  0  0.181661  0.565427  0  4.121497  0
C  C73  1  0.60538014  0.74190590  0.47476881  1  0  0.668167  0  3.802845  0  0  0.588635  0  4.113403  0  0  0.622884  0  4.100607  0  0  0.181711  0.565449  0  4.121521  0
C  C74  1  0.89462369  0.24190405  0.97476009  1  0  0.668247  0  3.803074  0  0  0.58872  0  4.1136  0  0  0.622968  0  4.100814  0  0  0.181787  0.565536  0  4.121712  0
C  C75  1  0.39462753  0.25809276  0.52523780  1  0  0.668195  0  3.803202  0  0  0.588665  0  4.113753  0  0  0.622915  0  4.10096  0  0  0.181778  0.565478  0  4.121869  0
C  C76  1  0.06529783  0.29282263  0.56691227  1  0  -0.228504  0  3.644536  0  0  -0.235326  0  3.87136  0  0  -0.240932  0  3.892877  0  0  -0.149163  -0.231408  0  3.856982  0
C  C77  1  0.56530046  0.20713687  0.93307822  1  0  -0.228467  0  3.64408  0  0  -0.235224  0  3.871075  0  0  -0.240829  0  3.892594  0  0  -0.149252  -0.231315  0  3.856694  0
C  C78  1  0.93469473  0.70716085  0.43309201  1  0  -0.228397  0  3.644499  0  0  -0.23528  0  3.871261  0  0  -0.240889  0  3.892776  0  0  -0.149099  -0.231352  0  3.856883  0
C  C79  1  0.43467699  0.79283683  0.06693526  1  0  -0.228245  0  3.643598  0  0  -0.234981  0  3.870586  0  0  -0.240585  0  3.892105  0  0  -0.149099  -0.231074  0  3.856209  0
C  C80  1  0.06161199  0.29977199  0.64808084  1  0  -0.207232  0  3.678238  0  0  -0.210413  0  3.901053  0  0  -0.21495  0  3.925496  0  0  -0.138384  -0.207348  0  3.884592  0
C  C81  1  0.56162950  0.20019912  0.85190991  1  0  -0.207116  0  3.678102  0  0  -0.210441  0  3.900742  0  0  -0.21498  0  3.925186  0  0  -0.13829  -0.207369  0  3.88428  0
C  C82  1  0.93837453  0.70021595  0.35192488  1  0  -0.20713  0  3.678242  0  0  -0.210415  0  3.900987  0  0  -0.214954  0  3.925429  0  0  -0.138404  -0.207348  0  3.884524  0
C  C83  1  0.43836608  0.79979155  0.14810460  1  0  -0.207376  0  3.677916  0  0  -0.210679  0  3.900626  0  0  -0.21522  0  3.925072  0  0  -0.138361  -0.207608  0  3.884166  0
C  C84  1  0.25365044  0.17093693  0.81026606  1  0  -0.188762  0  3.628964  0  0  -0.194019  0  3.846727  0  0  -0.197814  0  3.868609  0  0  -0.12902  -0.191365  0  3.832076  0
C  C85  1  0.75365132  0.32909038  0.68974853  1  0  -0.188655  0  3.628572  0  0  -0.193928  0  3.846428  0  0  -0.197779  0  3.868236  0  0  -0.128961  -0.191272  0  3.831772  0
C  C86  1  0.74634614  0.82905719  0.18972367  1  0  -0.189033  0  3.62855  0  0  -0.194117  0  3.846498  0  0  -0.197933  0  3.868349  0  0  -0.129032  -0.191461  0  3.831842  0
C  C87  1  0.24634124  0.67094132  0.31026280  1  0  -0.188714  0  3.628941  0  0  -0.193975  0  3.846748  0  0  -0.197786  0  3.868613  0  0  -0.128984  -0.19132  0  3.832091  0
C  C88  1  0.28462813  0.13791560  0.73504800  1  0  -0.211583  0  3.614818  0  0  -0.214435  0  3.836968  0  0  -0.22016  0  3.859534  0  0  -0.137181  -0.210479  0  3.821735  0
C  C89  1  0.78462725  0.36210278  0.76496829  1  0  -0.211547  0  3.614777  0  0  -0.21444  0  3.83684  0  0  -0.220161  0  3.859428  0  0  -0.137215  -0.21048  0  3.8216  0
C  C90  1  0.71536443  0.86207139  0.26494360  1  0  -0.211603  0  3.614753  0  0  -0.214383  0  3.836887  0  0  -0.220104  0  3.859462  0  0  -0.137265  -0.210427  0  3.821653  0
C  C91  1  0.21536329  0.63791288  0.23504741  1  0  -0.211634  0  3.61489  0  0  -0.214579  0  3.836925  0  0  -0.220303  0  3.859495  0  0  -0.137278  -0.210617  0  3.821689  0
O  O92  1  0.99953033  0.87079708  0.77889875  1  0  -0.790782  0  2.155014  0  0  -0.718697  0  2.414142  0  0  -0.741948  0  2.398043  0  0  -0.389272  -0.702591  0  2.424639  0
O  O93  1  0.49952833  0.62920443  0.72110050  1  0  -0.790732  0  2.154969  0  0  -0.718638  0  2.414148  0  0  -0.741893  0  2.398043  0  0  -0.389255  -0.702538  0  2.424672  0
O  O94  1  0.00046625  0.12919797  0.22109772  1  0  -0.790873  0  2.155037  0  0  -0.718808  0  2.414233  0  0  -0.74205  0  2.398138  0  0  -0.389387  -0.70271  0  2.424766  0
O  O95  1  0.50046826  0.37080399  0.27889355  1  0  -0.79067  0  2.155224  0  0  -0.718659  0  2.414464  0  0  -0.741875  0  2.39836  0  0  -0.389304  -0.70257  0  2.424992  0
O  O96  1  0.74047366  0.84689666  0.88747286  1  0  -0.777917  0  2.115711  0  0  -0.704429  0  2.369848  0  0  -0.728311  0  2.355041  0  0  -0.374756  -0.687979  0  2.379623  0
O  O97  1  0.24046865  0.65310323  0.61252748  1  0  -0.777875  0  2.115868  0  0  -0.704387  0  2.370041  0  0  -0.728269  0  2.355231  0  0  -0.37472  -0.687936  0  2.379819  0
O  O98  1  0.25953099  0.15309573  0.11252892  1  0  -0.777928  0  2.115799  0  0  -0.704435  0  2.369888  0  0  -0.728301  0  2.355095  0  0  -0.374794  -0.687988  0  2.379662  0
O  O99  1  0.75952491  0.34690431  0.38746925  1  0  -0.777872  0  2.115885  0  0  -0.704337  0  2.369932  0  0  -0.728222  0  2.355129  0  0  -0.374697  -0.687883  0  2.379707  0
O  O100  1  0.79366204  0.68734539  0.75610069  1  0  -0.776932  0  2.163353  0  0  -0.706062  0  2.419246  0  0  -0.730895  0  2.406482  0  0  -0.376528  -0.688782  0  2.427254  0
O  O101  1  0.29366979  0.81265006  0.74391075  1  0  -0.776936  0  2.163407  0  0  -0.706093  0  2.419413  0  0  -0.730881  0  2.406558  0  0  -0.376581  -0.688814  0  2.427414  0
O  O102  1  0.20633454  0.31264789  0.24390044  1  0  -0.776948  0  2.163432  0  0  -0.706071  0  2.419275  0  0  -0.730903  0  2.406558  0  0  -0.376562  -0.688788  0  2.427275  0
O  O103  1  0.70633183  0.18735660  0.25608865  1  0  -0.776966  0  2.163611  0  0  -0.706079  0  2.419527  0  0  -0.730893  0  2.406733  0  0  -0.376546  -0.688794  0  2.427524  0
O  O104  1  0.84228413  0.60453626  0.94058840  1  0  -0.775181  0  2.091545  0  0  -0.706325  0  2.347041  0  0  -0.729556  0  2.330911  0  0  -0.370277  -0.690205  0  2.357647  0
O  O105  1  0.34228857  0.89546805  0.55941562  1  0  -0.775094  0  2.091123  0  0  -0.706257  0  2.346644  0  0  -0.729481  0  2.330514  0  0  -0.370239  -0.690136  0  2.357248  0
O  O106  1  0.15771346  0.39545969  0.05941144  1  0  -0.775218  0  2.091462  0  0  -0.706325  0  2.346914  0  0  -0.729539  0  2.330784  0  0  -0.370303  -0.690205  0  2.357518  0
O  O107  1  0.65772816  0.10453323  0.44057829  1  0  -0.775187  0  2.091326  0  0  -0.706362  0  2.346879  0  0  -0.729578  0  2.330741  0  0  -0.370321  -0.690238  0  2.357475  0
O  O108  1  0.07796551  0.64836422  0.80314688  1  0  -0.771522  0  2.134032  0  0  -0.698286  0  2.384978  0  0  -0.722605  0  2.371191  0  0  -0.370242  -0.681516  0  2.393887  0
O  O109  1  0.57796026  0.85163757  0.69685421  1  0  -0.771444  0  2.133948  0  0  -0.698252  0  2.384971  0  0  -0.722549  0  2.371115  0  0  -0.370252  -0.681486  0  2.393893  0
O  O110  1  0.92204114  0.35163351  0.19685032  1  0  -0.771563  0  2.133899  0  0  -0.698365  0  2.384886  0  0  -0.722654  0  2.371044  0  0  -0.370284  -0.68162  0  2.393871  0
O  O111  1  0.42204640  0.14836910  0.30314720  1  0  -0.771507  0  2.134094  0  0  -0.698325  0  2.385036  0  0  -0.722617  0  2.371198  0  0  -0.370231  -0.681554  0  2.393946  0
O  O112  1  0.02721846  0.81514262  0.97230479  1  0  -0.779098  0  2.116772  0  0  -0.709346  0  2.376636  0  0  -0.732043  0  2.358429  0  0  -0.378402  -0.693614  0  2.38858  0
O  O113  1  0.52720688  0.68485739  0.52769244  1  0  -0.779118  0  2.116707  0  0  -0.70939  0  2.376621  0  0  -0.732084  0  2.3584  0  0  -0.378488  -0.693654  0  2.388552  0
O  O114  1  0.97278417  0.18485063  0.02769029  1  0  -0.779189  0  2.116674  0  0  -0.709449  0  2.376586  0  0  -0.732138  0  2.358397  0  0  -0.378478  -0.693713  0  2.388526  0
O  O115  1  0.47278669  0.31514927  0.47230695  1  0  -0.779172  0  2.116663  0  0  -0.709446  0  2.376555  0  0  -0.732137  0  2.358345  0  0  -0.378505  -0.693719  0  2.388499  0
O  O116  1  0.98673936  0.03880854  0.86473213  1  0  -0.65275  0  2.073629  0  0  -0.594643  0  2.325446  0  0  -0.618836  0  2.314795  0  0  -0.332059  -0.577911  0  2.332204  0
O  O117  1  0.48673094  0.46119179  0.63526611  1  0  -0.652728  0  2.073414  0  0  -0.594635  0  2.325265  0  0  -0.618836  0  2.314616  0  0  -0.332022  -0.577902  0  2.332012  0
O  O118  1  0.01326226  0.96117943  0.13527695  1  0  -0.652783  0  2.073789  0  0  -0.594662  0  2.325594  0  0  -0.618858  0  2.314949  0  0  -0.332116  -0.57793  0  2.332353  0
O  O119  1  0.51325859  0.53882196  0.36472268  1  0  -0.652764  0  2.073447  0  0  -0.594675  0  2.325288  0  0  -0.618878  0  2.31465  0  0  -0.332178  -0.577944  0  2.332038  0
O  O120  1  0.79352861  0.97678914  0.00091097  1  0  -0.648797  0  2.064698  0  0  -0.59306  0  2.318842  0  0  -0.617012  0  2.308278  0  0  -0.333243  -0.576512  0  2.325592  0
O  O121  1  0.29352198  0.52321029  0.49908874  1  0  -0.648849  0  2.064307  0  0  -0.593146  0  2.318472  0  0  -0.617103  0  2.307909  0  0  -0.33328  -0.576597  0  2.32521  0
O  O122  1  0.20647603  0.02320416  0.99909486  1  0  -0.648734  0  2.06481  0  0  -0.592999  0  2.318985  0  0  -0.616952  0  2.308426  0  0  -0.333178  -0.57643  0  2.325687  0
O  O123  1  0.70646252  0.47680436  0.50090275  1  0  -0.64888  0  2.064343  0  0  -0.593201  0  2.318522  0  0  -0.617158  0  2.307959  0  0  -0.33331  -0.576637  0  2.325233  0
O  O124  1  0.62005441  0.61646553  0.90761346  1  0  -0.651774  0  2.021951  0  0  -0.594452  0  2.263024  0  0  -0.617975  0  2.251261  0  0  -0.343077  -0.578285  0  2.270711  0
O  O125  1  0.12006257  0.88353713  0.59239014  1  0  -0.651794  0  2.022192  0  0  -0.594467  0  2.26328  0  0  -0.617988  0  2.251515  0  0  -0.343107  -0.578304  0  2.270971  0
O  O126  1  0.37994016  0.38353039  0.09238033  1  0  -0.651773  0  2.022126  0  0  -0.594472  0  2.263203  0  0  -0.617989  0  2.251441  0  0  -0.343079  -0.578308  0  2.270894  0
O  O127  1  0.87994912  0.11647128  0.40760257  1  0  -0.652013  0  2.022318  0  0  -0.594676  0  2.263431  0  0  -0.618207  0  2.251658  0  0  -0.343253  -0.578508  0  2.271124  0
O  O128  1  0.09538623  0.47554827  0.87643310  1  0  -0.647521  0  2.038518  0  0  -0.593686  0  2.283143  0  0  -0.617071  0  2.271973  0  0  -0.33481  -0.577567  0  2.290359  0
O  O129  1  0.59538892  0.02445229  0.62356349  1  0  -0.647597  0  2.038351  0  0  -0.593782  0  2.282974  0  0  -0.617156  0  2.271789  0  0  -0.334838  -0.57766  0  2.290188  0
O  O130  1  0.90461942  0.52445034  0.12356344  1  0  -0.647572  0  2.038262  0  0  -0.593729  0  2.282848  0  0  -0.61712  0  2.271671  0  0  -0.334832  -0.577608  0  2.290064  0
O  O131  1  0.40462680  0.97555169  0.37643652  1  0  -0.64757  0  2.038082  0  0  -0.593749  0  2.28263  0  0  -0.617121  0  2.271442  0  0  -0.33483  -0.577631  0  2.289849  0
O  O132  1  0.11219789  0.64691907  0.02915077  1  0  -0.665453  0  2.092817  0  0  -0.605547  0  2.342922  0  0  -0.63  0  2.331212  0  0  -0.340516  -0.588715  0  2.350556  0
O  O133  1  0.61220309  0.85307958  0.47085039  1  0  -0.665485  0  2.092862  0  0  -0.605541  0  2.342887  0  0  -0.62998  0  2.331179  0  0  -0.340486  -0.588711  0  2.350524  0
O  O134  1  0.88781481  0.35307237  0.97083823  1  0  -0.665401  0  2.093169  0  0  -0.60549  0  2.343268  0  0  -0.629943  0  2.33156  0  0  -0.340538  -0.588659  0  2.350902  0
O  O135  1  0.38782371  0.14692803  0.52916313  1  0  -0.665382  0  2.093276  0  0  -0.60547  0  2.343367  0  0  -0.629911  0  2.331658  0  0  -0.340537  -0.588642  0  2.351004  0
O  O136  1  0.93662259  0.68047324  0.63864753  1  0  -0.654067  0  2.055318  0  0  -0.589988  0  2.297089  0  0  -0.614645  0  2.285497  0  0  -0.335292  -0.573063  0  2.304564  0
O  O137  1  0.43663826  0.81953373  0.86136554  1  0  -0.654227  0  2.054778  0  0  -0.589946  0  2.296438  0  0  -0.614618  0  2.284848  0  0  -0.335285  -0.573026  0  2.303921  0
O  O138  1  0.06337198  0.31954591  0.36135078  1  0  -0.654299  0  2.055243  0  0  -0.590091  0  2.296954  0  0  -0.614758  0  2.285365  0  0  -0.335479  -0.573165  0  2.304432  0
O  O139  1  0.56336336  0.18045510  0.13863818  1  0  -0.654322  0  2.054838  0  0  -0.590056  0  2.296468  0  0  -0.614722  0  2.284886  0  0  -0.33544  -0.573137  0  2.303949  0
