# generated using pymatgen
data_CuH14C14NO7
_symmetry_space_group_name_H-M   'P 1'
_cell_length_a   7.32362381
_cell_length_b   8.36975033
_cell_length_c   11.83224797
_cell_angle_alpha   106.15822791
_cell_angle_beta   90.63206737
_cell_angle_gamma   96.82012539
_symmetry_Int_Tables_number   1
_chemical_formula_structural   CuH14C14NO7
_chemical_formula_sum   'Cu2 H28 C28 N2 O14'
_cell_volume   690.96063768
_cell_formula_units_Z   2
loop_
 _symmetry_equiv_pos_site_id
 _symmetry_equiv_pos_as_xyz
  1  'x, y, z'
loop_
 _atom_site_type_symbol
 _atom_site_label
 _atom_site_symmetry_multiplicity
 _atom_site_fract_x
 _atom_site_fract_y
 _atom_site_fract_z
 _atom_site_occupancy
 _atom_site_hle17_ddec_charge
 _atom_site_hle17_ddec_spin_density
 _atom_site_hle17_ddec_sum_bond_order
 _atom_site_hle17_magmom
 _atom_site_hse06_10hf_ddec_charge
 _atom_site_hse06_10hf_ddec_spin_density
 _atom_site_hse06_10hf_ddec_sum_bond_order
 _atom_site_hse06_10hf_magmom
 _atom_site_hse06_ddec_charge
 _atom_site_hse06_ddec_spin_density
 _atom_site_hse06_ddec_sum_bond_order
 _atom_site_hse06_magmom
 _atom_site_pbe_cm5_charge
 _atom_site_pbe_ddec_charge
 _atom_site_pbe_ddec_spin_density
 _atom_site_pbe_ddec_sum_bond_order
 _atom_site_pbe_magmom
Cu  Cu0  1  0.65692296  0.71085952  0.54231722  1  0.992122  0.714497  1.68663  0.543  0.988089  0.80129  2.064785  0.662  1.065801  0.85977  2.00849  0.741  0.723123  0.933282  0.758309  2.112164  0.607
Cu  Cu1  1  0.34308113  0.28914280  0.45768049  1  0.992134  0.714478  1.686593  0.543  0.988114  0.801311  2.064861  0.662  1.065863  0.859767  2.008454  0.741  0.723109  0.933302  0.758309  2.112205  0.607
H  H2  1  0.39128038  0.56390566  0.08194611  1  0.093365  -0.000183  0.977484  0.0  0.101836  -1.9e-05  1.042441  0.0  0.103869  -2.5e-05  1.043319  0.0  0.100671  0.100434  -1.3e-05  1.041883  0.0
H  H3  1  0.60872515  0.43608787  0.91805156  1  0.093381  -0.000186  0.977458  0.0  0.101858  -1.9e-05  1.0424  0.0  0.103892  -2.5e-05  1.043278  0.0  0.100682  0.100462  -1.2e-05  1.041842  0.0
H  H4  1  0.34453559  0.72165783  0.94101809  1  0.099897  -9.8e-05  0.972635  0.0  0.108232  -2.1e-05  1.038411  0.0  0.111753  -3e-05  1.035852  0.0  0.100726  0.105787  -9e-06  1.040128  0.0
H  H5  1  0.65546075  0.27833826  0.05898170  1  0.099907  -9.3e-05  0.972547  0.0  0.108243  -2.1e-05  1.038312  0.0  0.111751  -3e-05  1.035791  0.0  0.100731  0.105799  -9e-06  1.04003  0.0
H  H6  1  0.71295264  0.14076780  0.15792539  1  0.102376  -1.9e-05  0.962474  0.0  0.112017  -1.5e-05  1.02556  0.0  0.115281  -1.4e-05  1.024042  0.0  0.10543  0.10969  -1.3e-05  1.026691  0.0
H  H7  1  0.28703724  0.85923083  0.84207654  1  0.10243  -1.9e-05  0.962465  0.0  0.112066  -1.5e-05  1.025536  0.0  0.115321  -1.4e-05  1.024053  0.0  0.105468  0.109738  -1.3e-05  1.026667  0.0
H  H8  1  0.84008236  0.44293802  0.59036938  1  0.097658  0.001505  0.945162  0.002  0.106146  0.001281  1.006049  0.002  0.108279  0.000859  1.003262  0.001  0.121712  0.104315  0.001632  1.008368  0.002
H  H9  1  0.15992726  0.55707431  0.40963541  1  0.097751  0.001502  0.944996  0.002  0.10613  0.001281  1.005982  0.002  0.10826  0.000859  1.003205  0.001  0.121714  0.104302  0.001632  1.008292  0.002
H  H10  1  0.97436644  0.37438353  0.76126095  1  0.12125  0.000561  0.968971  0.001  0.127928  0.000523  1.032584  0.001  0.131669  0.000372  1.030861  0.0  0.109989  0.125114  0.000648  1.034148  0.001
H  H11  1  0.02562908  0.62561633  0.23874127  1  0.121276  0.00056  0.969059  0.001  0.127953  0.000523  1.03266  0.001  0.131684  0.000372  1.030963  0.0  0.110008  0.125133  0.000648  1.034223  0.001
H  H12  1  0.85168013  0.85568050  0.97745175  1  0.101136  0.000658  0.971754  0.001  0.111962  0.000577  1.031536  0.001  0.114013  0.000401  1.032917  0.0  0.103396  0.110399  0.000732  1.030833  0.001
H  H13  1  0.14831712  0.14432186  0.02254928  1  0.101168  0.000662  0.971649  0.001  0.111987  0.000577  1.031448  0.001  0.114038  0.000401  1.032827  0.0  0.103415  0.110426  0.000732  1.030746  0.001
H  H14  1  0.72139779  0.90348935  0.79466219  1  0.089056  0.001238  0.963577  0.002  0.096398  0.000987  1.028156  0.002  0.097457  0.000662  1.027423  0.001  0.117069  0.095396  0.001252  1.028819  0.002
H  H15  1  0.27861011  0.09652048  0.20533956  1  0.089018  0.001243  0.963536  0.002  0.09633  0.000988  1.028153  0.002  0.097389  0.000662  1.027419  0.001  0.117057  0.095329  0.001252  1.028811  0.002
H  H16  1  0.98372135  0.68028101  0.07498459  1  0.099338  0.000136  0.94371  0.0  0.11005  7.7e-05  1.005175  0.0  0.11294  5.9e-05  1.004164  0.0  0.106983  0.107911  9.6e-05  1.006028  0.0
H  H17  1  0.01626425  0.31971639  0.92501706  1  0.099324  0.000134  0.943647  0.0  0.110076  7.7e-05  1.005072  0.0  0.11296  5.9e-05  1.004074  0.0  0.106973  0.107931  9.6e-05  1.005951  0.0
H  H18  1  0.39955391  0.58241745  0.64794335  1  0.415278  -0.000754  0.900259  -0.001  0.382882  -3.1e-05  0.968532  0.0  0.396295  -0.00017  0.94938  0.0  0.283556  0.3735  0.000102  0.981845  0.0
H  H19  1  0.60045371  0.41758109  0.35205617  1  0.415274  -0.000753  0.900267  -0.001  0.38289  -3.1e-05  0.968527  0.0  0.396303  -0.00017  0.949375  0.0  0.28356  0.373504  0.000102  0.981846  0.0
H  H20  1  0.90939191  0.78726874  0.41949685  1  0.41911  -0.000739  0.892559  -0.001  0.390352  0.000162  0.954447  0.0  0.401316  -3.3e-05  0.93893  0.0  0.293611  0.382505  0.000322  0.965553  0.0
H  H21  1  0.09061126  0.21272731  0.58050046  1  0.419107  -0.000738  0.89257  -0.001  0.390353  0.000163  0.954451  0.0  0.401316  -3.3e-05  0.938934  0.0  0.293611  0.382502  0.000322  0.965561  0.0
H  H22  1  0.61413474  0.08310628  0.60971366  1  0.425954  0.000131  0.859446  0.0  0.403601  0.000123  0.912651  0.0  0.414572  5.7e-05  0.896683  0.0  0.291923  0.395729  0.000195  0.924066  0.0
H  H23  1  0.38587016  0.91689227  0.39028416  1  0.425926  0.000132  0.859448  0.0  0.403579  0.000123  0.912683  0.0  0.414541  5.7e-05  0.896724  0.0  0.291905  0.395707  0.000195  0.9241  0.0
H  H24  1  0.32422814  0.73392352  0.60669283  1  0.430469  -0.000233  0.871774  -0.001  0.403589  0.000333  0.928212  0.0  0.416362  0.000134  0.910217  0.0  0.291739  0.394493  0.000485  0.940966  0.001
H  H25  1  0.67577539  0.26607504  0.39330666  1  0.430456  -0.000232  0.871792  -0.001  0.403589  0.000333  0.928211  0.0  0.416363  0.000134  0.910213  0.0  0.291747  0.394494  0.000485  0.940962  0.001
H  H26  1  0.00274917  0.78011398  0.54143023  1  0.417328  -0.00074  0.897248  -0.001  0.384517  -2.3e-05  0.964365  0.0  0.3977  -0.000184  0.945782  0.0  0.288239  0.375274  0.000132  0.977358  0.0
H  H27  1  0.99725437  0.21988458  0.45856758  1  0.417296  -0.000739  0.897292  -0.001  0.384494  -2.3e-05  0.964394  0.0  0.397678  -0.000184  0.94581  0.0  0.288237  0.375245  0.000132  0.977394  0.0
H  H28  1  0.81782830  0.04891700  0.63854875  1  0.414875  -5e-06  0.887603  0.0  0.385978  -2.2e-05  0.949217  0.0  0.397814  -2.8e-05  0.931635  0.0  0.28364  0.377657  -7e-06  0.961552  0.0
H  H29  1  0.18217679  0.95108281  0.36144931  1  0.414867  -7e-06  0.887617  0.0  0.385956  -2.2e-05  0.949224  0.0  0.397794  -2.8e-05  0.931639  0.0  0.283642  0.377631  -7e-06  0.961559  0.0
C  C30  1  0.58851445  0.66489639  0.28814779  1  0.654975  -0.005633  3.88167  -0.005  0.605902  5e-06  4.187683  0.0  0.643193  -0.000564  4.178628  0.0  0.216308  0.580326  0.000676  4.192653  0.0
C  C31  1  0.41149108  0.33509714  0.71184819  1  0.654823  -0.005638  3.881766  -0.005  0.605733  5e-06  4.187788  0.0  0.64302  -0.000564  4.178753  0.0  0.216212  0.580162  0.000676  4.192765  0.0
C  C32  1  0.57859522  0.75858449  0.19773236  1  -0.060019  0.010574  3.730016  0.011  -0.050694  0.003611  3.967996  0.004  -0.055746  0.001896  3.987388  0.003  -0.009949  -0.04735  0.005402  3.955119  0.006
C  C33  1  0.42140795  0.24141156  0.80226495  1  -0.059883  0.010565  3.73004  0.011  -0.050528  0.003612  3.967966  0.004  -0.055588  0.001896  3.98738  0.003  -0.009888  -0.047189  0.005403  3.955097  0.006
C  C34  1  0.46151014  0.69068831  0.09780718  1  -0.066289  0.001811  3.745412  0.002  -0.088916  0.001653  3.998868  0.002  -0.089815  0.001175  4.019651  0.001  -0.083424  -0.088289  0.002174  3.984698  0.002
C  C35  1  0.53848857  0.30930525  0.90219128  1  -0.066368  0.001824  3.745561  0.002  -0.089023  0.001653  3.999027  0.002  -0.089919  0.001174  4.019816  0.001  -0.083468  -0.088398  0.002174  3.984863  0.002
C  C36  1  0.43236441  0.78312696  0.01955149  1  -0.099768  0.001842  3.707368  0.002  -0.125282  1.7e-05  3.963827  0.0  -0.127122  -0.000442  3.982934  0.0  -0.08618  -0.123717  0.000511  3.950528  0.0
C  C37  1  0.56763056  0.21686913  0.98044829  1  -0.099889  0.001827  3.707339  0.002  -0.125376  1.7e-05  3.963773  0.0  -0.127215  -0.000442  3.982859  0.0  -0.08625  -0.123814  0.000512  3.950484  0.0
C  C38  1  0.51659695  0.94938980  0.04039521  1  0.046848  0.005186  3.785342  0.005  0.060521  0.001813  4.022133  0.002  0.060429  0.001229  4.045569  0.001  -0.007798  0.060602  0.002521  4.005998  0.002
C  C39  1  0.48339512  0.05060505  0.95960346  1  0.046995  0.00519  3.785201  0.005  0.060674  0.001813  4.021974  0.002  0.060589  0.001228  4.045408  0.001  -0.00775  0.060759  0.00252  4.005838  0.002
C  C40  1  0.63892264  0.01483778  0.13956012  1  -0.123656  -0.001532  3.705553  -0.001  -0.155534  -0.000675  3.960034  0.0  -0.157099  -0.00082  3.978929  -0.001  -0.085305  -0.154289  -0.000456  3.947199  0.0
C  C41  1  0.36106724  0.98516085  0.86044012  1  -0.123783  -0.001524  3.705509  -0.001  -0.155658  -0.000674  3.960014  0.0  -0.157234  -0.000819  3.978913  -0.001  -0.085358  -0.154414  -0.000456  3.947181  0.0
C  C42  1  0.67337309  0.92074040  0.21590486  1  -0.06345  0.002135  3.750796  0.002  -0.052495  0.00104  3.994734  0.001  -0.057657  0.000775  4.01543  0.001  -0.012024  -0.049314  0.001337  3.981039  0.001
C  C43  1  0.32662070  0.07925695  0.78409432  1  -0.063468  0.002134  3.75089  0.002  -0.052533  0.001038  3.99483  0.001  -0.057694  0.000775  4.01553  0.001  -0.012044  -0.049349  0.001336  3.981131  0.001
C  C44  1  0.82376021  0.98968242  0.30966518  1  0.679049  -0.000629  3.872739  0.0  0.61584  -3.1e-05  4.18358  0.0  0.650159  -8.9e-05  4.174613  0.0  0.223886  0.592531  5.1e-05  4.18885  0.0
C  C45  1  0.17623450  0.01032121  0.69033524  1  0.678961  -0.000631  3.872977  0.0  0.615775  -3.1e-05  4.183749  0.0  0.650092  -8.9e-05  4.174784  0.0  0.223871  0.592479  5.1e-05  4.188997  0.0
C  C46  1  0.84351534  0.52968017  0.67809582  1  0.146518  -0.0117  3.660077  -0.007  0.116817  -0.002144  3.915976  -0.001  0.126935  -0.004167  3.9326  -0.002  0.049553  0.11021  -0.00064  3.904921  0.0
C  C47  1  0.15649511  0.47032839  0.32190655  1  0.146409  -0.011708  3.65982  -0.007  0.116869  -0.002142  3.915679  -0.001  0.126987  -0.004169  3.932306  -0.002  0.049631  0.110259  -0.000641  3.904616  0.0
C  C48  1  0.91801393  0.49265453  0.77465686  1  -0.141497  0.010592  3.641668  0.012  -0.157874  0.004157  3.884738  0.005  -0.165987  0.003685  3.903924  0.004  -0.074564  -0.152983  0.004542  3.872656  0.005
C  C49  1  0.08198214  0.50734909  0.22534357  1  -0.141428  0.010608  3.641851  0.012  -0.157827  0.004156  3.884881  0.005  -0.165943  0.003686  3.904064  0.004  -0.074578  -0.152937  0.004543  3.872791  0.005
C  C50  1  0.91932510  0.60783364  0.88715513  1  0.128896  -0.012183  3.797146  -0.008  0.143614  -0.004495  4.028009  -0.003  0.149917  -0.005015  4.048864  -0.003  0.009605  0.1393  -0.004151  4.014271  -0.002
C  C51  1  0.08066649  0.39216748  0.11285153  1  0.12879  -0.012202  3.797342  -0.008  0.143526  -0.004495  4.028195  -0.003  0.149829  -0.005016  4.049051  -0.003  0.009532  0.139211  -0.004151  4.014447  -0.002
C  C52  1  0.85239692  0.76065615  0.89317026  1  -0.165229  0.009581  3.693548  0.011  -0.179166  0.003788  3.933621  0.005  -0.188223  0.003382  3.955227  0.004  -0.082317  -0.173494  0.00411  3.919615  0.005
C  C53  1  0.14759896  0.23934622  0.10683330  1  -0.165178  0.00959  3.69356  0.011  -0.17912  0.003787  3.933623  0.005  -0.188174  0.003383  3.955226  0.004  -0.082295  -0.173451  0.00411  3.919614  0.005
C  C54  1  0.77856441  0.78845457  0.79271123  1  0.135168  -0.012639  3.684773  -0.008  0.1065  -0.002699  3.938642  -0.001  0.116171  -0.004524  3.957475  -0.003  0.046293  0.100182  -0.001409  3.925987  0.0
C  C55  1  0.22144312  0.21155275  0.20729087  1  0.135173  -0.012671  3.684819  -0.008  0.106551  -0.002698  3.9387  -0.001  0.116222  -0.004525  3.957541  -0.003  0.046286  0.10023  -0.001409  3.926042  0.0
C  C56  1  0.97904865  0.57471730  0.99552075  1  -0.088582  -0.002444  3.684886  -0.001  -0.10724  -0.001195  3.93387  0.0  -0.110088  -0.001289  3.953376  0.0  -0.071764  -0.105455  -0.001141  3.920996  0.0
C  C57  1  0.02094176  0.42528509  0.00448446  1  -0.088702  -0.002403  3.684795  -0.001  -0.107391  -0.001197  3.933778  0.0  -0.110235  -0.001287  3.953272  0.0  -0.071807  -0.105604  -0.001142  3.920901  0.0
N  N58  1  0.77136895  0.67343132  0.68691092  1  -0.310961  0.084203  3.315157  0.111  -0.264373  0.056907  3.610229  0.08  -0.295755  0.045225  3.632714  0.069  -0.346399  -0.244291  0.063901  3.595692  0.086
N  N59  1  0.22863858  0.32657600  0.31309118  1  -0.310939  0.084217  3.31516  0.111  -0.264436  0.056905  3.610242  0.08  -0.295824  0.045226  3.632717  0.069  -0.346453  -0.244348  0.063904  3.595688  0.086
O  O60  1  0.56082310  0.75237697  0.39408960  1  -0.630207  0.071559  2.053769  0.101  -0.595692  0.041428  2.322704  0.064  -0.636551  0.030474  2.313586  0.051  -0.324871  -0.566496  0.049429  2.328133  0.072
O  O61  1  0.43917816  0.24761533  0.60590610  1  -0.630117  0.071563  2.053693  0.101  -0.595621  0.041424  2.322688  0.064  -0.636484  0.030474  2.313566  0.051  -0.324807  -0.566422  0.049425  2.32811  0.072
O  O62  1  0.61599336  0.51372119  0.25637329  1  -0.581417  0.002351  1.961933  0.004  -0.528594  0.001881  2.178713  0.003  -0.554381  0.000661  2.170498  0.002  -0.300269  -0.510199  0.003201  2.183568  0.005
O  O63  1  0.38401527  0.48627483  0.74362490  1  -0.581366  0.002352  1.961901  0.004  -0.528543  0.001881  2.178708  0.003  -0.554329  0.000661  2.170495  0.002  -0.300227  -0.510144  0.003201  2.183565  0.005
O  O64  1  0.93922999  0.89207570  0.32073498  1  -0.652626  0.001221  2.011565  0.002  -0.586699  0.000523  2.232941  0.001  -0.611761  0.000234  2.220584  0.0  -0.313609  -0.568901  0.000896  2.240862  0.001
O  O65  1  0.06077002  0.10792665  0.67925932  1  -0.652582  0.001217  2.011653  0.002  -0.586667  0.000522  2.233034  0.001  -0.611729  0.000234  2.220678  0.0  -0.313626  -0.568871  0.000896  2.240952  0.001
O  O66  1  0.83414884  0.14371409  0.36802901  1  -0.611274  0.001392  2.04101  0.002  -0.538601  0.000994  2.249815  0.001  -0.566039  0.000486  2.239524  0.001  -0.297368  -0.519449  0.00157  2.256473  0.002
O  O67  1  0.16585370  0.85628698  0.63196844  1  -0.611254  0.001398  2.041055  0.002  -0.538539  0.000994  2.249803  0.001  -0.565964  0.000486  2.239499  0.001  -0.297322  -0.51939  0.001571  2.256453  0.002
O  O68  1  0.40561016  0.64229749  0.58330924  1  -0.846171  0.060038  1.989197  0.086  -0.826594  0.041732  2.236065  0.064  -0.858045  0.031191  2.193523  0.053  -0.587035  -0.803221  0.049285  2.265362  0.071
O  O69  1  0.59439356  0.35770233  0.41668966  1  -0.846144  0.06004  1.989243  0.086  -0.826586  0.041732  2.236132  0.064  -0.858052  0.031193  2.193584  0.053  -0.587017  -0.803198  0.049287  2.265399  0.071
O  O70  1  0.68631217  0.00259778  0.63016565  1  -0.855324  -0.001945  1.863238  0.0  -0.818666  -0.001918  2.042577  0.0  -0.837135  -0.002291  2.006444  -0.001  -0.600392  -0.804634  -0.001365  2.068207  0.0
O  O71  1  0.31369017  0.99740204  0.36983409  1  -0.855302  -0.001944  1.863272  0.0  -0.818623  -0.001919  2.042686  0.0  -0.837084  -0.002291  2.006568  -0.001  -0.600381  -0.80459  -0.001365  2.068315  0.0
O  O72  1  0.90376569  0.72004904  0.47738994  1  -0.814154  0.070259  1.982776  0.098  -0.786331  0.04838  2.209788  0.072  -0.820488  0.036959  2.176165  0.06  -0.584159  -0.762544  0.055693  2.233561  0.078
O  O73  1  0.09623611  0.27994702  0.52260820  1  -0.814106  0.07026  1.982784  0.098  -0.786293  0.048378  2.209831  0.072  -0.820458  0.036959  2.176187  0.06  -0.584142  -0.762496  0.055693  2.233602  0.078
