# generated using pymatgen
data_AlH12C21S3NO15
_symmetry_space_group_name_H-M   'P 1'
_cell_length_a   4.34401121
_cell_length_b   13.26593576
_cell_length_c   13.26597423
_cell_angle_alpha   119.99992527
_cell_angle_beta   90.00083448
_cell_angle_gamma   89.99890734
_symmetry_Int_Tables_number   1
_chemical_formula_structural   AlH12C21S3NO15
_chemical_formula_sum   'Al1 H12 C21 S3 N1 O15'
_cell_volume   662.06241632
_cell_formula_units_Z   1
loop_
 _symmetry_equiv_pos_site_id
 _symmetry_equiv_pos_as_xyz
  1  'x, y, z'
loop_
 _atom_site_type_symbol
 _atom_site_label
 _atom_site_symmetry_multiplicity
 _atom_site_fract_x
 _atom_site_fract_y
 _atom_site_fract_z
 _atom_site_occupancy
 _atom_site_pbe_bader_charge
 _atom_site_pbe_bader_spin_density
 _atom_site_pbe_cm5_charge
 _atom_site_pbe_ddec_charge
 _atom_site_pbe_ddec_spin_density
 _atom_site_pbe_ddec_sum_bond_order
 _atom_site_pbe_magmom
Al  Al0  1  0.10721087  0.49999035  0.49999065  1  2.519192  0  0.46816  1.66741  0  2.452414  0
H  H1  1  0.28793735  0.79058924  0.75349655  1  0.121351  0  0.123928  0.139481  0  0.957115  0
H  H2  1  0.21415322  0.00212288  0.87426100  1  0.101012  0  0.109584  0.123659  0  1.01331  0
H  H3  1  0.74611776  0.05292922  0.62850026  1  0.105642  0  0.111943  0.12115  0  1.029277  0
H  H4  1  0.74610576  0.07555511  0.94704571  1  0.116017  0  0.111915  0.121226  0  1.029107  0
H  H5  1  0.28797621  0.46290841  0.20939252  1  0.132144  0  0.123901  0.139414  0  0.957322  0
H  H6  1  0.21418437  0.37214225  0.99786625  1  0.100907  0  0.109554  0.12347  0  1.013459  0
H  H7  1  0.74611509  0.37148089  0.92442465  1  0.116562  0  0.111904  0.121126  0  1.029284  0
H  H8  1  0.28796213  0.24649101  0.53708856  1  0.122823  0  0.123944  0.139421  0  0.957309  0
H  H9  1  0.21416489  0.12573014  0.62785188  1  0.102927  0  0.109563  0.123528  0  1.013387  0
H  H10  1  0.37980343  0.86919166  0.41293019  1  0.690495  0  0.311816  0.389838  0  0.956816  0
H  H11  1  0.37980268  0.04373157  0.13078481  1  0.688731  0  0.311737  0.389677  0  0.957061  0
H  H12  1  0.37982136  0.58704630  0.95626627  1  0.687766  0  0.311776  0.389743  0  0.956956  0
C  C13  1  0.60120087  0.38484769  0.32975744  1  1.676343  0  0.282081  0.678684  0  4.084073  0
C  C14  1  0.60120546  0.44491895  0.61514990  1  1.637631  0  0.281917  0.67832  0  4.084524  0
C  C15  1  0.60121141  0.67021855  0.55506332  1  1.642093  0  0.281999  0.678227  0  4.085057  0
C  C16  1  0.38729484  0.84825938  0.72568788  1  -0.006588  0  -0.068047  -0.064621  0  3.910923  0
C  C17  1  0.34459041  0.96773521  0.79356984  1  -0.094218  0  -0.081884  -0.149563  0  3.943702  0
C  C18  1  0.47811981  0.04421538  0.76132413  1  0.324385  0  0.094494  0.183149  0  4.016642  0
C  C19  1  0.64237583  0.99679336  0.65692216  1  0.046217  0  -0.090194  -0.185128  0  3.992951  0
C  C20  1  0.67082151  0.87647678  0.58670140  1  -0.151792  0  -0.01651  -0.122931  0  4.013976  0
C  C21  1  0.55382203  0.80000022  0.62091630  1  0.068617  0  0.001099  -0.033348  0  3.929822  0
C  C22  1  0.64234874  0.16011369  0.00317579  1  0.097566  0  -0.089954  -0.18496  0  3.992694  0
C  C23  1  0.67080062  0.21021922  0.12349403  1  -0.232481  0  -0.016713  -0.123577  0  4.014277  0
C  C24  1  0.55380586  0.32091117  0.19998204  1  0.012988  0  0.001159  -0.033131  0  3.929522  0
C  C25  1  0.38731877  0.37743395  0.15173210  1  -0.017217  0  -0.068007  -0.064677  0  3.91138  0
C  C26  1  0.34458983  0.32584172  0.03225984  1  -0.101847  0  -0.081797  -0.149177  0  3.943757  0
C  C27  1  0.47810300  0.21711478  0.95577662  1  0.322814  0  0.094313  0.183033  0  4.016953  0
C  C28  1  0.64237122  0.34305889  0.83987219  1  -0.007421  0  -0.090068  -0.184951  0  3.992855  0
C  C29  1  0.67081182  0.41327481  0.78977119  1  -0.112555  0  -0.016555  -0.123123  0  4.014259  0
C  C30  1  0.55381020  0.37906924  0.67908463  1  -0.008891  0  0.001163  -0.033284  0  3.929678  0
C  C31  1  0.38730459  0.27429996  0.62256163  1  -0.017568  0  -0.068059  -0.064619  0  3.911345  0
C  C32  1  0.34459833  0.20641777  0.67415374  1  -0.043884  0  -0.081824  -0.149263  0  3.943788  0
C  C33  1  0.47812616  0.23866243  0.78287686  1  0.339828  0  0.094375  0.182934  0  4.016896  0
S  S34  1  0.84383740  0.82652476  0.44830986  1  3.123397  0  0.56219  1.194142  0  5.955405  0
S  S35  1  0.84385404  0.12177689  0.17345680  1  3.123513  0  0.562292  1.194232  0  5.954834  0
S  S36  1  0.84383880  0.55167150  0.87822249  1  3.120383  0  0.56212  1.194119  0  5.955209  0
N  N37  1  0.45059491  0.16666466  0.83332595  1  -1.193594  0  -0.247172  -0.14579  0  3.62611  0
O  O38  1  0.85161281  0.63558515  0.57699451  1  -1.240442  0  -0.222949  -0.587241  0  2.364769  0
O  O39  1  0.85162063  0.44139626  0.36439827  1  -1.242327  0  -0.223057  -0.587512  0  2.364813  0
O  O40  1  0.85161166  0.42299127  0.55859077  1  -1.243061  0  -0.223118  -0.587462  0  2.364827  0
O  O41  1  0.38219297  0.60892327  0.49002366  1  -1.256029  0  -0.237037  -0.602887  0  2.379892  0
O  O42  1  0.38219640  0.50996669  0.61889974  1  -1.24674  0  -0.236942  -0.602888  0  2.379617  0
O  O43  1  0.38221810  0.38108228  0.39105365  1  -1.24781  0  -0.237193  -0.603196  0  2.379445  0
O  O44  1  0.09299252  0.91019277  0.46870038  1  -1.318669  0  -0.319022  -0.567469  0  2.27266  0
O  O45  1  0.92612310  0.70590254  0.39466030  1  -1.287203  0  -0.289575  -0.505856  0  2.174496  0
O  O46  1  0.60143480  0.84714920  0.37570493  1  -1.289762  0  -0.34541  -0.517727  0  2.215839  0
O  O47  1  0.09299499  0.05848053  0.08977074  1  -1.318407  0  -0.319076  -0.567364  0  2.272331  0
O  O48  1  0.92613587  0.18875379  0.29406937  1  -1.286463  0  -0.289469  -0.505646  0  2.174825  0
O  O49  1  0.60143057  0.02854629  0.15283535  1  -1.287523  0  -0.345416  -0.517748  0  2.215554  0
O  O50  1  0.09300479  0.53128608  0.94149596  1  -1.319898  0  -0.318992  -0.567386  0  2.272915  0
O  O51  1  0.92612836  0.60532524  0.81124617  1  -1.279562  0  -0.289528  -0.505786  0  2.17427  0
O  O52  1  0.60143147  0.62428319  0.97145347  1  -1.289389  0  -0.345352  -0.517672  0  2.215644  0
