# generated using pymatgen
data_CdH18C10(N2O3)2
_symmetry_space_group_name_H-M   'P 1'
_cell_length_a   5.02140428
_cell_length_b   9.89965512
_cell_length_c   13.61191258
_cell_angle_alpha   100.02581691
_cell_angle_beta   89.99963113
_cell_angle_gamma   89.99978427
_symmetry_Int_Tables_number   1
_chemical_formula_structural   CdH18C10(N2O3)2
_chemical_formula_sum   'Cd2 H36 C20 N8 O12'
_cell_volume   666.31764277
_cell_formula_units_Z   2
loop_
 _symmetry_equiv_pos_site_id
 _symmetry_equiv_pos_as_xyz
  1  'x, y, z'
loop_
 _atom_site_type_symbol
 _atom_site_label
 _atom_site_symmetry_multiplicity
 _atom_site_fract_x
 _atom_site_fract_y
 _atom_site_fract_z
 _atom_site_occupancy
 _atom_site_hle17_bader_spin_density
 _atom_site_hle17_ddec_charge
 _atom_site_hle17_ddec_spin_density
 _atom_site_hle17_ddec_sum_bond_order
 _atom_site_hle17_magmom
 _atom_site_hse06_10hf_bader_spin_density
 _atom_site_hse06_10hf_ddec_charge
 _atom_site_hse06_10hf_ddec_spin_density
 _atom_site_hse06_10hf_ddec_sum_bond_order
 _atom_site_hse06_10hf_magmom
 _atom_site_hse06_bader_spin_density
 _atom_site_hse06_ddec_charge
 _atom_site_hse06_ddec_spin_density
 _atom_site_hse06_ddec_sum_bond_order
 _atom_site_hse06_magmom
 _atom_site_pbe_bader_spin_density
 _atom_site_pbe_cm5_charge
 _atom_site_pbe_ddec_charge
 _atom_site_pbe_ddec_spin_density
 _atom_site_pbe_ddec_sum_bond_order
 _atom_site_pbe_magmom
Cd  Cd0  1  0.89544771  0.24648430  0.00475768  1  0  1.15173  0  1.593467  0  0  0.965188  0  2.032115  0  0  1.020535  0  1.981447  0  0  0.766793  0.925768  0  2.066727  0
Cd  Cd1  1  0.39544344  0.75351795  0.99524042  1  0  1.151756  0  1.5936  0  0  0.96516  0  2.032281  0  0  1.020501  0  1.981611  0  0  0.766798  0.925739  0  2.066896  0
H  H2  1  0.07238564  0.76554554  0.16848913  1  0  0.29477  0  0.906823  0  0  0.283596  0  0.966615  0  0  0.290293  0  0.961508  0  0  0.290393  0.278909  0  0.970154  0
H  H3  1  0.57240935  0.23446159  0.83151183  1  0  0.294705  0  0.906887  0  0  0.283555  0  0.966664  0  0  0.290251  0  0.961557  0  0  0.290382  0.278871  0  0.970196  0
H  H4  1  0.01106541  0.62575658  0.08790432  1  0  0.307304  0  0.927533  0  0  0.292397  0  0.989894  0  0  0.299023  0  0.986041  0  0  0.288893  0.28769  0  0.992612  0
H  H5  1  0.51107665  0.37424763  0.91209641  1  0  0.307288  0  0.927507  0  0  0.292391  0  0.989852  0  0  0.299015  0  0.986  0  0  0.288915  0.287686  0  0.992566  0
H  H6  1  0.28040630  0.11931687  0.09706666  1  0  0.310107  0  0.928089  0  0  0.294202  0  0.990633  0  0  0.300933  0  0.986551  0  0  0.288673  0.28941  0  0.993556  0
H  H7  1  0.78039981  0.88068257  0.90293430  1  0  0.31014  0  0.928027  0  0  0.294238  0  0.990561  0  0  0.300968  0  0.986477  0  0  0.288708  0.289441  0  0.993491  0
H  H8  1  0.20633014  0.25474777  0.18093503  1  0  0.293028  0  0.917704  0  0  0.282008  0  0.979137  0  0  0.287619  0  0.9759  0  0  0.293227  0.277917  0  0.981605  0
H  H9  1  0.70635207  0.74525083  0.81906526  1  0  0.29314  0  0.917616  0  0  0.282063  0  0.979111  0  0  0.287677  0  0.975868  0  0  0.293264  0.277974  0  0.981576  0
H  H10  1  0.93177345  0.24537180  0.31733263  1  0  0.080958  0  0.938523  0  0  0.098829  0  0.998157  0  0  0.100068  0  0.9986  0  0  0.093749  0.097954  0  0.997848  0
H  H11  1  0.43176669  0.75462214  0.68266800  1  0  0.080956  0  0.938526  0  0  0.098862  0  0.99813  0  0  0.1001  0  0.998567  0  0  0.093761  0.097983  0  0.997815  0
H  H12  1  0.66330147  0.24729765  0.23411824  1  0  0.088573  0  0.960149  0  0  0.101041  0  1.029723  0  0  0.10328  0  1.028249  0  0  0.094621  0.099257  0  1.031026  0
H  H13  1  0.16329924  0.75270105  0.76588364  1  0  0.088525  0  0.960178  0  0  0.101054  0  1.029712  0  0  0.103293  0  1.028233  0  0  0.094623  0.099259  0  1.031021  0
H  H14  1  0.11456274  0.13175595  0.48964222  1  0  0.332373  0  0.937419  0  0  0.310995  0  1.003683  0  0  0.320302  0  0.995806  0  0  0.292529  0.304526  0  1.009155  0
H  H15  1  0.61456324  0.86824082  0.51035953  1  0  0.332372  0  0.937445  0  0  0.310991  0  1.003716  0  0  0.320301  0  0.995838  0  0  0.292527  0.304519  0  1.009196  0
H  H16  1  0.27835280  0.98300986  0.42651427  1  0  0.344856  0  0.928121  0  0  0.322864  0  0.997671  0  0  0.331374  0  0.990251  0  0  0.297801  0.316084  0  1.003768  0
H  H17  1  0.77834091  0.01699164  0.57348475  1  0  0.34478  0  0.928252  0  0  0.322808  0  0.997773  0  0  0.331311  0  0.990353  0  0  0.297767  0.316027  0  1.00388  0
H  H18  1  0.53552301  0.00601725  0.27996852  1  0  0.102443  0  0.949569  0  0  0.117388  0  1.010213  0  0  0.119833  0  1.009087  0  0  0.100656  0.115644  0  1.010993  0
H  H19  1  0.03553165  0.99398587  0.72003274  1  0  0.102451  0  0.949561  0  0  0.117411  0  1.010192  0  0  0.119856  0  1.009068  0  0  0.100683  0.115672  0  1.010963  0
H  H20  1  0.76576239  0.04338422  0.37672558  1  0  0.103944  0  0.939112  0  0  0.119811  0  0.999749  0  0  0.122348  0  0.998895  0  0  0.102502  0.118138  0  1.000135  0
H  H21  1  0.26576306  0.95661115  0.62327342  1  0  0.10393  0  0.939142  0  0  0.11981  0  0.999768  0  0  0.122348  0  0.998914  0  0  0.102481  0.118131  0  1.000157  0
H  H22  1  0.32655200  0.44481414  0.26454339  1  0  0.078965  0  0.969239  0  0  0.091393  0  1.040131  0  0  0.093688  0  1.038339  0  0  0.094114  0.089709  0  1.041503  0
H  H23  1  0.82654701  0.55518827  0.73544975  1  0  0.078919  0  0.969289  0  0  0.091343  0  1.040189  0  0  0.093637  0  1.038409  0  0  0.094088  0.089657  0  1.041553  0
H  H24  1  0.02287246  0.46913921  0.20345883  1  0  0.087436  0  0.950927  0  0  0.105249  0  1.011885  0  0  0.10656  0  1.012147  0  0  0.096768  0.104241  0  1.011807  0
H  H25  1  0.52287654  0.53086908  0.79653946  1  0  0.087432  0  0.950961  0  0  0.105223  0  1.01197  0  0  0.106539  0  1.012231  0  0  0.096752  0.104212  0  1.011881  0
H  H26  1  0.95993507  0.69563399  0.32441105  1  0  0.102384  0  0.920209  0  0  0.117204  0  0.977789  0  0  0.11992  0  0.975982  0  0  0.099815  0.115236  0  0.979092  0
H  H27  1  0.45993394  0.30436501  0.67559457  1  0  0.102343  0  0.920228  0  0  0.117152  0  0.977807  0  0  0.119869  0  0.975999  0  0  0.099789  0.115183  0  0.979116  0
H  H28  1  0.96294228  0.54751747  0.38086875  1  0  0.104223  0  0.941046  0  0  0.12022  0  0.999419  0  0  0.12255  0  0.998982  0  0  0.102341  0.118673  0  0.999604  0
H  H29  1  0.46294098  0.45247537  0.61913167  1  0  0.104214  0  0.941182  0  0  0.120215  0  0.999532  0  0  0.122538  0  0.999105  0  0  0.102341  0.118698  0  0.999685  0
H  H30  1  0.61652193  0.62865059  0.49572221  1  0  0.32948  0  0.926598  0  0  0.308171  0  0.995163  0  0  0.317231  0  0.987317  0  0  0.296509  0.301903  0  1.00053  0
H  H31  1  0.11651731  0.37133593  0.50427381  1  0  0.329469  0  0.926584  0  0  0.308187  0  0.995115  0  0  0.31724  0  0.987275  0  0  0.29651  0.301911  0  1.000501  0
H  H32  1  0.44699480  0.48420771  0.42958081  1  0  0.349092  0  0.918869  0  0  0.327622  0  0.986069  0  0  0.335697  0  0.979446  0  0  0.302748  0.321033  0  0.991868  0
H  H33  1  0.94700098  0.51578210  0.57041779  1  0  0.349094  0  0.91891  0  0  0.327597  0  0.986152  0  0  0.335672  0  0.979527  0  0  0.30268  0.321011  0  0.991945  0
H  H34  1  0.47140136  0.68076668  0.22337295  1  0  0.065489  0  0.902986  0  0  0.083159  0  0.955109  0  0  0.084032  0  0.955278  0  0  0.114111  0.082438  0  0.955128  0
H  H35  1  0.97141342  0.31924563  0.77662773  1  0  0.06549  0  0.903004  0  0  0.083163  0  0.955154  0  0  0.084038  0  0.955323  0  0  0.114119  0.082444  0  0.955169  0
H  H36  1  0.07452698  0.01520141  0.21783262  1  0  0.046149  0  0.921471  0  0  0.059751  0  0.979692  0  0  0.06098  0  0.978957  0  0  0.101916  0.058874  0  0.980278  0
H  H37  1  0.57452578  0.98479649  0.78216862  1  0  0.046187  0  0.92151  0  0  0.059761  0  0.979719  0  0  0.061001  0  0.978995  0  0  0.101959  0.058882  0  0.9803  0
C  C38  1  0.41922919  0.16749341  0.39645256  1  0  0.6728  0  3.779512  0  0  0.62726  0  4.073512  0  0  0.656341  0  4.072846  0  0  0.242705  0.607483  0  4.073561  0
C  C39  1  0.91923431  0.83251184  0.60354955  1  0  0.672674  0  3.779639  0  0  0.627239  0  4.07352  0  0  0.656318  0  4.072855  0  0  0.242649  0.607447  0  4.073581  0
C  C40  1  0.95373920  0.08905051  0.18502786  1  0  0.073054  0  3.608811  0  0  0.056573  0  3.848731  0  0  0.056224  0  3.862625  0  0  -0.002793  0.056541  0  3.839541  0
C  C41  1  0.45374682  0.91094543  0.81497150  1  0  0.072936  0  3.60884  0  0  0.056646  0  3.848685  0  0  0.056225  0  3.862686  0  0  -0.002798  0.056615  0  3.839484  0
C  C42  1  0.75293578  0.00621545  0.11219922  1  0  0.641571  0  3.867127  0  0  0.591857  0  4.167257  0  0  0.625113  0  4.160955  0  0  0.203333  0.569428  0  4.170677  0
C  C43  1  0.25293749  0.99377791  0.88779956  1  0  0.641978  0  3.866339  0  0  0.591932  0  4.166942  0  0  0.625198  0  4.160645  0  0  0.203413  0.569509  0  4.170355  0
C  C44  1  0.79297233  0.17897330  0.26831026  1  0  -0.131723  0  3.650589  0  0  -0.177037  0  3.905341  0  0  -0.178016  0  3.917951  0  0  -0.166333  -0.17613  0  3.89674  0
C  C45  1  0.29297216  0.82102509  0.73169200  1  0  -0.13165  0  3.650501  0  0  -0.177083  0  3.905316  0  0  -0.178032  0  3.917919  0  0  -0.166373  -0.176167  0  3.8967  0
C  C46  1  0.63200920  0.09219260  0.32919823  1  0  -0.263777  0  3.679525  0  0  -0.301771  0  3.927611  0  0  -0.307634  0  3.937008  0  0  -0.165627  -0.297589  0  3.920854  0
C  C47  1  0.13200942  0.90780618  0.67080446  1  0  -0.263729  0  3.679749  0  0  -0.301795  0  3.927883  0  0  -0.307665  0  3.937279  0  0  -0.165613  -0.297608  0  3.921108  0
C  C48  1  0.34003244  0.60546637  0.17725721  1  0  0.072508  0  3.60195  0  0  0.055982  0  3.842167  0  0  0.055589  0  3.856672  0  0  -0.002696  0.056224  0  3.832116  0
C  C49  1  0.84004110  0.39454422  0.82274282  1  0  0.072607  0  3.601857  0  0  0.055978  0  3.842196  0  0  0.05559  0  3.856702  0  0  -0.002717  0.056214  0  3.832148  0
C  C50  1  0.19118536  0.52293666  0.24477767  1  0  -0.145862  0  3.670454  0  0  -0.193162  0  3.926843  0  0  -0.19408  0  3.939207  0  0  -0.170257  -0.192257  0  3.918253  0
C  C51  1  0.69118660  0.47706711  0.75521965  1  0  -0.145874  0  3.670484  0  0  -0.193182  0  3.926904  0  0  -0.194117  0  3.939285  0  0  -0.170259  -0.192262  0  3.918308  0
C  C52  1  0.08617769  0.61155497  0.34061137  1  0  -0.254451  0  3.664832  0  0  -0.292246  0  3.91676  0  0  -0.297642  0  3.92519  0  0  -0.163685  -0.288379  0  3.910634  0
C  C53  1  0.58617533  0.38843879  0.65938932  1  0  -0.254397  0  3.665045  0  0  -0.292163  0  3.916893  0  0  -0.297552  0  3.925337  0  0  -0.163665  -0.288328  0  3.910776  0
C  C54  1  0.53774106  0.51744846  0.10514315  1  0  0.649247  0  3.840508  0  0  0.593164  0  4.149142  0  0  0.627365  0  4.141936  0  0  0.208026  0.570091  0  4.153135  0
C  C55  1  0.03774265  0.48256492  0.89485354  1  0  0.648753  0  3.840851  0  0  0.592821  0  4.149288  0  0  0.627019  0  4.142085  0  0  0.207887  0.569737  0  4.153288  0
C  C56  1  0.30905872  0.67426023  0.40847496  1  0  0.671416  0  3.783603  0  0  0.626217  0  4.077808  0  0  0.655144  0  4.077163  0  0  0.243617  0.606606  0  4.077794  0
C  C57  1  0.80906203  0.32573094  0.59152488  1  0  0.671272  0  3.784027  0  0  0.626121  0  4.078136  0  0  0.655038  0  4.077495  0  0  0.243548  0.606501  0  4.078143  0
N  N58  1  0.16277940  0.68566309  0.12290391  1  0  -0.656165  0  3.106961  0  0  -0.603719  0  3.353899  0  0  -0.624697  0  3.352936  0  0  -0.63131  -0.58896  0  3.354168  0
N  N59  1  0.66279172  0.31434280  0.87709888  1  0  -0.655971  0  3.106748  0  0  -0.603595  0  3.353795  0  0  -0.624578  0  3.352844  0  0  -0.631288  -0.588834  0  3.354045  0
N  N60  1  0.12431796  0.17482305  0.13288796  1  0  -0.652565  0  3.091847  0  0  -0.599028  0  3.338228  0  0  -0.619827  0  3.337652  0  0  -0.629538  -0.584545  0  3.338706  0
N  N61  1  0.62432249  0.82516959  0.86711324  1  0  -0.652722  0  3.091932  0  0  -0.599149  0  3.338338  0  0  -0.619928  0  3.337782  0  0  -0.629608  -0.58467  0  3.338821  0
N  N62  1  0.25950487  0.08771911  0.44033986  1  0  -0.702168  0  3.102725  0  0  -0.666297  0  3.346037  0  0  -0.689906  0  3.340131  0  0  -0.579576  -0.649547  0  3.350335  0
N  N63  1  0.75950217  0.91228346  0.55966007  1  0  -0.702054  0  3.10281  0  0  -0.666241  0  3.346088  0  0  -0.68984  0  3.340181  0  0  -0.579549  -0.649515  0  3.350434  0
N  N64  1  0.46484182  0.58852705  0.44861133  1  0  -0.694928  0  3.092993  0  0  -0.657554  0  3.333529  0  0  -0.680952  0  3.328044  0  0  -0.574672  -0.641059  0  3.337734  0
N  N65  1  0.96483720  0.41146065  0.55138916  1  0  -0.694809  0  3.093138  0  0  -0.657459  0  3.333617  0  0  -0.680847  0  3.328149  0  0  -0.57452  -0.640966  0  3.337829  0
O  O66  1  0.69646396  0.88613486  0.12568637  1  0  -0.641343  0  1.953459  0  0  -0.58556  0  2.201379  0  0  -0.61207  0  2.190584  0  0  -0.326787  -0.567171  0  2.208064  0
O  O67  1  0.19648074  0.11386479  0.87431481  1  0  -0.641595  0  1.953081  0  0  -0.585687  0  2.201134  0  0  -0.612195  0  2.190329  0  0  -0.326899  -0.567301  0  2.207819  0
O  O68  1  0.64130012  0.57273278  0.03633113  1  0  -0.65264  0  2.066701  0  0  -0.579651  0  2.316649  0  0  -0.608785  0  2.306886  0  0  -0.327969  -0.559322  0  2.322499  0
O  O69  1  0.14130492  0.42727932  0.96366663  1  0  -0.65253  0  2.066541  0  0  -0.579606  0  2.316411  0  0  -0.608736  0  2.30665  0  0  -0.327966  -0.559306  0  2.322319  0
O  O70  1  0.39084408  0.29595239  0.41005673  1  0  -0.634793  0  1.949187  0  0  -0.570755  0  2.166154  0  0  -0.593796  0  2.15908  0  0  -0.313856  -0.554782  0  2.171145  0
O  O71  1  0.89085044  0.70404986  0.58994359  1  0  -0.634814  0  1.949096  0  0  -0.570772  0  2.165999  0  0  -0.593805  0  2.158921  0  0  -0.313829  -0.554793  0  2.170986  0
O  O72  1  0.64070455  0.06660092  0.04772960  1  0  -0.657885  0  2.052791  0  0  -0.583139  0  2.295728  0  0  -0.61217  0  2.28597  0  0  -0.327263  -0.562845  0  2.301616  0
O  O73  1  0.14070760  0.93339887  0.95227247  1  0  -0.657971  0  2.052554  0  0  -0.583131  0  2.295681  0  0  -0.612141  0  2.285904  0  0  -0.327287  -0.562846  0  2.301575  0
O  O74  1  0.60178917  0.40054596  0.12318388  1  0  -0.638125  0  1.983696  0  0  -0.574049  0  2.2325  0  0  -0.60105  0  2.222035  0  0  -0.322698  -0.555181  0  2.238932  0
O  O75  1  0.10176428  0.59947342  0.87681710  1  0  -0.637879  0  1.983982  0  0  -0.573754  0  2.232563  0  0  -0.60077  0  2.222153  0  0  -0.322546  -0.554879  0  2.238994  0
O  O76  1  0.34872825  0.80189135  0.42536255  1  0  -0.62749  0  1.96418  0  0  -0.568169  0  2.182502  0  0  -0.591414  0  2.175416  0  0  -0.310764  -0.551959  0  2.187151  0
O  O77  1  0.84871891  0.19810075  0.57463511  1  0  -0.627398  0  1.96437  0  0  -0.56811  0  2.182675  0  0  -0.591335  0  2.17558  0  0  -0.310743  -0.551898  0  2.187325  0
