# generated using pymatgen
data_HgH8C5(IN)2
_symmetry_space_group_name_H-M   'P 1'
_cell_length_a   8.45704194
_cell_length_b   15.76401993
_cell_length_c   15.71760691
_cell_angle_alpha   89.99997616
_cell_angle_beta   99.52298761
_cell_angle_gamma   89.99992237
_symmetry_Int_Tables_number   1
_chemical_formula_structural   HgH8C5(IN)2
_chemical_formula_sum   'Hg8 H64 C40 I16 N16'
_cell_volume   2066.54744961
_cell_formula_units_Z   8
loop_
 _symmetry_equiv_pos_site_id
 _symmetry_equiv_pos_as_xyz
  1  'x, y, z'
loop_
 _atom_site_type_symbol
 _atom_site_label
 _atom_site_symmetry_multiplicity
 _atom_site_fract_x
 _atom_site_fract_y
 _atom_site_fract_z
 _atom_site_occupancy
 _atom_site_hle17_bader_spin_density
 _atom_site_hle17_ddec_charge
 _atom_site_hle17_ddec_spin_density
 _atom_site_hle17_ddec_sum_bond_order
 _atom_site_hle17_magmom
 _atom_site_hse06_10hf_bader_spin_density
 _atom_site_hse06_10hf_ddec_charge
 _atom_site_hse06_10hf_ddec_spin_density
 _atom_site_hse06_10hf_ddec_sum_bond_order
 _atom_site_hse06_10hf_magmom
 _atom_site_hse06_bader_spin_density
 _atom_site_hse06_ddec_charge
 _atom_site_hse06_ddec_spin_density
 _atom_site_hse06_ddec_sum_bond_order
 _atom_site_hse06_magmom
 _atom_site_pbe_bader_spin_density
 _atom_site_pbe_cm5_charge
 _atom_site_pbe_ddec_charge
 _atom_site_pbe_ddec_spin_density
 _atom_site_pbe_ddec_sum_bond_order
 _atom_site_pbe_magmom
Hg  Hg0  1  0.89846247  0.29707100  0.55274049  1  0  0.473769  0  2.201352  0  0  0.346419  0  2.665541  0  0  0.379189  0  2.637273  0  0  0.43843  0.324193  0  2.68441  0
Hg  Hg1  1  0.10153063  0.79707312  0.94725893  1  0  0.473752  0  2.20142  0  0  0.346417  0  2.665585  0  0  0.379189  0  2.637317  0  0  0.43844  0.324187  0  2.684437  0
Hg  Hg2  1  0.10153353  0.70292781  0.44725877  1  0  0.473725  0  2.201422  0  0  0.346385  0  2.6656  0  0  0.379156  0  2.63733  0  0  0.438411  0.324158  0  2.684453  0
Hg  Hg3  1  0.89846897  0.20292760  0.05274192  1  0  0.473772  0  2.20138  0  0  0.346422  0  2.665568  0  0  0.379192  0  2.637302  0  0  0.438449  0.324194  0  2.68443  0
Hg  Hg4  1  0.50153257  0.25844770  0.78218112  1  0  0.460718  0  2.299272  0  0  0.362379  0  2.80981  0  0  0.401891  0  2.786449  0  0  0.263731  0.336343  0  2.824754  0
Hg  Hg5  1  0.49846662  0.75844772  0.71781887  1  0  0.460707  0  2.299297  0  0  0.362364  0  2.80984  0  0  0.401878  0  2.786473  0  0  0.263731  0.336334  0  2.824775  0
Hg  Hg6  1  0.49846702  0.74155175  0.21781846  1  0  0.460722  0  2.299299  0  0  0.362377  0  2.80984  0  0  0.401891  0  2.786475  0  0  0.263737  0.336346  0  2.82478  0
Hg  Hg7  1  0.50153417  0.24155173  0.28218082  1  0  0.460732  0  2.29929  0  0  0.362389  0  2.809839  0  0  0.401901  0  2.786475  0  0  0.263735  0.336351  0  2.824787  0
H  H8  1  0.08707866  0.27393827  0.39092159  1  0  0.095256  0  0.966696  0  0  0.111772  0  1.040373  0  0  0.112317  0  1.040633  0  0  0.087214  0.111213  0  1.040373  0
H  H9  1  0.91291765  0.77393866  0.10907851  1  0  0.095298  0  0.966654  0  0  0.111797  0  1.04032  0  0  0.112343  0  1.040581  0  0  0.08721  0.111238  0  1.040322  0
H  H10  1  0.91291974  0.72606245  0.60907979  1  0  0.095287  0  0.966669  0  0  0.111796  0  1.040343  0  0  0.112342  0  1.040604  0  0  0.087216  0.111237  0  1.040344  0
H  H11  1  0.08708314  0.22606142  0.89092117  1  0  0.095302  0  0.966666  0  0  0.111804  0  1.040334  0  0  0.11235  0  1.040596  0  0  0.087217  0.111245  0  1.040335  0
H  H12  1  0.20296614  0.18185765  0.37803384  1  0  0.101822  0  0.998449  0  0  0.116992  0  1.071033  0  0  0.118914  0  1.069833  0  0  0.084032  0.115501  0  1.071977  0
H  H13  1  0.79703521  0.68185813  0.12196866  1  0  0.101819  0  0.998414  0  0  0.116975  0  1.071001  0  0  0.118896  0  1.069805  0  0  0.084001  0.115486  0  1.071945  0
H  H14  1  0.79703465  0.81814306  0.62196776  1  0  0.101827  0  0.998386  0  0  0.117  0  1.070953  0  0  0.118919  0  1.069762  0  0  0.084022  0.115501  0  1.071901  0
H  H15  1  0.20296918  0.31814196  0.87803261  1  0  0.101833  0  0.998447  0  0  0.11699  0  1.071036  0  0  0.118912  0  1.069836  0  0  0.084021  0.115488  0  1.071985  0
H  H16  1  0.21451059  0.22763212  0.48275374  1  0  0.097383  0  0.985885  0  0  0.113077  0  1.057888  0  0  0.114463  0  1.057064  0  0  0.080938  0.111944  0  1.058595  0
H  H17  1  0.78548345  0.72763264  0.01724872  1  0  0.097408  0  0.985918  0  0  0.113126  0  1.057861  0  0  0.114513  0  1.057036  0  0  0.080944  0.11199  0  1.058566  0
H  H18  1  0.78549020  0.77236860  0.51724849  1  0  0.097388  0  0.98592  0  0  0.113082  0  1.057901  0  0  0.114467  0  1.057075  0  0  0.080942  0.111949  0  1.058605  0
H  H19  1  0.21451615  0.27236617  0.98275213  1  0  0.09739  0  0.985919  0  0  0.11311  0  1.057869  0  0  0.114496  0  1.057045  0  0  0.080945  0.111976  0  1.058574  0
H  H20  1  0.04099040  0.05393730  0.35633876  1  0  0.123636  0  0.944369  0  0  0.132346  0  1.006416  0  0  0.13569  0  1.004263  0  0  0.121009  0.129904  0  1.008094  0
H  H21  1  0.95900892  0.55393828  0.14366107  1  0  0.123625  0  0.944476  0  0  0.132352  0  1.006492  0  0  0.135689  0  1.004345  0  0  0.121027  0.129908  0  1.008174  0
H  H22  1  0.95901160  0.94606215  0.64366103  1  0  0.123563  0  0.9443  0  0  0.132289  0  1.006352  0  0  0.135622  0  1.00421  0  0  0.120973  0.129844  0  1.008035  0
H  H23  1  0.04098948  0.44606117  0.85633713  1  0  0.123621  0  0.944362  0  0  0.132351  0  1.00639  0  0  0.135682  0  1.00425  0  0  0.121009  0.129908  0  1.00807  0
H  H24  1  0.76618225  0.99497301  0.41516218  1  0  0.120004  0  0.977295  0  0  0.127311  0  1.04344  0  0  0.13095  0  1.040621  0  0  0.108519  0.124601  0  1.045625  0
H  H25  1  0.23381585  0.49497390  0.08483734  1  0  0.119969  0  0.977347  0  0  0.127265  0  1.043505  0  0  0.130904  0  1.04069  0  0  0.108507  0.124556  0  1.04569  0
H  H26  1  0.23381854  0.00502771  0.58483814  1  0  0.119995  0  0.977288  0  0  0.127306  0  1.043431  0  0  0.130944  0  1.040616  0  0  0.10852  0.124597  0  1.045621  0
H  H27  1  0.76618135  0.50502428  0.91516011  1  0  0.119948  0  0.977381  0  0  0.127243  0  1.043545  0  0  0.130877  0  1.040724  0  0  0.108497  0.124533  0  1.045731  0
H  H28  1  0.69286922  0.07955358  0.59278347  1  0  0.104481  0  0.959564  0  0  0.120754  0  1.029014  0  0  0.122293  0  1.027609  0  0  0.087309  0.119524  0  1.030135  0
H  H29  1  0.30712927  0.57955366  0.90721589  1  0  0.104489  0  0.959585  0  0  0.120769  0  1.029016  0  0  0.122307  0  1.027611  0  0  0.087311  0.11954  0  1.030141  0
H  H30  1  0.30713157  0.92044650  0.40721748  1  0  0.10449  0  0.959561  0  0  0.120749  0  1.029016  0  0  0.122287  0  1.027613  0  0  0.087311  0.119522  0  1.030143  0
H  H31  1  0.69287153  0.42044388  0.09278443  1  0  0.10451  0  0.959581  0  0  0.120776  0  1.029035  0  0  0.122314  0  1.027631  0  0  0.087312  0.119546  0  1.030153  0
H  H32  1  0.56321545  0.06946231  0.49024644  1  0  0.105294  0  0.958744  0  0  0.124407  0  1.023487  0  0  0.126109  0  1.02215  0  0  0.095181  0.123093  0  1.024516  0
H  H33  1  0.43678023  0.56946182  0.00975306  1  0  0.105281  0  0.958793  0  0  0.12439  0  1.023534  0  0  0.126091  0  1.022198  0  0  0.095165  0.123078  0  1.024565  0
H  H34  1  0.43678415  0.93053777  0.50975377  1  0  0.105281  0  0.958761  0  0  0.124387  0  1.023501  0  0  0.126089  0  1.022165  0  0  0.095177  0.123075  0  1.02453  0
H  H35  1  0.56321697  0.43053573  0.99024695  1  0  0.105288  0  0.958826  0  0  0.124412  0  1.023549  0  0  0.126114  0  1.022213  0  0  0.095175  0.123099  0  1.024577  0
H  H36  1  0.60602251  0.17151557  0.53688072  1  0  0.098165  0  0.986202  0  0  0.112848  0  1.060575  0  0  0.113857  0  1.06058  0  0  0.084868  0.11196  0  1.060727  0
H  H37  1  0.39397813  0.67151493  0.96311816  1  0  0.098233  0  0.986106  0  0  0.112903  0  1.060499  0  0  0.113919  0  1.060487  0  0  0.084895  0.112009  0  1.060657  0
H  H38  1  0.39397949  0.82848641  0.46311908  1  0  0.098199  0  0.986165  0  0  0.11287  0  1.060549  0  0  0.113886  0  1.060537  0  0  0.084875  0.111978  0  1.060707  0
H  H39  1  0.60602506  0.32848325  0.03688110  1  0  0.098152  0  0.986137  0  0  0.112871  0  1.060502  0  0  0.113887  0  1.06049  0  0  0.084888  0.111979  0  1.060652  0
H  H40  1  0.27881160  0.36914547  0.59813871  1  0  0.098985  0  0.973646  0  0  0.112374  0  1.050071  0  0  0.113283  0  1.049832  0  0  0.086729  0.111534  0  1.05043  0
H  H41  1  0.72118250  0.86914906  0.90185950  1  0  0.099039  0  0.973611  0  0  0.112425  0  1.050036  0  0  0.113334  0  1.049797  0  0  0.086736  0.111585  0  1.050386  0
H  H42  1  0.72118320  0.63085525  0.40186235  1  0  0.098997  0  0.973679  0  0  0.112408  0  1.050068  0  0  0.113316  0  1.049831  0  0  0.086737  0.111569  0  1.05042  0
H  H43  1  0.27881590  0.13085292  0.09813552  1  0  0.099033  0  0.973649  0  0  0.11243  0  1.050048  0  0  0.113337  0  1.049812  0  0  0.086747  0.111589  0  1.050404  0
H  H44  1  0.31691396  0.47261590  0.55921184  1  0  0.115204  0  0.943942  0  0  0.132171  0  1.010447  0  0  0.134054  0  1.009183  0  0  0.098396  0.130719  0  1.01144  0
H  H45  1  0.68307985  0.97261823  0.94078948  1  0  0.115274  0  0.943883  0  0  0.132231  0  1.010393  0  0  0.134114  0  1.009131  0  0  0.098408  0.130782  0  1.011389  0
H  H46  1  0.68308084  0.52738418  0.44078858  1  0  0.115259  0  0.943872  0  0  0.132232  0  1.01037  0  0  0.134115  0  1.009106  0  0  0.098404  0.130781  0  1.011364  0
H  H47  1  0.31691975  0.02738185  0.05920946  1  0  0.115261  0  0.943882  0  0  0.132202  0  1.010414  0  0  0.134086  0  1.009149  0  0  0.098396  0.130752  0  1.011404  0
H  H48  1  0.18119018  0.40313051  0.49368932  1  0  0.095462  0  0.968057  0  0  0.111764  0  1.040854  0  0  0.111958  0  1.042067  0  0  0.092646  0.111432  0  1.040227  0
H  H49  1  0.81880458  0.90312975  0.00630804  1  0  0.095525  0  0.968006  0  0  0.111833  0  1.040783  0  0  0.112035  0  1.041987  0  0  0.092657  0.111498  0  1.040159  0
H  H50  1  0.81880582  0.59686894  0.50631058  1  0  0.095519  0  0.967998  0  0  0.111834  0  1.040779  0  0  0.112027  0  1.041991  0  0  0.092663  0.111503  0  1.040151  0
H  H51  1  0.18119142  0.09686717  0.99368740  1  0  0.095412  0  0.968101  0  0  0.111771  0  1.040824  0  0  0.111966  0  1.042035  0  0  0.092647  0.111437  0  1.040199  0
H  H52  1  0.20364937  0.57756948  0.64536059  1  0  0.11023  0  0.999738  0  0  0.11374  0  1.07334  0  0  0.117057  0  1.070964  0  0  0.10275  0.11124  0  1.075281  0
H  H53  1  0.79634433  0.07757684  0.85464026  1  0  0.110199  0  0.999753  0  0  0.11371  0  1.07334  0  0  0.117029  0  1.070958  0  0  0.102737  0.111212  0  1.075288  0
H  H54  1  0.79634303  0.42242806  0.35464089  1  0  0.110203  0  0.999693  0  0  0.113692  0  1.073335  0  0  0.117008  0  1.070958  0  0  0.102736  0.111193  0  1.075278  0
H  H55  1  0.20365887  0.92242515  0.14535964  1  0  0.11018  0  0.999785  0  0  0.113668  0  1.073434  0  0  0.116987  0  1.071054  0  0  0.102716  0.111167  0  1.075376  0
H  H56  1  0.91131736  0.59488967  0.70594848  1  0  0.117242  0  0.990656  0  0  0.121844  0  1.061163  0  0  0.125686  0  1.058255  0  0  0.104342  0.119029  0  1.063378  0
H  H57  1  0.08868348  0.09489439  0.79405364  1  0  0.117258  0  0.990562  0  0  0.12184  0  1.061092  0  0  0.125683  0  1.058183  0  0  0.104333  0.119023  0  1.063311  0
H  H58  1  0.08867983  0.40510787  0.29405407  1  0  0.117276  0  0.990572  0  0  0.121856  0  1.0611  0  0  0.125699  0  1.058189  0  0  0.104357  0.119042  0  1.063313  0
H  H59  1  0.91132451  0.90510950  0.20594860  1  0  0.117265  0  0.990615  0  0  0.121853  0  1.061124  0  0  0.125697  0  1.058215  0  0  0.104327  0.119039  0  1.06334  0
H  H60  1  0.63952583  0.51622203  0.65415962  1  0  0.105011  0  0.971802  0  0  0.120245  0  1.043903  0  0  0.122015  0  1.042551  0  0  0.087847  0.118844  0  1.044987  0
H  H61  1  0.36046684  0.01622146  0.84583862  1  0  0.104951  0  0.971853  0  0  0.120161  0  1.043977  0  0  0.121934  0  1.042617  0  0  0.087819  0.11876  0  1.045063  0
H  H62  1  0.36046777  0.48377869  0.34583815  1  0  0.104987  0  0.971855  0  0  0.1202  0  1.043958  0  0  0.12197  0  1.042605  0  0  0.087833  0.118802  0  1.045036  0
H  H63  1  0.63953396  0.98377863  0.15416043  1  0  0.104936  0  0.971874  0  0  0.120132  0  1.044004  0  0  0.121905  0  1.042644  0  0  0.087812  0.118732  0  1.04509  0
H  H64  1  0.71814648  0.43833957  0.73274116  1  0  0.098006  0  0.982801  0  0  0.111656  0  1.056853  0  0  0.112069  0  1.057878  0  0  0.086056  0.111202  0  1.056332  0
H  H65  1  0.28184383  0.93833972  0.76725795  1  0  0.098031  0  0.982844  0  0  0.111667  0  1.056882  0  0  0.112078  0  1.057909  0  0  0.086049  0.111215  0  1.056355  0
H  H66  1  0.28184593  0.56166052  0.26725777  1  0  0.09801  0  0.982879  0  0  0.111648  0  1.056913  0  0  0.112059  0  1.057941  0  0  0.086044  0.111195  0  1.056388  0
H  H67  1  0.71815337  0.06166036  0.23274142  1  0  0.098044  0  0.98284  0  0  0.111676  0  1.056869  0  0  0.112086  0  1.057898  0  0  0.086066  0.111225  0  1.056347  0
H  H68  1  0.65047787  0.40726569  0.62361274  1  0  0.097225  0  0.978229  0  0  0.114794  0  1.047736  0  0  0.115726  0  1.047451  0  0  0.085135  0.113965  0  1.048092  0
H  H69  1  0.34951612  0.90726511  0.87638735  1  0  0.097294  0  0.978065  0  0  0.114797  0  1.047636  0  0  0.115727  0  1.047353  0  0  0.085141  0.113964  0  1.047992  0
H  H70  1  0.34951573  0.59273440  0.37638631  1  0  0.097268  0  0.978102  0  0  0.11477  0  1.047682  0  0  0.115702  0  1.047397  0  0  0.085107  0.113938  0  1.048038  0
H  H71  1  0.65048588  0.09273434  0.12361244  1  0  0.097282  0  0.978011  0  0  0.114773  0  1.047599  0  0  0.115704  0  1.047316  0  0  0.085105  0.113943  0  1.047954  0
C  C72  1  0.89462806  0.18118243  0.48765197  1  0  -0.013265  0  3.477377  0  0  -0.032386  0  3.788305  0  0  -0.027594  0  3.80252  0  0  0.089509  -0.035338  0  3.77847  0
C  C73  1  0.10536851  0.68118344  0.01234756  1  0  -0.013205  0  3.477322  0  0  -0.032321  0  3.788248  0  0  -0.027528  0  3.802466  0  0  0.089541  -0.035272  0  3.778405  0
C  C74  1  0.10537273  0.81881765  0.51234963  1  0  -0.013214  0  3.477447  0  0  -0.032324  0  3.788367  0  0  -0.027533  0  3.802586  0  0  0.089542  -0.035274  0  3.778522  0
C  C75  1  0.89463109  0.31881728  0.98765202  1  0  -0.013234  0  3.477376  0  0  -0.032347  0  3.788293  0  0  -0.027554  0  3.802511  0  0  0.089528  -0.035298  0  3.778452  0
C  C76  1  0.13504642  0.21477630  0.42155256  1  0  -0.18807  0  3.652259  0  0  -0.289295  0  3.894407  0  0  -0.286752  0  3.902324  0  0  -0.15507  -0.290648  0  3.889156  0
C  C77  1  0.86495125  0.71477674  0.07844833  1  0  -0.188153  0  3.652243  0  0  -0.289344  0  3.894367  0  0  -0.286806  0  3.902286  0  0  -0.155039  -0.290702  0  3.889124  0
C  C78  1  0.86495437  0.78522378  0.57844904  1  0  -0.188085  0  3.652206  0  0  -0.289296  0  3.894369  0  0  -0.28675  0  3.902285  0  0  -0.155072  -0.290648  0  3.889135  0
C  C79  1  0.13504954  0.28522334  0.92155199  1  0  -0.18813  0  3.652271  0  0  -0.289344  0  3.894405  0  0  -0.286802  0  3.902325  0  0  -0.155054  -0.290688  0  3.88917  0
C  C80  1  0.96822234  0.08166846  0.39979039  1  0  -0.032624  0  3.647832  0  0  -0.074201  0  3.908018  0  0  -0.072325  0  3.924987  0  0  0.009332  -0.075504  0  3.896823  0
C  C81  1  0.03177690  0.58166886  0.10021196  1  0  -0.032656  0  3.647879  0  0  -0.074245  0  3.908072  0  0  -0.072361  0  3.925043  0  0  0.009263  -0.075553  0  3.896887  0
C  C82  1  0.03177965  0.91833035  0.60021131  1  0  -0.032554  0  3.647715  0  0  -0.074143  0  3.907902  0  0  -0.072254  0  3.92488  0  0  0.009313  -0.075451  0  3.896717  0
C  C83  1  0.96822270  0.41833059  0.89978889  1  0  -0.032606  0  3.647704  0  0  -0.074194  0  3.907882  0  0  -0.072307  0  3.924856  0  0  0.009314  -0.0755  0  3.896691  0
C  C84  1  0.83438651  0.05304827  0.42909318  1  0  -0.042493  0  3.665235  0  0  -0.086315  0  3.929043  0  0  -0.08457  0  3.946663  0  0  0.004706  -0.087481  0  3.917435  0
C  C85  1  0.16560922  0.55304921  0.07090632  1  0  -0.04246  0  3.665323  0  0  -0.086286  0  3.929148  0  0  -0.084541  0  3.946768  0  0  0.004718  -0.087462  0  3.91755  0
C  C86  1  0.16561309  0.94695182  0.57090703  1  0  -0.042485  0  3.6652  0  0  -0.086306  0  3.92901  0  0  -0.084562  0  3.946625  0  0  0.004704  -0.087482  0  3.917416  0
C  C87  1  0.83438678  0.44695087  0.92909293  1  0  -0.042412  0  3.665193  0  0  -0.086232  0  3.929016  0  0  -0.084479  0  3.946629  0  0  0.004747  -0.0874  0  3.91741  0
C  C88  1  0.65534784  0.10831404  0.52912183  1  0  -0.179115  0  3.641052  0  0  -0.280813  0  3.883278  0  0  -0.278411  0  3.891798  0  0  -0.14513  -0.282054  0  3.877527  0
C  C89  1  0.34464937  0.60831470  0.97087741  1  0  -0.179199  0  3.641122  0  0  -0.280892  0  3.883321  0  0  -0.278484  0  3.891842  0  0  -0.145147  -0.282139  0  3.877574  0
C  C90  1  0.34465175  0.89168605  0.47087902  1  0  -0.179124  0  3.641049  0  0  -0.280794  0  3.883276  0  0  -0.278389  0  3.891799  0  0  -0.145135  -0.282049  0  3.877544  0
C  C91  1  0.65535023  0.39168411  0.02912154  1  0  -0.179123  0  3.641099  0  0  -0.280872  0  3.883299  0  0  -0.278465  0  3.891822  0  0  -0.145133  -0.28212  0  3.87756  0
C  C92  1  0.95358341  0.41917561  0.60153255  1  0  -0.014441  0  3.449459  0  0  -0.032468  0  3.760271  0  0  -0.027215  0  3.773555  0  0  0.091858  -0.035658  0  3.750952  0
C  C93  1  0.04641534  0.91917779  0.89846733  1  0  -0.014422  0  3.44968  0  0  -0.03248  0  3.760524  0  0  -0.027223  0  3.773809  0  0  0.091803  -0.035668  0  3.751196  0
C  C94  1  0.04641499  0.58082447  0.39846756  1  0  -0.014401  0  3.449376  0  0  -0.032463  0  3.760231  0  0  -0.027205  0  3.773514  0  0  0.091813  -0.035654  0  3.750908  0
C  C95  1  0.95358905  0.08082293  0.10153077  1  0  -0.014439  0  3.449344  0  0  -0.03245  0  3.76018  0  0  -0.027199  0  3.773466  0  0  0.091854  -0.035639  0  3.750862  0
C  C96  1  0.22585844  0.42343622  0.55995316  1  0  -0.179976  0  3.640958  0  0  -0.281596  0  3.888648  0  0  -0.278659  0  3.896751  0  0  -0.148987  -0.28323  0  3.883314  0
C  C97  1  0.77413670  0.92343849  0.94004575  1  0  -0.180119  0  3.640962  0  0  -0.281752  0  3.888705  0  0  -0.278819  0  3.896801  0  0  -0.149059  -0.283386  0  3.883374  0
C  C98  1  0.77413756  0.57656386  0.44004673  1  0  -0.180067  0  3.641011  0  0  -0.281724  0  3.88873  0  0  -0.278785  0  3.896833  0  0  -0.149032  -0.283364  0  3.883397  0
C  C99  1  0.22586290  0.07656160  0.05995255  1  0  -0.180012  0  3.641046  0  0  -0.28165  0  3.888757  0  0  -0.278713  0  3.896857  0  0  -0.149003  -0.283282  0  3.883424  0
C  C100  1  0.10007870  0.53622284  0.64000827  1  0  -0.048328  0  3.698191  0  0  -0.09191  0  3.966349  0  0  -0.089715  0  3.983563  0  0  -0.000234  -0.093438  0  3.955111  0
C  C101  1  0.89992110  0.03622504  0.85999187  1  0  -0.048267  0  3.698534  0  0  -0.09185  0  3.966711  0  0  -0.08965  0  3.983923  0  0  -0.000235  -0.093387  0  3.955489  0
C  C102  1  0.89991849  0.46377725  0.35999300  1  0  -0.048248  0  3.698282  0  0  -0.091831  0  3.966467  0  0  -0.089631  0  3.983678  0  0  -0.000213  -0.093368  0  3.955245  0
C  C103  1  0.10008689  0.96377504  0.14000719  1  0  -0.048258  0  3.698438  0  0  -0.091833  0  3.966563  0  0  -0.089639  0  3.983779  0  0  -0.000228  -0.09336  0  3.955325  0
C  C104  1  0.95727702  0.54492462  0.66916997  1  0  -0.051441  0  3.655752  0  0  -0.088171  0  3.910342  0  0  -0.086995  0  3.927381  0  0  0.002708  -0.089  0  3.899177  0
C  C105  1  0.04272396  0.04492999  0.83083536  1  0  -0.051418  0  3.655703  0  0  -0.088136  0  3.910306  0  0  -0.086963  0  3.927349  0  0  0.002748  -0.088964  0  3.89915  0
C  C106  1  0.04272257  0.45507103  0.33083216  1  0  -0.051393  0  3.655557  0  0  -0.088104  0  3.910153  0  0  -0.086931  0  3.927195  0  0  0.002717  -0.088935  0  3.898996  0
C  C107  1  0.95728403  0.95507390  0.16916878  1  0  -0.051529  0  3.655883  0  0  -0.088219  0  3.910447  0  0  -0.087046  0  3.927489  0  0  0.002735  -0.089047  0  3.899283  0
C  C108  1  0.70953535  0.45756945  0.66517148  1  0  -0.184817  0  3.652583  0  0  -0.285117  0  3.892835  0  0  -0.282612  0  3.901648  0  0  -0.151202  -0.286458  0  3.886975  0
C  C109  1  0.29045849  0.95756830  0.83482858  1  0  -0.18487  0  3.652462  0  0  -0.285106  0  3.892832  0  0  -0.282598  0  3.901646  0  0  -0.1512  -0.286451  0  3.886971  0
C  C110  1  0.29045945  0.54243063  0.33482767  1  0  -0.184886  0  3.652582  0  0  -0.28512  0  3.892943  0  0  -0.282612  0  3.901757  0  0  -0.151197  -0.286467  0  3.887083  0
C  C111  1  0.70954350  0.04243051  0.16517122  1  0  -0.184897  0  3.652395  0  0  -0.285081  0  3.892749  0  0  -0.282574  0  3.901557  0  0  -0.151167  -0.286424  0  3.886888  0
I  I112  1  0.80661136  0.23508808  0.73359732  1  0  -0.396636  0  1.257262  0  0  -0.340732  0  1.62804  0  0  -0.360933  0  1.609582  0  0  -0.189899  -0.326663  0  1.640325  0
I  I113  1  0.19338790  0.73508512  0.76640268  1  0  -0.39666  0  1.257259  0  0  -0.34074  0  1.628003  0  0  -0.360943  0  1.609544  0  0  -0.189922  -0.326682  0  1.640284  0
I  I114  1  0.19338824  0.76491264  0.26640226  1  0  -0.396653  0  1.257272  0  0  -0.340732  0  1.628034  0  0  -0.360935  0  1.609575  0  0  -0.189912  -0.32667  0  1.640314  0
I  I115  1  0.80661170  0.26491496  0.23359753  1  0  -0.396645  0  1.257263  0  0  -0.340725  0  1.628022  0  0  -0.360928  0  1.609563  0  0  -0.189902  -0.326659  0  1.640307  0
I  I116  1  0.53300574  0.16115014  0.94228239  1  0  -0.432451  0  1.114186  0  0  -0.366823  0  1.451291  0  0  -0.386437  0  1.431662  0  0  -0.202846  -0.352881  0  1.464287  0
I  I117  1  0.46699612  0.66115088  0.55771788  1  0  -0.432459  0  1.114182  0  0  -0.366828  0  1.451292  0  0  -0.386438  0  1.431659  0  0  -0.202856  -0.352894  0  1.464287  0
I  I118  1  0.46699626  0.83884931  0.05771741  1  0  -0.432438  0  1.114167  0  0  -0.366793  0  1.451254  0  0  -0.386414  0  1.431639  0  0  -0.202836  -0.352859  0  1.464251  0
I  I119  1  0.53300107  0.33884920  0.44228148  1  0  -0.432441  0  1.114172  0  0  -0.366811  0  1.451275  0  0  -0.38642  0  1.431645  0  0  -0.202842  -0.352875  0  1.464287  0
I  I120  1  0.40239285  0.42671065  0.80097955  1  0  -0.397754  0  1.097856  0  0  -0.344079  0  1.41831  0  0  -0.361114  0  1.402667  0  0  -0.191405  -0.332307  0  1.428829  0
I  I121  1  0.59760468  0.92671061  0.69902022  1  0  -0.397753  0  1.097867  0  0  -0.344081  0  1.418321  0  0  -0.361115  0  1.402679  0  0  -0.191416  -0.332322  0  1.428842  0
I  I122  1  0.59760554  0.57328880  0.19901993  1  0  -0.397752  0  1.097865  0  0  -0.344074  0  1.418309  0  0  -0.361107  0  1.402667  0  0  -0.191419  -0.332309  0  1.428827  0
I  I123  1  0.40239612  0.07328884  0.30098010  1  0  -0.397776  0  1.097882  0  0  -0.344105  0  1.418326  0  0  -0.36114  0  1.402684  0  0  -0.191414  -0.332332  0  1.428856  0
I  I124  1  0.26095209  0.17437979  0.66520427  1  0  -0.440931  0  1.082103  0  0  -0.38924  0  1.402543  0  0  -0.407382  0  1.384262  0  0  -0.233786  -0.376335  0  1.414778  0
I  I125  1  0.73904854  0.67437959  0.83479588  1  0  -0.440919  0  1.082084  0  0  -0.389234  0  1.402515  0  0  -0.407376  0  1.384232  0  0  -0.233793  -0.376334  0  1.414747  0
I  I126  1  0.73904871  0.82562029  0.33479542  1  0  -0.44094  0  1.082089  0  0  -0.389253  0  1.402523  0  0  -0.407395  0  1.38424  0  0  -0.233791  -0.376352  0  1.414758  0
I  I127  1  0.26095106  0.32561923  0.16520433  1  0  -0.44093  0  1.082082  0  0  -0.389239  0  1.402517  0  0  -0.407382  0  1.384237  0  0  -0.233791  -0.376336  0  1.414747  0
N  N128  1  0.00328947  0.16034099  0.43681344  1  0  -0.007022  0  3.64811  0  0  0.091819  0  3.859271  0  0  0.078637  0  3.888834  0  0  -0.246705  0.100396  0  3.839259  0
N  N129  1  0.99670836  0.66034198  0.06318557  1  0  -0.006984  0  3.647995  0  0  0.09183  0  3.859166  0  0  0.07865  0  3.888722  0  0  -0.246702  0.100404  0  3.839154  0
N  N130  1  0.99671372  0.83965909  0.56318709  1  0  -0.00705  0  3.64818  0  0  0.091775  0  3.859354  0  0  0.07859  0  3.888921  0  0  -0.246693  0.10035  0  3.839339  0
N  N131  1  0.00329484  0.33965810  0.93681433  1  0  -0.007069  0  3.648041  0  0  0.091757  0  3.859194  0  0  0.078575  0  3.888752  0  0  -0.246737  0.100331  0  3.839181  0
N  N132  1  0.79108332  0.11512381  0.48302918  1  0  -0.004285  0  3.624187  0  0  0.093683  0  3.839166  0  0  0.080146  0  3.869493  0  0  -0.239099  0.102498  0  3.818653  0
N  N133  1  0.20891343  0.61512475  0.01696976  1  0  -0.004267  0  3.62418  0  0  0.0937  0  3.839154  0  0  0.080158  0  3.86949  0  0  -0.239101  0.102512  0  3.818644  0
N  N134  1  0.20891747  0.88487627  0.51697242  1  0  -0.004315  0  3.624257  0  0  0.093636  0  3.839248  0  0  0.080101  0  3.86957  0  0  -0.239104  0.102447  0  3.818738  0
N  N135  1  0.79108737  0.38487470  0.98302929  1  0  -0.004298  0  3.624154  0  0  0.093663  0  3.839151  0  0  0.080123  0  3.869482  0  0  -0.239145  0.102475  0  3.818638  0
N  N136  1  0.09482222  0.45894116  0.59838172  1  0  -0.0085  0  3.635621  0  0  0.088249  0  3.849182  0  0  0.074723  0  3.879087  0  0  -0.247239  0.097071  0  3.828895  0
N  N137  1  0.90517282  0.95894652  0.90161654  1  0  -0.008639  0  3.635857  0  0  0.088139  0  3.849415  0  0  0.074607  0  3.879325  0  0  -0.247182  0.096966  0  3.82913  0
N  N138  1  0.90517138  0.54105638  0.40161733  1  0  -0.008644  0  3.635764  0  0  0.088128  0  3.849342  0  0  0.074598  0  3.879245  0  0  -0.247243  0.096953  0  3.829059  0
N  N139  1  0.09483037  0.04105483  0.09838145  1  0  -0.00857  0  3.635917  0  0  0.088173  0  3.849498  0  0  0.074648  0  3.879406  0  0  -0.247218  0.096995  0  3.82921  0
N  N140  1  0.86905127  0.47246344  0.64457713  1  0  0.00425  0  3.616488  0  0  0.102505  0  3.826211  0  0  0.089681  0  3.855431  0  0  -0.2416  0.11084  0  3.806403  0
N  N141  1  0.13094373  0.97246494  0.85542366  1  0  0.004293  0  3.616648  0  0  0.102582  0  3.826311  0  0  0.089757  0  3.855535  0  0  -0.241564  0.110917  0  3.806502  0
N  N142  1  0.13094473  0.52753664  0.35542403  1  0  0.004266  0  3.616442  0  0  0.102555  0  3.826107  0  0  0.089727  0  3.855334  0  0  -0.241538  0.11089  0  3.8063  0
N  N143  1  0.86906066  0.02753578  0.14457889  1  0  0.004408  0  3.616318  0  0  0.102632  0  3.825987  0  0  0.089814  0  3.855198  0  0  -0.241591  0.110966  0  3.806183  0
