# generated using pymatgen
data_AlH7C16N4Cl2O5
_symmetry_space_group_name_H-M   'P 1'
_cell_length_a   6.69403471
_cell_length_b   24.99600125
_cell_length_c   28.50131757
_cell_angle_alpha   90.05330099
_cell_angle_beta   90.27315855
_cell_angle_gamma   90.37341368
_symmetry_Int_Tables_number   1
_chemical_formula_structural   AlH7C16N4Cl2O5
_chemical_formula_sum   'Al4 H28 C64 N16 Cl8 O20'
_cell_volume   4768.79963083
_cell_formula_units_Z   4
loop_
 _symmetry_equiv_pos_site_id
 _symmetry_equiv_pos_as_xyz
  1  'x, y, z'
loop_
 _atom_site_type_symbol
 _atom_site_label
 _atom_site_symmetry_multiplicity
 _atom_site_fract_x
 _atom_site_fract_y
 _atom_site_fract_z
 _atom_site_occupancy
 _atom_site_pbe_bader_charge
 _atom_site_pbe_bader_spin_density
 _atom_site_pbe_cm5_charge
 _atom_site_pbe_ddec_charge
 _atom_site_pbe_ddec_spin_density
 _atom_site_pbe_ddec_sum_bond_order
 _atom_site_pbe_magmom
Al  Al0  1  0.79147463  0.75149421  0.75009584  1  2.503112  0  0.402784  1.653058  0  2.574846  0
Al  Al1  1  0.20753614  0.24857114  0.24979426  1  2.501307  0  0.402841  1.652136  0  2.573399  0
Al  Al2  1  0.29141984  0.74927059  0.74934029  1  2.505157  0  0.402497  1.651969  0  2.575907  0
Al  Al3  1  0.70783706  0.25146600  0.24994361  1  2.501686  0  0.402515  1.650315  0  2.576004  0
H  H4  1  0.72517567  0.62277741  0.66307317  1  0.132242  0  0.11243  0.129666  0  0.994004  0
H  H5  1  0.27079806  0.37667736  0.33663928  1  0.107913  0  0.112355  0.12968  0  0.993926  0
H  H6  1  0.26763429  0.32799545  0.12658297  1  0.133824  0  0.115104  0.134968  0  0.988623  0
H  H7  1  0.73445934  0.67248757  0.87323173  1  0.122393  0  0.115191  0.134722  0  0.988163  0
H  H8  1  0.23912748  0.88135519  0.83392877  1  0.120427  0  0.111009  0.126913  0  0.994843  0
H  H9  1  0.75986228  0.17440668  0.12335458  1  0.125291  0  0.114055  0.134123  0  0.988981  0
H  H10  1  0.76743444  0.17220620  0.37200861  1  0.112798  0  0.115773  0.135673  0  0.98531  0
H  H11  1  0.23255484  0.82783127  0.62626206  1  0.134149  0  0.115891  0.135954  0  0.98679  0
H  H12  1  0.30630454  0.59474695  0.55843924  1  0.115138  0  0.105659  0.110394  0  1.01006  0
H  H13  1  0.69202550  0.40514511  0.44181568  1  0.099913  0  0.105815  0.110651  0  1.009075  0
H  H14  1  0.70643002  0.45044567  0.09197926  1  0.114258  0  0.103775  0.10401  0  1.019963  0
H  H15  1  0.29504708  0.54974144  0.90763851  1  0.111103  0  0.103949  0.104154  0  1.020086  0
H  H16  1  0.80966782  0.90281928  0.94414515  1  0.143983  0  0.107933  0.108989  0  1.021972  0
H  H17  1  0.18950363  0.05186152  0.09107925  1  0.131419  0  0.108209  0.109101  0  1.023673  0
H  H18  1  0.20409270  0.04944279  0.40820512  1  0.104821  0  0.103728  0.104037  0  1.01982  0
H  H19  1  0.79728425  0.95080573  0.59203049  1  0.113973  0  0.103858  0.104027  0  1.021019  0
H  H20  1  0.33026945  0.66064324  0.62444430  1  0.099126  0  0.1126  0.121085  0  0.985012  0
H  H21  1  0.66708989  0.33876485  0.37621514  1  0.105403  0  0.11226  0.120305  0  0.986544  0
H  H22  1  0.67623226  0.38402901  0.15702544  1  0.101858  0  0.110927  0.117969  0  0.988222  0
H  H23  1  0.32694845  0.61683405  0.84316823  1  0.093106  0  0.110762  0.117291  0  0.988008  0
H  H24  1  0.83644117  0.84004079  0.87595086  1  0.112609  0  0.11195  0.120415  0  0.984609  0
H  H25  1  0.16449213  0.12035930  0.15492147  1  0.088759  0  0.110079  0.117039  0  0.989431  0
H  H26  1  0.16960922  0.11636341  0.34365913  1  0.109832  0  0.111103  0.117769  0  0.987375  0
H  H27  1  0.82873545  0.88352819  0.65643124  1  0.105215  0  0.110931  0.117485  0  0.987143  0
H  H28  1  0.54492852  0.67977089  0.75334356  1  0.646886  0  0.358875  0.438053  0  0.840658  0
H  H29  1  0.45266452  0.32087400  0.24813020  1  0.628749  0  0.357943  0.43645  0  0.843259  0
H  H30  1  0.04835487  0.82109839  0.75057452  1  0.623818  0  0.358618  0.437263  0  0.84215  0
H  H31  1  0.94882501  0.17913826  0.24712673  1  0.630328  0  0.358126  0.436824  0  0.841873  0
C  C32  1  0.53932844  0.81373282  0.68556167  1  1.592801  0  0.271389  0.644856  0  4.09038  0
C  C33  1  0.45662219  0.18576949  0.31321189  1  1.568601  0  0.271217  0.645964  0  4.090499  0
C  C34  1  0.46110369  0.18738942  0.18507520  1  1.576065  0  0.26944  0.643159  0  4.091055  0
C  C35  1  0.54241592  0.81618550  0.81236633  1  1.571172  0  0.270266  0.645479  0  4.090196  0
C  C36  1  0.03949378  0.68667733  0.81385343  1  1.577815  0  0.271558  0.646875  0  4.087898  0
C  C37  1  0.96446755  0.31439975  0.18646426  1  1.580986  0  0.270815  0.644739  0  4.086566  0
C  C38  1  0.95912165  0.31386835  0.31363788  1  1.584204  0  0.270358  0.642268  0  4.092928  0
C  C39  1  0.03613647  0.68547279  0.68660430  1  1.579726  0  0.270079  0.643088  0  4.092763  0
C  C40  1  0.85195298  0.61662415  0.63994021  1  -0.0135  0  -0.085742  -0.159439  0  3.953976  0
C  C41  1  0.14464273  0.38286567  0.35992100  1  0.047408  0  -0.084834  -0.157751  0  3.950917  0
C  C42  1  0.14293604  0.35411055  0.11822680  1  0.012362  0  -0.084207  -0.159259  0  3.947046  0
C  C43  1  0.85921110  0.64636891  0.88156653  1  0.093526  0  -0.084677  -0.160648  0  3.946502  0
C  C44  1  0.36468500  0.88628786  0.85799576  1  0.006511  0  -0.08647  -0.161281  0  3.956991  0
C  C45  1  0.63473921  0.14752082  0.11617740  1  0.016022  0  -0.085604  -0.163653  0  3.951215  0
C  C46  1  0.64203818  0.14615458  0.38074748  1  0.031731  0  -0.084327  -0.162059  0  3.94567  0
C  C47  1  0.35807007  0.85399320  0.61790749  1  0.036653  0  -0.084906  -0.161571  0  3.946539  0
C  C48  1  0.84153738  0.57856495  0.60428171  1  0.061553  0  0.022843  0.123875  0  4.02325  0
C  C49  1  0.15594865  0.42103605  0.39545967  1  0.035669  0  0.022041  0.122118  0  4.023787  0
C  C50  1  0.15556810  0.38925683  0.08044897  1  0.056791  0  0.023911  0.127479  0  4.010388  0
C  C51  1  0.84607272  0.61099724  0.91918014  1  0.047475  0  0.024071  0.127266  0  4.012816  0
C  C52  1  0.35405476  0.92336228  0.89441615  1  0.061319  0  0.024437  0.126511  0  4.009113  0
C  C53  1  0.64475313  0.11124965  0.07910376  1  0.031483  0  0.025001  0.127574  0  4.007475  0
C  C54  1  0.65611830  0.11116338  0.41864631  1  0.038222  0  0.02423  0.127729  0  4.011748  0
C  C55  1  0.34501672  0.88946000  0.58037326  1  0.036636  0  0.024299  0.128375  0  4.011124  0
C  C56  1  0.00443167  0.57123040  0.57383861  1  0.056289  0  -0.003572  -0.034141  0  3.966211  0
C  C57  1  0.99366749  0.42854486  0.42605193  1  0.049935  0  -0.002894  -0.032635  0  3.965952  0
C  C58  1  0.99768303  0.42476631  0.07063070  1  0.047716  0  -0.003143  -0.034029  0  3.951069  0
C  C59  1  0.00380122  0.57541520  0.92896321  1  0.014554  0  -0.003056  -0.033765  0  3.954718  0
C  C60  1  0.51263425  0.92828666  0.92713576  1  0.035708  0  -0.001954  -0.030237  0  3.948294  0
C  C61  1  0.48664103  0.07454452  0.07093512  1  0.002524  0  -0.002218  -0.031181  0  3.947691  0
C  C62  1  0.49784317  0.07551661  0.42887166  1  0.032139  0  -0.00378  -0.034512  0  3.95396  0
C  C63  1  0.50401571  0.92507048  0.57067491  1  0.010297  0  -0.00291  -0.033241  0  3.95404  0
C  C64  1  0.17970483  0.60125004  0.58159947  1  -0.050825  0  -0.077717  -0.091028  0  3.969373  0
C  C65  1  0.81830008  0.39848167  0.41860012  1  -0.042462  0  -0.077502  -0.091827  0  3.968802  0
C  C66  1  0.82748944  0.42277371  0.09939391  1  -0.036195  0  -0.078144  -0.091355  0  3.973914  0
C  C67  1  0.17435817  0.57756462  0.90034165  1  -0.045025  0  -0.078777  -0.0915  0  3.977019  0
C  C68  1  0.68642075  0.89799641  0.91935734  1  -0.06595  0  -0.076285  -0.089913  0  3.95859  0
C  C69  1  0.31287171  0.07931112  0.09837647  1  -0.05503  0  -0.0769  -0.091015  0  3.962059  0
C  C70  1  0.32519470  0.07735049  0.40058692  1  0.023314  0  -0.079055  -0.092217  0  3.978797  0
C  C71  1  0.67567394  0.92294620  0.59928565  1  0.001857  0  -0.079002  -0.092164  0  3.977754  0
C  C72  1  0.19324146  0.63795273  0.61817262  1  0.018914  0  -0.080397  -0.094744  0  3.966062  0
C  C73  1  0.80414882  0.36151328  0.38224827  1  0.070782  0  -0.080227  -0.09284  0  3.964888  0
C  C74  1  0.81095617  0.38621498  0.13585298  1  -0.001023  0  -0.080879  -0.093391  0  3.971083  0
C  C75  1  0.19178346  0.61449718  0.86419058  1  0.054348  0  -0.080872  -0.094362  0  3.972268  0
C  C76  1  0.70090054  0.86296410  0.88172100  1  0.006926  0  -0.081293  -0.095675  0  3.969742  0
C  C77  1  0.29941760  0.11699865  0.13397078  1  0.060072  0  -0.081998  -0.095367  0  3.974276  0
C  C78  1  0.30641892  0.11410165  0.36436428  1  -0.038152  0  -0.081259  -0.09536  0  3.972146  0
C  C79  1  0.69293038  0.88593912  0.63536108  1  -0.012078  0  -0.080546  -0.09387  0  3.97158  0
C  C80  1  0.02769976  0.64619019  0.64710504  1  -0.041778  0  -0.008196  -0.017912  0  3.973513  0
C  C81  1  0.96892220  0.35319219  0.35308665  1  -0.090285  0  -0.009356  -0.020023  0  3.973844  0
C  C82  1  0.97073172  0.35215484  0.14583531  1  -0.035993  0  -0.007508  -0.017171  0  3.967539  0
C  C83  1  0.03224398  0.64863997  0.85426210  1  -0.106937  0  -0.007498  -0.015941  0  3.967388  0
C  C84  1  0.53694569  0.85584682  0.85156380  1  -0.031618  0  -0.007941  -0.016812  0  3.971948  0
C  C85  1  0.46375993  0.15008986  0.14410830  1  -0.035346  0  -0.008987  -0.017174  0  3.970175  0
C  C86  1  0.46692165  0.14811006  0.35383127  1  -0.031288  0  -0.005999  -0.012647  0  3.967054  0
C  C87  1  0.53215350  0.85175290  0.64518617  1  -0.042764  0  -0.007016  -0.015205  0  3.967881  0
C  C88  1  0.99902941  0.46710034  0.46518542  1  0.988366  0  0.244745  0.261541  0  3.980726  0
C  C89  1  0.99961906  0.53292306  0.53452128  1  0.993692  0  0.244904  0.2613  0  3.985078  0
C  C90  1  0.99932231  0.53548260  0.96693462  1  0.963421  0  0.242421  0.260107  0  3.97716  0
C  C91  1  0.00183553  0.46458694  0.03257170  1  0.928379  0  0.242853  0.261154  0  3.976192  0
C  C92  1  0.49567945  0.03050740  0.03685694  1  0.977196  0  0.239574  0.250653  0  3.99273  0
C  C93  1  0.50419297  0.96175812  0.96947327  1  0.947685  0  0.239476  0.250812  0  3.995572  0
C  C94  1  0.50014236  0.96490662  0.53265169  1  0.966187  0  0.242395  0.259377  0  3.977437  0
C  C95  1  0.50323764  0.03568589  0.46692129  1  0.965633  0  0.24285  0.261972  0  3.976549  0
N  N96  1  0.16192378  0.50158232  0.52912863  1  -0.5509  0  -0.151965  -0.13508  0  3.179079  0
N  N97  1  0.83711496  0.49862012  0.47044051  1  -0.550681  0  -0.152588  -0.136197  0  3.178121  0
N  N98  1  0.91793219  0.51252657  0.04208455  1  -0.513262  0  -0.154272  -0.141785  0  3.189503  0
N  N99  1  0.08315534  0.48754250  0.95741297  1  -0.533691  0  -0.153911  -0.141223  0  3.190438  0
N  N100  1  0.67854111  0.97492057  0.99078851  1  -0.54815  0  -0.148222  -0.128128  0  3.21161  0
N  N101  1  0.32159867  0.00730968  0.02341130  1  -0.56714  0  -0.147736  -0.126832  0  3.21071  0
N  N102  1  0.41805978  0.98756461  0.45736953  1  -0.537485  0  -0.154765  -0.142655  0  3.192545  0
N  N103  1  0.58647079  0.01288049  0.54211030  1  -0.523097  0  -0.154447  -0.141255  0  3.188034  0
N  N104  1  0.16160340  0.46770674  0.49354081  1  -0.542066  0  -0.155351  -0.145376  0  3.206846  0
N  N105  1  0.83744284  0.53249971  0.50602658  1  -0.558737  0  -0.155037  -0.144855  0  3.208866  0
N  N106  1  0.91693865  0.54886572  0.00855331  1  -0.558418  0  -0.155813  -0.144555  0  3.225492  0
N  N107  1  0.08411740  0.45119452  0.99094418  1  -0.518366  0  -0.156439  -0.145591  0  3.227456  0
N  N108  1  0.67466669  0.00863679  0.02626731  1  -0.523985  0  -0.15666  -0.147553  0  3.232782  0
N  N109  1  0.32554280  0.97085050  0.99010242  1  -0.494698  0  -0.156856  -0.147967  0  3.235204  0
N  N110  1  0.41680007  0.95127941  0.49093751  1  -0.543996  0  -0.156006  -0.144664  0  3.226994  0
N  N111  1  0.58777828  0.04918053  0.50852446  1  -0.552327  0  -0.156743  -0.146738  0  3.223931  0
Cl  Cl112  1  0.63052699  0.53860586  0.60052033  1  -0.182377  0  0.010302  -0.070276  0  1.559895  0
Cl  Cl113  1  0.36714335  0.46097554  0.39888081  1  -0.184652  0  0.010353  -0.069794  0  1.55798  0
Cl  Cl114  1  0.37502837  0.38948750  0.04873776  1  -0.194314  0  0.007578  -0.069631  0  1.544243  0
Cl  Cl115  1  0.62634056  0.61061504  0.95077571  1  -0.185379  0  0.008  -0.06915  0  1.547911  0
Cl  Cl116  1  0.14584056  0.96383235  0.89597979  1  -0.18006  0  0.00851  -0.067527  0  1.541821  0
Cl  Cl117  1  0.85194716  0.11495246  0.04330476  1  -0.179316  0  0.008878  -0.066098  0  1.536095  0
Cl  Cl118  1  0.87742750  0.11130336  0.45012208  1  -0.189124  0  0.007833  -0.069474  0  1.5481  0
Cl  Cl119  1  0.12406081  0.88990638  0.54875690  1  -0.191441  0  0.007613  -0.069818  0  1.544617  0
O  O120  1  0.37428260  0.80086029  0.79584225  1  -1.258602  0  -0.236123  -0.595968  0  2.345285  0
O  O121  1  0.62951613  0.20589719  0.19862065  1  -1.259579  0  -0.235114  -0.592957  0  2.349929  0
O  O122  1  0.62282038  0.19949384  0.29520413  1  -1.255752  0  -0.233656  -0.592574  0  2.355673  0
O  O123  1  0.37128264  0.79703198  0.70042338  1  -1.263566  0  -0.233533  -0.590832  0  2.363695  0
O  O124  1  0.86939993  0.70087766  0.70300197  1  -1.259141  0  -0.235535  -0.593174  0  2.347434  0
O  O125  1  0.12449363  0.30067158  0.29511779  1  -1.260466  0  -0.234788  -0.59346  0  2.351549  0
O  O126  1  0.13165183  0.29534027  0.19948178  1  -1.256326  0  -0.23453  -0.592763  0  2.357912  0
O  O127  1  0.87148134  0.70300939  0.79872098  1  -1.257599  0  -0.234283  -0.593707  0  2.359174  0
O  O128  1  0.70989127  0.80166669  0.70237903  1  -1.261001  0  -0.234721  -0.591215  0  2.321384  0
O  O129  1  0.28432588  0.20052790  0.29940526  1  -1.250544  0  -0.233816  -0.589123  0  2.320805  0
O  O130  1  0.29257373  0.19698273  0.20386010  1  -1.254723  0  -0.235707  -0.595862  0  2.333607  0
O  O131  1  0.71351323  0.80111672  0.79835725  1  -1.254413  0  -0.235509  -0.593566  0  2.333665  0
O  O132  1  0.21026105  0.69915681  0.79737372  1  -1.26093  0  -0.235218  -0.593306  0  2.318851  0
O  O133  1  0.79553929  0.30479354  0.20527105  1  -1.254651  0  -0.236054  -0.594666  0  2.320438  0
O  O134  1  0.78681787  0.29722734  0.30102490  1  -1.26065  0  -0.234474  -0.589224  0  2.334302  0
O  O135  1  0.20833313  0.69981790  0.70127539  1  -1.253066  0  -0.234408  -0.590607  0  2.337545  0
O  O136  1  0.54204348  0.71829150  0.75021666  1  -1.449286  0  -0.448229  -0.999732  0  2.208425  0
O  O137  1  0.45666201  0.28227190  0.25019770  1  -1.430775  0  -0.447909  -0.997169  0  2.206647  0
O  O138  1  0.04350866  0.78243226  0.74955260  1  -1.426822  0  -0.448163  -0.998629  0  2.209911  0
O  O139  1  0.95502540  0.21772941  0.24939523  1  -1.433453  0  -0.447556  -0.997091  0  2.207147  0
