# generated using pymatgen
data_RbH10C14S2NO8
_symmetry_space_group_name_H-M   'P 1'
_cell_length_a   6.95466933
_cell_length_b   11.84787761
_cell_length_c   19.97200000
_cell_angle_alpha   103.03398229
_cell_angle_beta   90.00000000
_cell_angle_gamma   90.00000000
_symmetry_Int_Tables_number   1
_chemical_formula_structural   RbH10C14S2NO8
_chemical_formula_sum   'Rb4 H40 C56 S8 N4 O32'
_cell_volume   1603.25641786
_cell_formula_units_Z   4
loop_
 _symmetry_equiv_pos_site_id
 _symmetry_equiv_pos_as_xyz
  1  'x, y, z'
loop_
 _atom_site_type_symbol
 _atom_site_label
 _atom_site_symmetry_multiplicity
 _atom_site_fract_x
 _atom_site_fract_y
 _atom_site_fract_z
 _atom_site_occupancy
 _atom_site_hle17_bader_spin_density
 _atom_site_hle17_ddec_charge
 _atom_site_hle17_ddec_spin_density
 _atom_site_hle17_ddec_sum_bond_order
 _atom_site_hle17_magmom
 _atom_site_hse06_10hf_bader_spin_density
 _atom_site_hse06_10hf_ddec_charge
 _atom_site_hse06_10hf_ddec_spin_density
 _atom_site_hse06_10hf_ddec_sum_bond_order
 _atom_site_hse06_10hf_magmom
 _atom_site_hse06_bader_spin_density
 _atom_site_hse06_ddec_charge
 _atom_site_hse06_ddec_spin_density
 _atom_site_hse06_ddec_sum_bond_order
 _atom_site_hse06_magmom
 _atom_site_pbe_bader_charge
 _atom_site_pbe_bader_spin_density
 _atom_site_pbe_cm5_charge
 _atom_site_pbe_ddec_charge
 _atom_site_pbe_ddec_spin_density
 _atom_site_pbe_ddec_sum_bond_order
 _atom_site_pbe_magmom
Rb  Rb0  1  0.07192290  0.13778484  0.50812870  1  0  0.956967  0  0.559609  0  0  0.911528  0  0.787895  0  0  0.924596  0  0.765667  0  0.900296  0  0.912381  0.901873  0  0.803617  0
Rb  Rb1  1  0.57192511  0.86221564  0.49187181  1  0  0.956971  0  0.559605  0  0  0.911527  0  0.787893  0  0  0.924592  0  0.765665  0  0.900271  0  0.912366  0.90187  0  0.803616  0
Rb  Rb2  1  0.33417836  0.41301490  0.49559943  1  0  0.97035  0  0.557995  0  0  0.932808  0  0.783792  0  0  0.946288  0  0.76107  0  0.908105  0  0.902981  0.922771  0  0.799997  0
Rb  Rb3  1  0.83417913  0.58698385  0.50440085  1  0  0.970345  0  0.558008  0  0  0.932801  0  0.783804  0  0  0.946284  0  0.761078  0  0.908108  0  0.902967  0.922764  0  0.800009  0
H  H4  1  0.67911065  0.47084398  0.33350909  1  0  0.121203  0  0.956855  0  0  0.128708  0  1.01933  0  0  0.132881  0  1.016765  0  0.123865  0  0.114793  0.125685  0  1.021231  0
H  H5  1  0.17911420  0.52915649  0.66649093  1  0  0.121158  0  0.956883  0  0  0.128692  0  1.019328  0  0  0.132863  0  1.016764  0  0.123896  0  0.114792  0.125668  0  1.02123  0
H  H6  1  0.69180859  0.50163418  0.21349069  1  0  0.094429  0  0.977648  0  0  0.102178  0  1.04498  0  0  0.104211  0  1.045417  0  0.096288  0  0.102792  0.100693  0  1.044776  0
H  H7  1  0.19180926  0.49836630  0.78650982  1  0  0.094405  0  0.977631  0  0  0.102184  0  1.044934  0  0  0.104218  0  1.045371  0  0.095481  0  0.102788  0.1007  0  1.044729  0
H  H8  1  0.98156356  0.17451822  0.14564638  1  0  0.118152  0  0.942973  0  0  0.124188  0  1.007052  0  0  0.127931  0  1.004505  0  0.117963  0  0.110715  0.121498  0  1.008951  0
H  H9  1  0.48156567  0.82548312  0.85435375  1  0  0.118136  0  0.943013  0  0  0.1242  0  1.007058  0  0  0.127946  0  1.004513  0  0.117931  0  0.110716  0.121509  0  1.008956  0
H  H10  1  0.97071330  0.14415167  0.26515516  1  0  0.102411  0  0.960111  0  0  0.111758  0  1.024187  0  0  0.114277  0  1.023857  0  0.108664  0  0.106085  0.109909  0  1.024602  0
H  H11  1  0.47071541  0.85585054  0.73484508  1  0  0.102408  0  0.960057  0  0  0.11176  0  1.024133  0  0  0.114278  0  1.023803  0  0.108633  0  0.106098  0.109909  0  1.024546  0
H  H12  1  0.35654175  0.25268148  0.30746219  1  0  0.11915  0  0.927929  0  0  0.130955  0  0.982464  0  0  0.134967  0  0.980226  0  0.130448  0  0.117786  0.128045  0  0.984197  0
H  H13  1  0.85653965  0.74732073  0.69253455  1  0  0.119173  0  0.927862  0  0  0.130973  0  0.982404  0  0  0.134983  0  0.980172  0  0.130359  0  0.117792  0.128063  0  0.984137  0
H  H14  1  0.33979473  0.25706350  0.18228438  1  0  0.09886  0  0.963652  0  0  0.106035  0  1.031635  0  0  0.108699  0  1.030631  0  0.099226  0  0.106221  0.104121  0  1.032413  0
H  H15  1  0.83979406  0.74293698  0.81771363  1  0  0.098886  0  0.963647  0  0  0.106056  0  1.031627  0  0  0.108722  0  1.030618  0  0.099177  0  0.106214  0.104143  0  1.032404  0
H  H16  1  0.62789901  0.92826209  0.12864222  1  0  0.110583  0  0.943703  0  0  0.118279  0  1.006274  0  0  0.12173  0  1.00385  0  0.106542  0  0.110221  0.115771  0  1.008135  0
H  H17  1  0.12790112  0.07173752  0.87135717  1  0  0.110592  0  0.943741  0  0  0.118318  0  1.006281  0  0  0.121771  0  1.003854  0  0.106551  0  0.110227  0.11581  0  1.008142  0
H  H18  1  0.66137580  0.92833399  0.25402637  1  0  0.105327  0  0.956265  0  0  0.115133  0  1.017835  0  0  0.117437  0  1.018268  0  0.100519  0  0.107621  0.113424  0  1.017687  0
H  H19  1  0.16137791  0.07166561  0.74597403  1  0  0.105303  0  0.956289  0  0  0.115115  0  1.017845  0  0  0.117417  0  1.018279  0  0.100408  0  0.107611  0.11341  0  1.017686  0
H  H20  1  0.93206876  0.29489715  0.00837556  1  0  0.404248  0  0.891759  0  0  0.372991  0  0.967501  0  0  0.386258  0  0.948885  0  0.663312  0  0.305351  0.363697  0  0.979148  0
H  H21  1  0.43207087  0.70510333  0.99162495  1  0  0.404374  0  0.891581  0  0  0.373013  0  0.967482  0  0  0.386276  0  0.948874  0  0.663308  0  0.305389  0.363718  0  0.979173  0
H  H22  1  0.55368556  0.03040814  0.98255466  1  0  0.401986  0  0.890345  0  0  0.370352  0  0.969413  0  0  0.383559  0  0.951821  0  0.666243  0  0.304937  0.361097  0  0.979187  0
H  H23  1  0.05368336  0.96958974  0.01744400  1  0  0.401981  0  0.890371  0  0  0.370346  0  0.969427  0  0  0.383555  0  0.951829  0  0.666253  0  0.304934  0.36109  0  0.979208  0
H  H24  1  0.37779079  0.34687922  0.72628304  1  0  0.107189  0  0.95643  0  0  0.117549  0  1.017325  0  0  0.12034  0  1.016738  0  0.102439  0  0.108561  0.115514  0  1.017873  0
H  H25  1  0.87779299  0.65311953  0.27371725  1  0  0.107142  0  0.956491  0  0  0.11751  0  1.017391  0  0  0.120301  0  1.016803  0  0.102416  0  0.108554  0.115477  0  1.017936  0
H  H26  1  0.37896122  0.32795719  0.84857172  1  0  0.118427  0  0.943282  0  0  0.123794  0  1.008928  0  0  0.127531  0  1.006366  0  0.110186  0  0.110732  0.121097  0  1.01087  0
H  H27  1  0.87896343  0.67204328  0.15142829  1  0  0.118333  0  0.943311  0  0  0.123696  0  1.00898  0  0  0.127433  0  1.006419  0  0.110206  0  0.110699  0.120998  0  1.010925  0
H  H28  1  0.66448882  0.99845403  0.78673333  1  0  0.095047  0  0.982232  0  0  0.102671  0  1.04921  0  0  0.10479  0  1.049443  0  0.113334  0  0.103246  0.101127  0  1.049166  0
H  H29  1  0.16448805  0.00154644  0.21326718  1  0  0.095051  0  0.982222  0  0  0.10268  0  1.049192  0  0  0.104798  0  1.049424  0  0.113336  0  0.103248  0.101136  0  1.049148  0
H  H30  1  0.66510423  0.01797943  0.66418895  1  0  0.113543  0  0.942051  0  0  0.121182  0  1.005226  0  0  0.125193  0  1.002492  0  0.118955  0  0.115989  0.118248  0  1.007326  0
H  H31  1  0.16510490  0.98202018  0.33581195  1  0  0.113553  0  0.942055  0  0  0.121191  0  1.005236  0  0  0.125202  0  1.002502  0  0.118954  0  0.115988  0.118258  0  1.007336  0
H  H32  1  0.68176211  0.56275194  0.73672718  1  0  0.10845  0  0.953763  0  0  0.118539  0  1.014066  0  0  0.12102  0  1.014391  0  0.109541  0  0.107993  0.116748  0  1.013932  0
H  H33  1  0.18176278  0.43724767  0.26327322  1  0  0.108431  0  0.953791  0  0  0.11852  0  1.014092  0  0  0.121002  0  1.014417  0  0.109518  0  0.107978  0.116729  0  1.013959  0
H  H34  1  0.72277628  0.57412456  0.86327224  1  0  0.108323  0  0.948019  0  0  0.11593  0  1.012262  0  0  0.119218  0  1.009972  0  0.095042  0  0.10938  0.11357  0  1.013966  0
H  H35  1  0.22277551  0.42587505  0.13672816  1  0  0.108329  0  0.94799  0  0  0.115938  0  1.012238  0  0  0.119225  0  1.009948  0  0.095026  0  0.109385  0.113578  0  1.013941  0
H  H36  1  0.01694545  0.24700254  0.81725117  1  0  0.0999  0  0.963501  0  0  0.107433  0  1.030545  0  0  0.110248  0  1.029369  0  0.110937  0  0.106614  0.105432  0  1.031414  0
H  H37  1  0.51694766  0.75299534  0.18274950  1  0  0.099862  0  0.963559  0  0  0.107432  0  1.030555  0  0  0.110247  0  1.029377  0  0.110817  0  0.106617  0.105431  0  1.031422  0
H  H38  1  0.98990903  0.23839012  0.69137281  1  0  0.120151  0  0.933844  0  0  0.128847  0  0.994797  0  0  0.132689  0  0.992614  0  0.109076  0  0.11631  0.126094  0  0.996397  0
H  H39  1  0.48991114  0.76160776  0.30862736  1  0  0.120175  0  0.933847  0  0  0.128877  0  0.994786  0  0  0.132718  0  0.992608  0  0.10928  0  0.116321  0.126125  0  0.996385  0
H  H40  1  0.43895257  0.21561889  0.99004216  1  0  0.404882  0  0.891739  0  0  0.373065  0  0.967971  0  0  0.386486  0  0.949153  0  0.666755  0  0.304852  0.363683  0  0.980089  0
H  H41  1  0.93895190  0.78438072  0.00995773  1  0  0.404862  0  0.891752  0  0  0.37304  0  0.968003  0  0  0.386461  0  0.949185  0  0.666741  0  0.304839  0.36366  0  0.980105  0
H  H42  1  0.80137239  0.47707999  0.01353627  1  0  0.402843  0  0.878979  0  0  0.371784  0  0.957971  0  0  0.384972  0  0.943677  0  0.675729  0  0.306431  0.362542  0  0.967885  0
H  H43  1  0.30137306  0.52292048  0.98646475  1  0  0.402841  0  0.879001  0  0  0.371777  0  0.957987  0  0  0.384963  0  0.943706  0  0.675739  0  0.306439  0.362534  0  0.967902  0
C  C44  1  0.82653822  0.30610863  0.30559254  1  0  -0.093693  0  3.712344  0  0  -0.064427  0  3.946752  0  0  -0.068483  0  3.967205  0  -0.246263  0  -0.005764  -0.06181  0  3.933119  0
C  C45  1  0.32654033  0.69389185  0.69440798  1  0  -0.093716  0  3.712354  0  0  -0.064462  0  3.946781  0  0  -0.068515  0  3.967231  0  -0.246181  0  -0.005772  -0.061845  0  3.933148  0
C  C46  1  0.74670552  0.40715228  0.29229355  1  0  -0.058329  0  3.695184  0  0  -0.082174  0  3.943228  0  0  -0.082925  0  3.961017  0  0.011045  0  -0.075208  -0.081688  0  3.931346  0
C  C47  1  0.24670907  0.59284906  0.70770708  1  0  -0.05833  0  3.69534  0  0  -0.082192  0  3.943378  0  0  -0.082945  0  3.961172  0  0.010984  0  -0.075233  -0.081706  0  3.931496  0
C  C48  1  0.75362605  0.42406957  0.22552676  1  0  -0.057201  0  3.705887  0  0  -0.081593  0  3.956671  0  0  -0.081899  0  3.978151  0  -0.029364  0  -0.076636  -0.081231  0  3.942077  0
C  C49  1  0.25362529  0.57593091  0.77447326  1  0  -0.057143  0  3.705867  0  0  -0.08156  0  3.956663  0  0  -0.081866  0  3.978142  0  -0.028534  0  -0.076602  -0.081196  0  3.942066  0
C  C50  1  0.83818507  0.34088838  0.17262603  1  0  -0.07715  0  3.761871  0  0  -0.056471  0  3.997982  0  0  -0.065011  0  4.022198  0  0.018199  0  -0.015236  -0.050829  0  3.981607  0
C  C51  1  0.33818430  0.65911296  0.82737460  1  0  -0.07711  0  3.761667  0  0  -0.056444  0  3.997794  0  0  -0.06498  0  4.022005  0  0.01822  0  -0.015221  -0.050804  0  3.981418  0
C  C52  1  0.91718092  0.23963074  0.18684321  1  0  -0.063577  0  3.698593  0  0  -0.088141  0  3.951928  0  0  -0.088763  0  3.972516  0  -0.080372  0  -0.076839  -0.087545  0  3.937926  0
C  C53  1  0.41718159  0.76037061  0.81315792  1  0  -0.063608  0  3.698553  0  0  -0.088191  0  3.951872  0  0  -0.088821  0  3.972465  0  -0.080408  0  -0.076869  -0.087595  0  3.937872  0
C  C54  1  0.91211957  0.22265801  0.25347942  1  0  -0.068214  0  3.742742  0  0  -0.090665  0  3.990717  0  0  -0.092401  0  4.012545  0  0.02257  0  -0.081733  -0.0895  0  3.976052  0
C  C55  1  0.41212168  0.77734333  0.74652122  1  0  -0.06817  0  3.742611  0  0  -0.090629  0  3.990616  0  0  -0.092361  0  4.012441  0  0.022604  0  -0.081721  -0.089459  0  3.975944  0
C  C56  1  0.51342197  0.09118282  0.28676367  1  0  -0.110955  0  3.745338  0  0  -0.085046  0  3.985621  0  0  -0.090063  0  4.007366  0  -0.170422  0  -0.01192  -0.081748  0  3.971038  0
C  C57  1  0.01342120  0.90881939  0.71323557  1  0  -0.110965  0  3.745501  0  0  -0.085067  0  3.985767  0  0  -0.090084  0  4.007513  0  -0.170238  0  -0.011934  -0.081769  0  3.971185  0
C  C58  1  0.41827869  0.18333163  0.26803972  1  0  -0.077392  0  3.738852  0  0  -0.098755  0  3.987281  0  0  -0.100263  0  4.00689  0  -0.10512  0  -0.080019  -0.097756  0  3.974158  0
C  C59  1  0.91827802  0.81667144  0.73195814  1  0  -0.077498  0  3.739097  0  0  -0.098844  0  3.98752  0  0  -0.100354  0  4.007135  0  -0.105269  0  -0.080064  -0.097845  0  3.974396  0
C  C60  1  0.40718399  0.18503575  0.19875489  1  0  -0.050908  0  3.712678  0  0  -0.076312  0  3.964984  0  0  -0.076432  0  3.985795  0  0.021861  0  -0.072458  -0.076088  0  3.950915  0
C  C61  1  0.90718476  0.81496473  0.80124262  1  0  -0.050875  0  3.712772  0  0  -0.076294  0  3.965035  0  0  -0.076414  0  3.985847  0  0.02188  0  -0.07239  -0.076068  0  3.950967  0
C  C62  1  0.48586638  0.09444638  0.14885512  1  0  -0.068616  0  3.754919  0  0  -0.048392  0  3.991328  0  0  -0.055834  0  4.013432  0  0.008384  0  -0.012086  -0.043537  0  3.976444  0
C  C63  1  0.98587002  0.90555323  0.85114378  1  0  -0.068541  0  3.754856  0  0  -0.048231  0  3.991183  0  0  -0.055673  0  4.013288  0  0.008215  0  -0.012093  -0.043387  0  3.976318  0
C  C64  1  0.57258366  0.99970505  0.16815897  1  0  -0.049618  0  3.686201  0  0  -0.077934  0  3.941819  0  0  -0.077829  0  3.960954  0  -0.00824  0  -0.072976  -0.077875  0  3.928825  0
C  C65  1  0.07258577  0.00029456  0.83183993  1  0  -0.049636  0  3.686269  0  0  -0.077993  0  3.941844  0  0  -0.077887  0  3.960978  0  -0.008047  0  -0.072944  -0.077929  0  3.92885  0
C  C66  1  0.58905748  0.99890887  0.23745361  1  0  -0.069471  0  3.731595  0  0  -0.091334  0  3.983047  0  0  -0.092971  0  4.004679  0  -0.042484  0  -0.08082  -0.090171  0  3.968435  0
C  C67  1  0.08905815  0.00109247  0.76254602  1  0  -0.069492  0  3.731662  0  0  -0.09136  0  3.98314  0  0  -0.092997  0  4.004774  0  -0.04232  0  -0.080843  -0.090197  0  3.968529  0
C  C68  1  0.84687563  0.36159336  0.10192277  1  0  0.655632  0  3.817237  0  0  0.602807  0  4.12017  0  0  0.636893  0  4.111147  0  1.526892  0  0.237906  0.579655  0  4.125797  0
C  C69  1  0.34687631  0.63840798  0.89807836  1  0  0.655629  0  3.817306  0  0  0.602837  0  4.120182  0  0  0.636921  0  4.11116  0  1.527103  0  0.237913  0.579687  0  4.125806  0
C  C70  1  0.48266565  0.10445796  0.07617043  1  0  0.668368  0  3.794246  0  0  0.614568  0  4.09493  0  0  0.648995  0  4.085065  0  1.520001  0  0.243284  0.59122  0  4.101099  0
C  C71  1  0.98266786  0.89553992  0.92382824  1  0  0.66857  0  3.794018  0  0  0.614693  0  4.094763  0  0  0.64912  0  4.084897  0  1.519999  0  0.243393  0.591348  0  4.100932  0
C  C72  1  0.52196874  0.18399439  0.68926198  1  0  -0.092887  0  3.710646  0  0  -0.066135  0  3.949021  0  0  -0.070149  0  3.969283  0  -0.289589  0  -0.005306  -0.063559  0  3.93556  0
C  C73  1  0.02196941  0.81600435  0.31073831  1  0  -0.092897  0  3.710682  0  0  -0.066097  0  3.949013  0  0  -0.07011  0  3.969271  0  -0.289613  0  -0.005281  -0.063518  0  3.93555  0
C  C74  1  0.44094548  0.27140078  0.74029709  1  0  -0.072182  0  3.742469  0  0  -0.094739  0  3.990513  0  0  -0.096421  0  4.011793  0  -0.01048  0  -0.081293  -0.093608  0  3.976242  0
C  C75  1  0.94094625  0.72859710  0.25970308  1  0  -0.072122  0  3.742513  0  0  -0.094727  0  3.990578  0  0  -0.096409  0  4.011857  0  -0.010511  0  -0.08128  -0.093597  0  3.976306  0
C  C76  1  0.44140560  0.26036864  0.80823228  1  0  -0.060354  0  3.697139  0  0  -0.085149  0  3.950964  0  0  -0.085492  0  3.971229  0  0.021826  0  -0.07569  -0.084765  0  3.937226  0
C  C77  1  0.94140493  0.73963097  0.19176862  1  0  -0.060208  0  3.69708  0  0  -0.084988  0  3.950894  0  0  -0.08533  0  3.971159  0  0.021821  0  -0.075659  -0.084604  0  3.937157  0
C  C78  1  0.52121961  0.16106202  0.82446094  1  0  -0.077242  0  3.766438  0  0  -0.056484  0  4.001813  0  0  -0.064989  0  4.02565  0  -0.020082  0  -0.015859  -0.050886  0  3.985678  0
C  C79  1  0.02121740  0.83893759  0.17553945  1  0  -0.077319  0  3.766415  0  0  -0.05656  0  4.001781  0  0  -0.065065  0  4.025618  0  -0.020053  0  -0.01587  -0.050962  0  3.985644  0
C  C80  1  0.60229607  0.07422049  0.77270429  1  0  -0.060561  0  3.716557  0  0  -0.084356  0  3.965928  0  0  -0.084692  0  3.987433  0  -0.084047  0  -0.076857  -0.083981  0  3.951328  0
C  C81  1  0.10229530  0.92577998  0.22729623  1  0  -0.06055  0  3.716513  0  0  -0.084345  0  3.96588  0  0  -0.084679  0  3.987384  0  -0.084014  0  -0.076866  -0.083969  0  3.95128  0
C  C82  1  0.60344206  0.08514954  0.70484192  1  0  -0.05368  0  3.701129  0  0  -0.078187  0  3.954132  0  0  -0.078944  0  3.972338  0  0.075562  0  -0.073803  -0.077742  0  3.942024  0
C  C83  1  0.10343986  0.91484920  0.29515886  1  0  -0.053734  0  3.701159  0  0  -0.078252  0  3.954146  0  0  -0.07901  0  3.972353  0  0.075581  0  -0.073812  -0.077807  0  3.942038  0
C  C84  1  0.83416763  0.40086516  0.70767862  1  0  -0.101111  0  3.724375  0  0  -0.072249  0  3.959508  0  0  -0.077107  0  3.980857  0  -0.196619  0  -0.009619  -0.069098  0  3.945239  0
C  C85  1  0.33416830  0.59913532  0.29232190  1  0  -0.101144  0  3.724432  0  0  -0.072252  0  3.959542  0  0  -0.07711  0  3.980891  0  -0.196594  0  -0.009631  -0.069098  0  3.945268  0
C  C86  1  0.75933732  0.49573518  0.75511485  1  0  -0.073282  0  3.730292  0  0  -0.095812  0  3.980211  0  0  -0.097329  0  4.001488  0  -0.058283  0  -0.080321  -0.094745  0  3.965818  0
C  C87  1  0.25933656  0.50426356  0.24488543  1  0  -0.073291  0  3.730223  0  0  -0.095822  0  3.980134  0  0  -0.097339  0  4.001407  0  -0.058257  0  -0.080314  -0.094755  0  3.965741  0
C  C88  1  0.77918011  0.50081028  0.82529214  1  0  -0.049691  0  3.683957  0  0  -0.078053  0  3.940306  0  0  -0.078272  0  3.960222  0  0.063836  0  -0.073002  -0.077791  0  3.926798  0
C  C89  1  0.27917790  0.49919106  0.17470749  1  0  -0.049644  0  3.683923  0  0  -0.078039  0  3.940263  0  0  -0.078259  0  3.96018  0  0.063858  0  -0.072997  -0.077774  0  3.926756  0
C  C90  1  0.86896008  0.40961793  0.84722437  1  0  -0.067548  0  3.753489  0  0  -0.047468  0  3.990081  0  0  -0.054814  0  4.012259  0  -0.069861  0  -0.010387  -0.042629  0  3.975125  0
C  C91  1  0.36896075  0.59038255  0.15277665  1  0  -0.067664  0  3.75353  0  0  -0.047493  0  3.990037  0  0  -0.05484  0  4.012215  0  -0.069866  0  -0.010426  -0.042663  0  3.975095  0
C  C92  1  0.94779345  0.31657591  0.79884504  1  0  -0.057184  0  3.716056  0  0  -0.082516  0  3.967534  0  0  -0.083164  0  3.988467  0  0.008021  0  -0.074463  -0.081975  0  3.953409  0
C  C93  1  0.44779555  0.68342370  0.20115586  1  0  -0.057071  0  3.716052  0  0  -0.082445  0  3.967505  0  0  -0.083093  0  3.988437  0  0.008151  0  -0.074445  -0.0819  0  3.953379  0
C  C94  1  0.93281789  0.31203622  0.72902528  1  0  -0.065881  0  3.723069  0  0  -0.086544  0  3.969745  0  0  -0.087809  0  3.989661  0  -0.029112  0  -0.07579  -0.0857  0  3.95646  0
C  C95  1  0.43281857  0.68796253  0.27097600  1  0  -0.065956  0  3.723105  0  0  -0.086648  0  3.96981  0  0  -0.087914  0  3.989726  0  -0.029351  0  -0.075825  -0.085806  0  3.956525  0
C  C96  1  0.51545945  0.14436912  0.89590777  1  0  0.657373  0  3.814966  0  0  0.604778  0  4.116185  0  0  0.639024  0  4.106985  0  1.517261  0  0.239718  0.581559  0  4.121888  0
C  C97  1  0.01546012  0.85563309  0.10409248  1  0  0.657408  0  3.814924  0  0  0.604825  0  4.11613  0  0  0.639068  0  4.106935  0  1.517269  0  0.239731  0.581606  0  4.121832  0
C  C98  1  0.87585329  0.40329874  0.92061035  1  0  0.670855  0  3.788396  0  0  0.616979  0  4.089568  0  0  0.651396  0  4.079666  0  1.53069  0  0.245595  0.59361  0  4.095802  0
C  C99  1  0.37585540  0.59670346  0.07939039  1  0  0.670891  0  3.78842  0  0  0.616949  0  4.089644  0  0  0.65137  0  4.079738  0  1.530435  0  0.245631  0.593583  0  4.095875  0
S  S100  1  0.82328141  0.28351846  0.39105560  1  0  1.258555  0  5.509455  0  0  1.176382  0  6.013037  0  0  1.221384  0  5.995162  0  2.982511  0  0.535449  1.145382  0  6.02436  0
S  S101  1  0.32328496  0.71648201  0.60894392  1  0  1.258602  0  5.509447  0  0  1.17645  0  6.013025  0  0  1.221452  0  5.995152  0  2.982286  0  0.535477  1.14545  0  6.024349  0
S  S102  1  0.55868796  0.09707489  0.37503945  1  0  1.262576  0  5.503057  0  0  1.181015  0  6.010078  0  0  1.226526  0  5.9908  0  2.985609  0  0.556193  1.149651  0  6.022456  0
S  S103  1  0.05869007  0.90292385  0.62495883  1  0  1.262753  0  5.502914  0  0  1.181223  0  6.009913  0  0  1.226733  0  5.990632  0  2.985624  0  0.556281  1.149859  0  6.022294  0
S  S104  1  0.52488045  0.20146787  0.60305878  1  0  1.263995  0  5.511329  0  0  1.181021  0  6.016204  0  0  1.226181  0  5.997352  0  3.005135  0  0.541213  1.149901  0  6.028302  0
S  S105  1  0.02487969  0.79853087  0.39694100  1  0  1.263978  0  5.511371  0  0  1.180991  0  6.016238  0  0  1.226154  0  5.997387  0  3.005175  0  0.541177  1.149871  0  6.028337  0
S  S106  1  0.79246902  0.38546053  0.61795742  1  0  1.233626  0  5.533914  0  0  1.152498  0  6.039634  0  0  1.197526  0  6.021724  0  2.988669  0  0.529738  1.121507  0  6.050971  0
S  S107  1  0.29246682  0.61453821  0.38204336  1  0  1.233793  0  5.533947  0  0  1.152658  0  6.039652  0  0  1.197689  0  6.02174  0  2.988639  0  0.529765  1.121667  0  6.05099  0
N  N108  1  0.77070523  0.15135973  0.38738980  1  0  -0.774353  0  2.907366  0  0  -0.725545  0  3.221572  0  0  -0.750337  0  3.218229  0  -1.543719  0  -0.440318  -0.70813  0  3.223066  0
N  N109  1  0.27070734  0.84863988  0.61260960  1  0  -0.774458  0  2.907382  0  0  -0.725678  0  3.221595  0  0  -0.75047  0  3.218251  0  -1.543767  0  -0.440371  -0.708264  0  3.223091  0
N  N110  1  0.73077809  0.25324028  0.59048407  1  0  -0.794462  0  2.952426  0  0  -0.745333  0  3.271981  0  0  -0.769685  0  3.267398  0  -1.569095  0  -0.473112  -0.728254  0  3.274372  0
N  N111  1  0.23077733  0.74675846  0.40951671  1  0  -0.794509  0  2.95247  0  0  -0.745365  0  3.272019  0  0  -0.769718  0  3.267434  0  -1.569063  0  -0.473085  -0.728286  0  3.274411  0
O  O112  1  0.02125047  0.29664978  0.41521980  1  0  -0.673907  0  2.008855  0  0  -0.635561  0  2.276616  0  0  -0.656167  0  2.264634  0  -1.327527  0  -0.433502  -0.620903  0  2.284233  0
O  O113  1  0.52125268  0.70334983  0.58478060  1  0  -0.673877  0  2.008869  0  0  -0.635538  0  2.276637  0  0  -0.656139  0  2.264643  0  -1.327318  0  -0.433507  -0.62088  0  2.284254  0
O  O114  1  0.68616203  0.36741525  0.42883376  1  0  -0.709623  0  2.048001  0  0  -0.667959  0  2.321299  0  0  -0.68786  0  2.308535  0  -1.346439  0  -0.464104  -0.653982  0  2.329654  0
O  O115  1  0.18616557  0.63258349  0.57116552  1  0  -0.709638  0  2.048005  0  0  -0.667965  0  2.321267  0  0  -0.687866  0  2.308504  0  -1.346407  0  -0.464111  -0.653987  0  2.329623  0
O  O116  1  0.57370233  0.97802629  0.38203807  1  0  -0.637111  0  1.950313  0  0  -0.599335  0  2.208722  0  0  -0.618764  0  2.195639  0  -1.325769  0  -0.384503  -0.585634  0  2.217242  0
O  O117  1  0.07370300  0.02197332  0.61796032  1  0  -0.637164  0  1.95026  0  0  -0.599402  0  2.208669  0  0  -0.618831  0  2.195586  0  -1.325758  0  -0.384557  -0.585702  0  2.217189  0
O  O118  1  0.40804528  0.16803530  0.41430387  1  0  -0.673473  0  1.992692  0  0  -0.634679  0  2.255979  0  0  -0.653853  0  2.242893  0  -1.330683  0  -0.388722  -0.621248  0  2.264582  0
O  O119  1  0.90804892  0.83196345  0.58569591  1  0  -0.673535  0  1.992738  0  0  -0.634753  0  2.256028  0  0  -0.653927  0  2.242942  0  -1.330685  0  -0.388732  -0.62132  0  2.264626  0
O  O120  1  0.79114761  0.45450109  0.08872144  1  0  -0.568217  0  1.970845  0  0  -0.519827  0  2.186417  0  0  -0.542549  0  2.177352  0  -1.16428  0  -0.284104  -0.504246  0  2.192339  0
O  O121  1  0.29114684  0.54550025  0.91127919  1  0  -0.568191  0  1.970887  0  0  -0.519814  0  2.186445  0  0  -0.542532  0  2.177388  0  -1.1645  0  -0.284086  -0.504234  0  2.192366  0
O  O122  1  0.92115954  0.27464701  0.05617602  1  0  -0.527998  0  2.088346  0  0  -0.478298  0  2.299572  0  0  -0.500078  0  2.280946  0  -1.16814  0  -0.319293  -0.463174  0  2.310967  0
O  O123  1  0.42116021  0.72535347  0.94382499  1  0  -0.528138  0  2.088343  0  0  -0.478394  0  2.299653  0  0  -0.500171  0  2.281026  0  -1.168124  0  -0.319354  -0.46327  0  2.311082  0
O  O124  1  0.42075329  0.19449459  0.06092015  1  0  -0.557365  0  1.980781  0  0  -0.507618  0  2.190714  0  0  -0.529693  0  2.179363  0  -1.155477  0  -0.281966  -0.492558  0  2.198021  0
O  O125  1  0.92075406  0.80550242  0.93907790  1  0  -0.55751  0  1.980736  0  0  -0.507739  0  2.190708  0  0  -0.529812  0  2.179353  0  -1.155492  0  -0.282044  -0.492682  0  2.198016  0
O  O126  1  0.55281421  0.01475833  0.03155342  1  0  -0.524314  0  2.080122  0  0  -0.474179  0  2.2901  0  0  -0.495848  0  2.271953  0  -1.174822  0  -0.317091  -0.459162  0  2.300251  0
O  O127  1  0.05281200  0.98523868  0.96844563  1  0  -0.524406  0  2.080088  0  0  -0.474254  0  2.290097  0  0  -0.495931  0  2.271953  0  -1.174759  0  -0.317123  -0.459235  0  2.300249  0
O  O128  1  0.51852214  0.08643001  0.55864382  1  0  -0.661719  0  2.000918  0  0  -0.62279  0  2.264407  0  0  -0.642037  0  2.250603  0  -1.337362  0  -0.421798  -0.60923  0  2.27344  0
O  O129  1  0.01852137  0.91356873  0.44135696  1  0  -0.661683  0  2.000926  0  0  -0.62277  0  2.264435  0  0  -0.642019  0  2.250635  0  -1.337401  0  -0.421792  -0.60921  0  2.273467  0
O  O130  1  0.36430776  0.27812108  0.59773785  1  0  -0.684749  0  2.013969  0  0  -0.640489  0  2.274858  0  0  -0.660749  0  2.263363  0  -1.334502  0  -0.431204  -0.626232  0  2.282302  0
O  O131  1  0.86430853  0.72187766  0.40226143  1  0  -0.684755  0  2.014032  0  0  -0.640494  0  2.274917  0  0  -0.660752  0  2.263422  0  -1.334536  0  -0.431191  -0.626237  0  2.282363  0
O  O132  1  0.97760651  0.39676297  0.58570980  1  0  -0.661227  0  1.984985  0  0  -0.625655  0  2.251267  0  0  -0.645445  0  2.238734  0  -1.326787  0  -0.389183  -0.611638  0  2.259356  0
O  O133  1  0.47760718  0.60323577  0.41429098  1  0  -0.661295  0  1.984942  0  0  -0.625717  0  2.251221  0  0  -0.645508  0  2.238686  0  -1.326749  0  -0.389188  -0.611702  0  2.259311  0
O  O134  1  0.64689632  0.47038135  0.61081501  1  0  -0.658512  0  1.991501  0  0  -0.618553  0  2.249072  0  0  -0.63871  0  2.238685  0  -1.320235  0  -0.379047  -0.604363  0  2.255651  0
O  O135  1  0.14689555  0.52961739  0.38918427  1  0  -0.658554  0  1.991497  0  0  -0.618605  0  2.249047  0  0  -0.638769  0  2.238678  0  -1.320284  0  -0.379075  -0.604413  0  2.255627  0
O  O136  1  0.56567607  0.05056731  0.90943360  1  0  -0.565815  0  1.982756  0  0  -0.516381  0  2.197484  0  0  -0.53932  0  2.187904  0  -1.157978  0  -0.284044  -0.500671  0  2.203228  0
O  O137  1  0.06567818  0.94943056  0.09056657  1  0  -0.565781  0  1.982782  0  0  -0.516362  0  2.197513  0  0  -0.539301  0  2.187931  0  -1.157991  0  -0.284041  -0.500652  0  2.203259  0
O  O138  1  0.45040387  0.23423595  0.94158961  1  0  -0.526801  0  2.086435  0  0  -0.476478  0  2.296843  0  0  -0.49834  0  2.278339  0  -1.175908  0  -0.31685  -0.46134  0  2.308444  0
O  O139  1  0.95040176  0.76576452  0.05841041  1  0  -0.52678  0  2.086402  0  0  -0.476455  0  2.296818  0  0  -0.498316  0  2.278315  0  -1.175884  0  -0.316828  -0.461316  0  2.308407  0
O  O140  1  0.94712052  0.31667554  0.93706035  1  0  -0.557806  0  1.979173  0  0  -0.508302  0  2.18904  0  0  -0.530307  0  2.17767  0  -1.154863  0  -0.282255  -0.49326  0  2.196292  0
O  O141  1  0.44712406  0.68332580  0.06294128  1  0  -0.557783  0  1.979168  0  0  -0.508219  0  2.189094  0  0  -0.530222  0  2.177725  0  -1.154654  0  -0.282233  -0.493176  0  2.196352  0
O  O142  1  0.79877701  0.49163993  0.96459348  1  0  -0.519195  0  2.075029  0  0  -0.469818  0  2.284739  0  0  -0.49143  0  2.269289  0  -1.18764  0  -0.315899  -0.454833  0  2.294961  0
O  O143  1  0.29877768  0.50836141  0.03540765  1  0  -0.519226  0  2.075068  0  0  -0.469827  0  2.284808  0  0  -0.491442  0  2.269354  0  -1.187592  0  -0.315927  -0.454843  0  2.295031  0
