# generated using pymatgen
data_LiH7C7O4
_symmetry_space_group_name_H-M   'P 1'
_cell_length_a   4.61113507
_cell_length_b   12.75961487
_cell_length_c   13.15823434
_cell_angle_alpha   107.61017274
_cell_angle_beta   89.99988183
_cell_angle_gamma   89.99988944
_symmetry_Int_Tables_number   1
_chemical_formula_structural   LiH7C7O4
_chemical_formula_sum   'Li4 H28 C28 O16'
_cell_volume   737.90141063
_cell_formula_units_Z   4
loop_
 _symmetry_equiv_pos_site_id
 _symmetry_equiv_pos_as_xyz
  1  'x, y, z'
loop_
 _atom_site_type_symbol
 _atom_site_label
 _atom_site_symmetry_multiplicity
 _atom_site_fract_x
 _atom_site_fract_y
 _atom_site_fract_z
 _atom_site_occupancy
 _atom_site_hle17_bader_spin_density
 _atom_site_hle17_ddec_charge
 _atom_site_hle17_ddec_spin_density
 _atom_site_hle17_ddec_sum_bond_order
 _atom_site_hle17_magmom
 _atom_site_hse06_10hf_bader_spin_density
 _atom_site_hse06_10hf_ddec_charge
 _atom_site_hse06_10hf_ddec_spin_density
 _atom_site_hse06_10hf_ddec_sum_bond_order
 _atom_site_hse06_10hf_magmom
 _atom_site_hse06_bader_spin_density
 _atom_site_hse06_ddec_charge
 _atom_site_hse06_ddec_spin_density
 _atom_site_hse06_ddec_sum_bond_order
 _atom_site_hse06_magmom
 _atom_site_pbe_bader_spin_density
 _atom_site_pbe_cm5_charge
 _atom_site_pbe_ddec_charge
 _atom_site_pbe_ddec_spin_density
 _atom_site_pbe_ddec_sum_bond_order
 _atom_site_pbe_magmom
Li  Li0  1  0.97346809  0.84889117  0.50060255  1  0  0.852908  0  0.402213  0  0  0.815132  0  0.503148  0  0  0.824749  0  0.485821  0  0  0.519771  0.808125  0  0.515656  0
Li  Li1  1  0.52653607  0.34888861  0.50060191  1  0  0.852918  0  0.402195  0  0  0.815119  0  0.503162  0  0  0.824739  0  0.485834  0  0  0.519771  0.808122  0  0.515677  0
Li  Li2  1  0.02653823  0.15111093  0.49939654  1  0  0.852932  0  0.402187  0  0  0.815136  0  0.503148  0  0  0.824756  0  0.485817  0  0  0.519769  0.808136  0  0.515661  0
Li  Li3  1  0.47346375  0.65110937  0.49939748  1  0  0.852937  0  0.402184  0  0  0.815136  0  0.503158  0  0  0.824759  0  0.485825  0  0  0.519763  0.808135  0  0.515679  0
H  H4  1  0.57367133  0.08606854  0.21879975  1  0  0.09381  0  0.953299  0  0  0.103776  0  1.015965  0  0  0.107346  0  1.012911  0  0  0.107082  0.101152  0  1.018215  0
H  H5  1  0.92633372  0.58606866  0.21880351  1  0  0.093862  0  0.953236  0  0  0.103801  0  1.015925  0  0  0.107368  0  1.012877  0  0  0.107079  0.101178  0  1.018172  0
H  H6  1  0.42633717  0.91393192  0.78119582  1  0  0.093859  0  0.953256  0  0  0.103802  0  1.01594  0  0  0.107393  0  1.012857  0  0  0.107091  0.10118  0  1.018189  0
H  H7  1  0.07367261  0.41392930  0.78119892  1  0  0.093841  0  0.953244  0  0  0.103775  0  1.015952  0  0  0.107351  0  1.012876  0  0  0.10708  0.101155  0  1.018197  0
H  H8  1  0.10213532  0.71767356  0.10917421  1  0  0.109234  0  0.951325  0  0  0.121816  0  1.01043  0  0  0.124858  0  1.009486  0  0  0.105473  0.11965  0  1.011239  0
H  H9  1  0.39785776  0.21767227  0.10917140  1  0  0.109216  0  0.951228  0  0  0.121783  0  1.01038  0  0  0.124822  0  1.009435  0  0  0.105458  0.11962  0  1.011188  0
H  H10  1  0.89785799  0.28232935  0.89082816  1  0  0.109218  0  0.951238  0  0  0.121784  0  1.010382  0  0  0.124822  0  1.009437  0  0  0.105464  0.119622  0  1.01119  0
H  H11  1  0.60213556  0.78232406  0.89082751  1  0  0.109206  0  0.951276  0  0  0.121785  0  1.010424  0  0  0.124821  0  1.009482  0  0  0.105457  0.119622  0  1.011231  0
H  H12  1  0.23750524  0.03465052  0.06264475  1  0  0.084914  0  0.976833  0  0  0.094549  0  1.042393  0  0  0.09714  0  1.042097  0  0  0.09535  0.092716  0  1.042694  0
H  H13  1  0.26249343  0.53465164  0.06264740  1  0  0.084959  0  0.976759  0  0  0.09456  0  1.042363  0  0  0.097151  0  1.042066  0  0  0.095352  0.092729  0  1.042659  0
H  H14  1  0.76249675  0.96534912  0.93735210  1  0  0.084933  0  0.97684  0  0  0.094561  0  1.042404  0  0  0.097153  0  1.042109  0  0  0.095332  0.092725  0  1.042708  0
H  H15  1  0.73750423  0.46534633  0.93735428  1  0  0.08493  0  0.976871  0  0  0.094553  0  1.042437  0  0  0.097144  0  1.042142  0  0  0.095343  0.09272  0  1.042737  0
H  H16  1  0.99756555  0.85059696  0.01083072  1  0  0.078064  0  0.980583  0  0  0.089351  0  1.043396  0  0  0.091505  0  1.042583  0  0  0.096501  0.087754  0  1.044033  0
H  H17  1  0.50242848  0.35059608  0.01082983  1  0  0.078066  0  0.98059  0  0  0.089372  0  1.043385  0  0  0.091508  0  1.042596  0  0  0.096504  0.087778  0  1.044021  0
H  H18  1  0.00243427  0.14940430  0.98916965  1  0  0.078041  0  0.980602  0  0  0.089343  0  1.0434  0  0  0.091488  0  1.042598  0  0  0.096494  0.087748  0  1.044034  0
H  H19  1  0.49756484  0.64940190  0.98917032  1  0  0.07802  0  0.980613  0  0  0.089328  0  1.043407  0  0  0.091462  0  1.042616  0  0  0.096464  0.087736  0  1.044041  0
H  H20  1  0.00225684  0.65000616  0.40382206  1  0  0.428274  0  0.882401  0  0  0.397905  0  0.945965  0  0  0.408242  0  0.93093  0  0  0.30604  0.390649  0  0.956508  0
H  H21  1  0.49774788  0.15000888  0.40382112  1  0  0.428324  0  0.882334  0  0  0.397946  0  0.945916  0  0  0.408282  0  0.930881  0  0  0.306062  0.390692  0  0.956456  0
H  H22  1  0.99774732  0.34999264  0.59617758  1  0  0.428312  0  0.882355  0  0  0.397934  0  0.945937  0  0  0.40827  0  0.930902  0  0  0.306056  0.390678  0  0.95648  0
H  H23  1  0.50225845  0.84999322  0.59617722  1  0  0.428276  0  0.882399  0  0  0.39791  0  0.945958  0  0  0.408246  0  0.930925  0  0  0.306049  0.390653  0  0.956502  0
H  H24  1  0.24880783  0.71128789  0.35662131  1  0  0.425539  0  0.876224  0  0  0.396198  0  0.937952  0  0  0.406101  0  0.923376  0  0  0.308861  0.389239  0  0.948177  0
H  H25  1  0.25119034  0.21128757  0.35662117  1  0  0.425548  0  0.876208  0  0  0.3962  0  0.937946  0  0  0.406102  0  0.923373  0  0  0.308866  0.389246  0  0.948163  0
H  H26  1  0.75118983  0.28871338  0.64337830  1  0  0.425579  0  0.876173  0  0  0.396226  0  0.937918  0  0  0.406129  0  0.923341  0  0  0.308881  0.389269  0  0.948142  0
H  H27  1  0.74880731  0.78871123  0.64337695  1  0  0.42555  0  0.876209  0  0  0.39621  0  0.937932  0  0  0.406109  0  0.923363  0  0  0.308874  0.389249  0  0.948161  0
H  H28  1  0.63229031  0.78945932  0.32027761  1  0  0.380164  0  0.913548  0  0  0.352419  0  0.985505  0  0  0.364715  0  0.972957  0  0  0.310579  0.343832  0  0.994135  0
H  H29  1  0.86770222  0.28945724  0.32027610  1  0  0.380221  0  0.913401  0  0  0.352447  0  0.98541  0  0  0.364739  0  0.972869  0  0  0.310582  0.343863  0  0.994036  0
H  H30  1  0.36770734  0.21054194  0.67972352  1  0  0.380233  0  0.913423  0  0  0.352447  0  0.985442  0  0  0.36474  0  0.972903  0  0  0.3106  0.343864  0  0.994069  0
H  H31  1  0.13228893  0.71054156  0.67972429  1  0  0.380202  0  0.913509  0  0  0.352407  0  0.985538  0  0  0.364717  0  0.972956  0  0  0.310582  0.34381  0  0.99419  0
C  C32  1  0.40321460  0.82532668  0.21720629  1  0  0.334762  0  3.787915  0  0  0.317245  0  4.048403  0  0  0.331366  0  4.064252  0  0  0.093205  0.307755  0  4.037527  0
C  C33  1  0.09677944  0.32532405  0.21720481  1  0  0.334461  0  3.788176  0  0  0.317063  0  4.048539  0  0  0.331184  0  4.064388  0  0  0.093157  0.307569  0  4.03767  0
C  C34  1  0.59678305  0.17467623  0.78279533  1  0  0.334519  0  3.788147  0  0  0.317108  0  4.048511  0  0  0.331232  0  4.06436  0  0  0.093177  0.307617  0  4.037639  0
C  C35  1  0.90321604  0.67467228  0.78279485  1  0  0.334723  0  3.787896  0  0  0.317208  0  4.048395  0  0  0.331318  0  4.064253  0  0  0.093251  0.307713  0  4.037522  0
C  C36  1  0.71215947  0.96435057  0.34882933  1  0  0.720798  0  3.856731  0  0  0.670424  0  4.152077  0  0  0.705583  0  4.140988  0  0  0.242272  0.646588  0  4.159093  0
C  C37  1  0.78784064  0.46434691  0.34883045  1  0  0.720854  0  3.856845  0  0  0.670509  0  4.152173  0  0  0.70567  0  4.141081  0  0  0.242338  0.646675  0  4.159191  0
C  C38  1  0.28784902  0.03565399  0.65117050  1  0  0.720809  0  3.856913  0  0  0.670419  0  4.15231  0  0  0.70558  0  4.141223  0  0  0.242321  0.646581  0  4.15933  0
C  C39  1  0.21216352  0.53564941  0.65117073  1  0  0.720806  0  3.856741  0  0  0.67039  0  4.15214  0  0  0.705549  0  4.141055  0  0  0.242226  0.646568  0  4.159143  0
C  C40  1  0.52666972  0.93205716  0.25201210  1  0  -0.230436  0  3.76461  0  0  -0.212469  0  4.002223  0  0  -0.226632  0  4.026011  0  0  -0.034476  -0.203271  0  3.986292  0
C  C41  1  0.97332896  0.43205496  0.25201277  1  0  -0.230512  0  3.764853  0  0  -0.212597  0  4.002461  0  0  -0.226763  0  4.02625  0  0  -0.034525  -0.203397  0  3.986535  0
C  C42  1  0.47333227  0.06794576  0.74798724  1  0  -0.230531  0  3.764918  0  0  -0.212618  0  4.002539  0  0  -0.226784  0  4.026333  0  0  -0.034546  -0.203414  0  3.98661  0
C  C43  1  0.02666869  0.56794219  0.74798790  1  0  -0.230482  0  3.764595  0  0  -0.212499  0  4.002213  0  0  -0.226663  0  4.026007  0  0  -0.034485  -0.203296  0  3.986284  0
C  C44  1  0.20671667  0.79802161  0.13212461  1  0  -0.199423  0  3.736963  0  0  -0.218515  0  3.991444  0  0  -0.226355  0  4.011223  0  0  -0.106107  -0.213458  0  3.978171  0
C  C45  1  0.29328019  0.29801961  0.13212166  1  0  -0.199217  0  3.73677  0  0  -0.218367  0  3.991273  0  0  -0.2262  0  4.011044  0  0  -0.106115  -0.213309  0  3.978001  0
C  C46  1  0.79328098  0.20198047  0.86787753  1  0  -0.199266  0  3.736793  0  0  -0.2184  0  3.991271  0  0  -0.226233  0  4.011042  0  0  -0.106115  -0.213352  0  3.978005  0
C  C47  1  0.70671963  0.70197837  0.86787774  1  0  -0.199247  0  3.736807  0  0  -0.218381  0  3.991354  0  0  -0.226214  0  4.011127  0  0  -0.106082  -0.213325  0  3.97808  0
C  C48  1  0.46638133  0.00609817  0.19464514  1  0  -0.032763  0  3.757064  0  0  -0.057644  0  4.007922  0  0  -0.053381  0  4.026777  0  0  -0.079363  -0.060117  0  3.995078  0
C  C49  1  0.03362105  0.50609706  0.19464729  1  0  -0.032755  0  3.757028  0  0  -0.05762  0  4.007891  0  0  -0.053354  0  4.026747  0  0  -0.079341  -0.060092  0  3.995041  0
C  C50  1  0.53362500  0.99390311  0.80535219  1  0  -0.032757  0  3.75711  0  0  -0.057619  0  4.007973  0  0  -0.053367  0  4.026826  0  0  -0.07935  -0.060103  0  3.995137  0
C  C51  1  0.96638311  0.49390091  0.80535362  1  0  -0.032724  0  3.756902  0  0  -0.05758  0  4.007736  0  0  -0.053312  0  4.0266  0  0  -0.079332  -0.060058  0  3.994903  0
C  C52  1  0.14802609  0.87364120  0.07771133  1  0  -0.025355  0  3.781013  0  0  -0.040418  0  4.030222  0  0  -0.0377  0  4.051129  0  0  -0.085017  -0.041819  0  4.01583  0
C  C53  1  0.35197286  0.37363996  0.07771009  1  0  -0.025441  0  3.781043  0  0  -0.040512  0  4.030256  0  0  -0.037781  0  4.051179  0  0  -0.085035  -0.041919  0  4.015863  0
C  C54  1  0.85197590  0.12636006  0.92228904  1  0  -0.025368  0  3.78097  0  0  -0.040441  0  4.030192  0  0  -0.037715  0  4.051102  0  0  -0.085001  -0.041845  0  4.015797  0
C  C55  1  0.64802480  0.62635883  0.92229183  1  0  -0.025389  0  3.780949  0  0  -0.040447  0  4.03016  0  0  -0.037711  0  4.051072  0  0  -0.084989  -0.041852  0  4.015766  0
C  C56  1  0.28088239  0.97715617  0.10732526  1  0  -0.111914  0  3.79116  0  0  -0.128884  0  4.05051  0  0  -0.135337  0  4.073099  0  0  -0.106463  -0.124743  0  4.035168  0
C  C57  1  0.21911801  0.47715423  0.10732694  1  0  -0.111895  0  3.791061  0  0  -0.128831  0  4.050419  0  0  -0.135283  0  4.073003  0  0  -0.106446  -0.124684  0  4.035066  0
C  C58  1  0.71912177  0.02284511  0.89267283  1  0  -0.11188  0  3.791118  0  0  -0.128836  0  4.050452  0  0  -0.135293  0  4.073048  0  0  -0.10643  -0.124682  0  4.035098  0
C  C59  1  0.78088398  0.52284292  0.89267525  1  0  -0.11197  0  3.791107  0  0  -0.128928  0  4.05045  0  0  -0.135384  0  4.073036  0  0  -0.106481  -0.124782  0  4.035102  0
O  O60  1  0.16297845  0.70582046  0.42391664  1  0  -0.944707  0  1.809489  0  0  -0.900183  0  1.987516  0  0  -0.916382  0  1.955381  0  0  -0.68087  -0.888764  0  2.009955  0
O  O61  1  0.33702586  0.20582088  0.42391665  1  0  -0.944756  0  1.809441  0  0  -0.900238  0  1.987503  0  0  -0.916436  0  1.955369  0  0  -0.680881  -0.888822  0  2.009935  0
O  O62  1  0.83702571  0.29417998  0.57608273  1  0  -0.94478  0  1.809437  0  0  -0.900249  0  1.98749  0  0  -0.916448  0  1.955354  0  0  -0.680887  -0.888828  0  2.009929  0
O  O63  1  0.66297830  0.79417875  0.57608247  1  0  -0.944732  0  1.809529  0  0  -0.900216  0  1.987564  0  0  -0.916416  0  1.955435  0  0  -0.68089  -0.888796  0  2.010005  0
O  O64  1  0.80122441  0.88719865  0.38543360  1  0  -0.713176  0  1.992482  0  0  -0.663153  0  2.225392  0  0  -0.685594  0  2.210448  0  0  -0.380102  -0.647704  0  2.235377  0
O  O65  1  0.69876722  0.38719345  0.38543205  1  0  -0.713145  0  1.992491  0  0  -0.663115  0  2.225422  0  0  -0.685555  0  2.210476  0  0  -0.380131  -0.647672  0  2.235414  0
O  O66  1  0.19877758  0.11280673  0.61456647  1  0  -0.713112  0  1.992419  0  0  -0.663083  0  2.225409  0  0  -0.685518  0  2.210453  0  0  -0.3801  -0.647623  0  2.235367  0
O  O67  1  0.30122609  0.61280206  0.61456661  1  0  -0.713182  0  1.992499  0  0  -0.663125  0  2.225462  0  0  -0.685578  0  2.210513  0  0  -0.380087  -0.647673  0  2.235453  0
O  O68  1  0.47605356  0.74879403  0.26582199  1  0  -0.538382  0  2.125838  0  0  -0.478169  0  2.336959  0  0  -0.498989  0  2.32712  0  0  -0.336338  -0.463342  0  2.343118  0
O  O69  1  0.02393844  0.24879148  0.26581983  1  0  -0.538303  0  2.125891  0  0  -0.478074  0  2.336973  0  0  -0.498895  0  2.327144  0  0  -0.336243  -0.463237  0  2.343109  0
O  O70  1  0.52394192  0.25120970  0.73417987  1  0  -0.538391  0  2.125898  0  0  -0.478124  0  2.336963  0  0  -0.498957  0  2.327142  0  0  -0.336314  -0.463295  0  2.343104  0
O  O71  1  0.97604837  0.75120567  0.73418084  1  0  -0.538443  0  2.125827  0  0  -0.478178  0  2.336968  0  0  -0.498986  0  2.327094  0  0  -0.336373  -0.463336  0  2.343126  0
O  O72  1  0.77062455  0.06531812  0.39315143  1  0  -0.712341  0  1.988359  0  0  -0.659382  0  2.219166  0  0  -0.681238  0  2.203819  0  0  -0.376412  -0.644269  0  2.229442  0
O  O73  1  0.72938175  0.56531514  0.39315972  1  0  -0.712386  0  1.988456  0  0  -0.659442  0  2.219262  0  0  -0.681299  0  2.203913  0  0  -0.376433  -0.644323  0  2.229539  0
O  O74  1  0.22938612  0.93468647  0.60684157  1  0  -0.712327  0  1.988474  0  0  -0.659378  0  2.219294  0  0  -0.681235  0  2.203948  0  0  -0.376436  -0.64426  0  2.229566  0
O  O75  1  0.27062891  0.43468116  0.60684754  1  0  -0.712336  0  1.988342  0  0  -0.659362  0  2.21917  0  0  -0.681219  0  2.203822  0  0  -0.376384  -0.644253  0  2.229448  0
