# generated using pymatgen
data_Gd2Cu3P6H24C30(NO3)6
_symmetry_space_group_name_H-M   'P 1'
_cell_length_a   10.19892286
_cell_length_b   11.36254435
_cell_length_c   11.36285808
_cell_angle_alpha   111.45179683
_cell_angle_beta   107.41400757
_cell_angle_gamma   107.39996817
_symmetry_Int_Tables_number   1
_chemical_formula_structural   Gd2Cu3P6H24C30(NO3)6
_chemical_formula_sum   'Gd2 Cu3 P6 H24 C30 N6 O18'
_cell_volume   1038.34788845
_cell_formula_units_Z   1
loop_
 _symmetry_equiv_pos_site_id
 _symmetry_equiv_pos_as_xyz
  1  'x, y, z'
loop_
 _atom_site_type_symbol
 _atom_site_label
 _atom_site_symmetry_multiplicity
 _atom_site_fract_x
 _atom_site_fract_y
 _atom_site_fract_z
 _atom_site_occupancy
 _atom_site_pbe_cm5_charge
 _atom_site_pbe_ddec_charge
 _atom_site_pbe_ddec_spin_density
 _atom_site_pbe_ddec_sum_bond_order
 _atom_site_pbe_magmom
Gd  Gd0  1  0.99999535  0.99999920  0.99999795  1  1.538466  2.209791  0.000542  2.336466  0.0
Gd  Gd1  1  0.50000180  0.99999928  0.99999947  1  1.54331  2.22048  0.001573  2.311177  0.002
Cu  Cu2  1  0.99999938  0.00000085  0.50000338  1  0.768698  0.75773  0.723767  2.298005  0.564
Cu  Cu3  1  0.99999765  0.50000320  0.99999887  1  0.767933  0.756158  0.723747  2.298445  0.564
Cu  Cu4  1  0.49999372  0.49999374  0.49999577  1  0.767661  0.756891  0.723763  2.299732  0.564
P  P5  1  0.15823260  0.98564317  0.75172013  1  0.345443  1.279665  0.006216  5.526625  0.004
P  P6  1  0.17262592  0.76610511  0.01436024  1  0.34571  1.280043  0.006206  5.525771  0.004
P  P7  1  0.40648166  0.24828336  0.23388457  1  0.347224  1.28449  0.006212  5.523554  0.004
P  P8  1  0.84176789  0.01435604  0.24828272  1  0.345467  1.279671  0.006215  5.526606  0.004
P  P9  1  0.82737521  0.23390155  0.98564023  1  0.345754  1.280151  0.006206  5.525368  0.004
P  P10  1  0.59351252  0.75170733  0.76610819  1  0.347043  1.284192  0.006212  5.52402  0.004
H  H11  1  0.02323416  0.68612483  0.70852550  1  0.120961  0.133498  0.000822  1.00043  0.001
H  H12  1  0.33716793  0.02246172  0.31391000  1  0.120678  0.133003  0.000823  1.000338  0.001
H  H13  1  0.31449748  0.29149929  0.97753824  1  0.120779  0.133183  0.000823  1.000617  0.001
H  H14  1  0.97676781  0.31387118  0.29147658  1  0.120958  0.133475  0.000822  1.000524  0.001
H  H15  1  0.66284043  0.97754707  0.68609406  1  0.120708  0.133095  0.000823  1.000303  0.001
H  H16  1  0.68550350  0.70849885  0.02245467  1  0.120791  0.133179  0.000823  1.000635  0.001
H  H17  1  0.82721163  0.45325132  0.48136026  1  0.112459  0.112547  -3.9e-05  0.996586  0.0
H  H18  1  0.37397122  0.02814239  0.54678629  1  0.11222  0.112112  -3.9e-05  0.997245  0.0
H  H19  1  0.34583033  0.51872309  0.97187997  1  0.112332  0.112424  -3.9e-05  0.997249  0.0
H  H20  1  0.17278886  0.54674788  0.51863906  1  0.112445  0.112497  -3.9e-05  0.996535  0.0
H  H21  1  0.62603243  0.97186107  0.45321544  1  0.1122  0.11214  -3.9e-05  0.997247  0.0
H  H22  1  0.65417020  0.48127824  0.02811927  1  0.112319  0.112365  -3.9e-05  0.997298  0.0
H  H23  1  0.71518664  0.45591737  0.25609744  1  0.117498  0.1308  0.000708  0.990506  0.001
H  H24  1  0.25935263  0.80021402  0.54410345  1  0.117513  0.131289  0.000707  0.990333  0.001
H  H25  1  0.45929721  0.74398837  0.19987786  1  0.117749  0.132127  0.000707  0.990589  0.001
H  H26  1  0.28481441  0.54408502  0.74390496  1  0.1175  0.130837  0.000708  0.990506  0.001
H  H27  1  0.74064481  0.19978731  0.45589232  1  0.117537  0.131379  0.000707  0.990253  0.001
H  H28  1  0.54069860  0.25600764  0.80012520  1  0.117722  0.132087  0.000707  0.990622  0.001
H  H29  1  0.78291659  0.69622602  0.26833743  1  0.120983  0.102474  0.000831  1.004907  0.002
H  H30  1  0.08674632  0.57221520  0.30378799  1  0.121096  0.102725  0.000831  1.004902  0.002
H  H31  1  0.51456052  0.73161845  0.42784336  1  0.121138  0.102612  0.000831  1.005653  0.002
H  H32  1  0.21707936  0.30377851  0.73166790  1  0.120989  0.102473  0.000831  1.005004  0.002
H  H33  1  0.91324550  0.42778720  0.69620666  1  0.121087  0.102786  0.000831  1.004926  0.002
H  H34  1  0.48542897  0.26836904  0.57215489  1  0.121148  0.102682  0.000832  1.00568  0.002
C  C35  1  0.00656663  0.80904044  0.60406907  1  0.112232  -0.029028  -0.002414  3.926565  -0.001
C  C36  1  0.19764251  0.79510988  0.19100110  1  0.112356  -0.030059  -0.00241  3.926393  -0.001
C  C37  1  0.40238878  0.39590733  0.20489286  1  0.112475  -0.028834  -0.002411  3.925264  -0.001
C  C38  1  0.99343283  0.19095876  0.39593174  1  0.112249  -0.029022  -0.002414  3.926534  -0.001
C  C39  1  0.80235657  0.20489677  0.80899793  1  0.112492  -0.029851  -0.002411  3.926163  -0.001
C  C40  1  0.59760749  0.60408548  0.79510035  1  0.112533  -0.028674  -0.002411  3.925296  -0.001
C  C41  1  0.96827740  0.68226497  0.60795006  1  -0.064179  -0.097548  0.002844  3.924764  0.003
C  C42  1  0.28610558  0.92575416  0.31778087  1  -0.062901  -0.095139  0.002844  3.923191  0.003
C  C43  1  0.36012271  0.39206970  0.07424929  1  -0.06449  -0.098533  0.002846  3.925495  0.003
C  C44  1  0.03172621  0.31773636  0.39205353  1  -0.064152  -0.097538  0.002844  3.924882  0.003
C  C45  1  0.71389707  0.07425143  0.68222049  1  -0.062986  -0.09531  0.002843  3.923408  0.003
C  C46  1  0.63987618  0.60792630  0.92574316  1  -0.064484  -0.098531  0.002845  3.925512  0.003
C  C47  1  0.86064658  0.55421645  0.48248601  1  -0.060042  -0.031633  -0.00468  3.950091  -0.002
C  C48  1  0.30648854  0.92832931  0.44581485  1  -0.060618  -0.03265  -0.004677  3.951387  -0.002
C  C49  1  0.37811989  0.51759099  0.07171203  1  -0.059675  -0.030183  -0.004679  3.954421  -0.002
C  C50  1  0.13935444  0.44578381  0.51751737  1  -0.060007  -0.031497  -0.00468  3.950063  -0.002
C  C51  1  0.69351305  0.07167415  0.55418545  1  -0.060586  -0.032637  -0.004678  3.951434  -0.002
C  C52  1  0.62187699  0.48240715  0.92828506  1  -0.059727  -0.030248  -0.004679  3.954429  -0.002
C  C53  1  0.79514905  0.55517090  0.35607887  1  -0.075083  -0.114194  0.004087  3.939376  0.005
C  C54  1  0.24010917  0.80097356  0.44485919  1  -0.074904  -0.114113  0.004088  3.940116  0.005
C  C55  1  0.43922975  0.64397962  0.19910799  1  -0.075474  -0.117119  0.00409  3.94556  0.005
C  C56  1  0.20484995  0.44483149  0.64392299  1  -0.075163  -0.114331  0.004087  3.939384  0.005
C  C57  1  0.75988781  0.19903096  0.55513851  1  -0.074955  -0.114276  0.004088  3.940223  0.005
C  C58  1  0.56076499  0.35601425  0.80089225  1  -0.075364  -0.116953  0.004091  3.945433  0.005
C  C59  1  0.83303454  0.68544904  0.36061757  1  0.047731  0.095316  -0.000494  3.912637  0.0
C  C60  1  0.14766886  0.67526462  0.31457233  1  0.047713  0.094138  -0.00049  3.91437  0.0
C  C61  1  0.47239913  0.63935244  0.32479553  1  0.04865  0.096607  -0.000496  3.914496  0.0
C  C62  1  0.16696595  0.31455016  0.63938440  1  0.047797  0.095355  -0.000495  3.912653  0.0
C  C63  1  0.85232915  0.32473991  0.68542388  1  0.04773  0.094133  -0.00049  3.914563  0.0
C  C64  1  0.52759246  0.36063718  0.67519878  1  0.0486  0.096479  -0.000496  3.91452  0.0
N  N65  1  0.93579684  0.80875770  0.48247219  1  -0.344863  -0.235455  0.060472  3.671662  0.079
N  N66  1  0.12710284  0.67379604  0.19125259  1  -0.344889  -0.234416  0.060473  3.670867  0.079
N  N67  1  0.45325090  0.51747981  0.32622915  1  -0.345745  -0.236488  0.060495  3.671364  0.079
N  N68  1  0.06420007  0.19124256  0.51753273  1  -0.344896  -0.235439  0.060472  3.671654  0.079
N  N69  1  0.87289163  0.32621168  0.80874559  1  -0.344922  -0.234532  0.060473  3.670832  0.079
N  N70  1  0.54673807  0.48250661  0.67376241  1  -0.345761  -0.236507  0.060495  3.671454  0.079
O  O71  1  0.09628231  0.04116773  0.85521647  1  -0.472253  -0.871494  0.00186  2.280493  0.003
O  O72  1  0.05515910  0.81407957  0.95879710  1  -0.472319  -0.871815  0.001864  2.281144  0.003
O  O73  1  0.24108542  0.14473563  0.18590512  1  -0.472703  -0.873159  0.001862  2.281099  0.003
O  O74  1  0.90371920  0.95883148  0.14478665  1  -0.472259  -0.871484  0.00186  2.280434  0.003
O  O75  1  0.94483991  0.18592283  0.04119948  1  -0.472357  -0.871881  0.001864  2.281064  0.003
O  O76  1  0.75890822  0.85525398  0.81408446  1  -0.472668  -0.873163  0.001861  2.281279  0.003
O  O77  1  0.30057499  0.96803971  0.81397277  1  -0.467233  -0.858187  0.007619  2.263187  0.01
O  O78  1  0.33253957  0.84594237  0.03194842  1  -0.467858  -0.858712  0.007625  2.261971  0.01
O  O79  1  0.48653672  0.18603827  0.15399865  1  -0.468573  -0.860396  0.007622  2.261667  0.01
O  O80  1  0.69942657  0.03196162  0.18603203  1  -0.467225  -0.858196  0.007619  2.263203  0.01
O  O81  1  0.66746050  0.15406215  0.96805186  1  -0.467878  -0.858762  0.007624  2.261924  0.01
O  O82  1  0.51346217  0.81395773  0.84599733  1  -0.468564  -0.860332  0.007622  2.26166  0.01
O  O83  1  0.18199596  0.07301212  0.67550330  1  -0.391711  -0.73365  0.059917  2.317422  0.082
O  O84  1  0.10901948  0.60251766  0.92700565  1  -0.391385  -0.7328  0.059942  2.317654  0.082
O  O85  1  0.50650741  0.32450085  0.39747665  1  -0.39111  -0.733989  0.059909  2.318603  0.082
O  O86  1  0.81800404  0.92698815  0.32450068  1  -0.391711  -0.733635  0.059918  2.317399  0.082
O  O87  1  0.89098215  0.39748794  0.07299456  1  -0.391403  -0.732836  0.059938  2.317644  0.082
O  O88  1  0.49348315  0.67548877  0.60251474  1  -0.391004  -0.73385  0.059911  2.31865  0.082
