# generated using pymatgen
data_BiH13C10I2O
_symmetry_space_group_name_H-M   'P 1'
_cell_length_a   8.19910098
_cell_length_b   9.47669404
_cell_length_c   17.34527637
_cell_angle_alpha   86.85030893
_cell_angle_beta   83.29386688
_cell_angle_gamma   88.40026491
_symmetry_Int_Tables_number   1
_chemical_formula_structural   BiH13C10I2O
_chemical_formula_sum   'Bi4 H52 C40 I8 O4'
_cell_volume   1336.17728530
_cell_formula_units_Z   4
loop_
 _symmetry_equiv_pos_site_id
 _symmetry_equiv_pos_as_xyz
  1  'x, y, z'
loop_
 _atom_site_type_symbol
 _atom_site_label
 _atom_site_symmetry_multiplicity
 _atom_site_fract_x
 _atom_site_fract_y
 _atom_site_fract_z
 _atom_site_occupancy
 _atom_site_pbe_bader_spin_density
 _atom_site_pbe_cm5_charge
 _atom_site_pbe_ddec_charge
 _atom_site_pbe_ddec_spin_density
 _atom_site_pbe_ddec_sum_bond_order
 _atom_site_pbe_magmom
Bi  Bi0  1  0.05468253  0.81071341  0.23690028  1  0  0.460002  0.750459  0  2.891227  0
Bi  Bi1  1  0.94531591  0.18928367  0.76310823  1  0  0.459959  0.750421  0  2.891294  0
Bi  Bi2  1  0.05198097  0.30371061  0.26125083  1  0  0.458547  0.750388  0  2.868524  0
Bi  Bi3  1  0.94802623  0.69628446  0.73874920  1  0  0.458574  0.750435  0  2.868507  0
H  H4  1  0.11570231  0.78377131  0.48005982  1  0  0.080768  0.045555  0  1.030771  0
H  H5  1  0.88429257  0.21622477  0.51994141  1  0  0.080778  0.045553  0  1.030796  0
H  H6  1  0.10405106  0.95829827  0.43529702  1  0  0.085712  0.060254  0  1.042908  0
H  H7  1  0.89594267  0.04169570  0.56470375  1  0  0.085716  0.060224  0  1.042906  0
H  H8  1  0.38948271  0.99742768  0.44212350  1  0  0.07832  0.083758  0  1.029605  0
H  H9  1  0.61050849  0.00256946  0.55787500  1  0  0.07833  0.083763  0  1.029653  0
H  H10  1  0.35174165  0.88391796  0.52653639  1  0  0.078177  0.084608  0  1.041653  0
H  H11  1  0.64825306  0.11608447  0.47346294  1  0  0.078191  0.084599  0  1.041602  0
H  H12  1  0.49692621  0.69148167  0.46321449  1  0  0.082854  0.087972  0  1.012327  0
H  H13  1  0.50306732  0.30851863  0.53678670  1  0  0.082843  0.087948  0  1.012217  0
H  H14  1  0.57992842  0.82267139  0.39494462  1  0  0.078841  0.09012  0  1.01913  0
H  H15  1  0.42006641  0.17732681  0.60505598  1  0  0.078843  0.090143  0  1.019092  0
H  H16  1  0.42495599  0.72854989  0.30246652  1  0  0.087537  0.058493  0  1.036457  0
H  H17  1  0.57503998  0.27145149  0.69753335  1  0  0.087559  0.058515  0  1.036474  0
H  H18  1  0.32814205  0.61021579  0.37617247  1  0  0.077284  0.041476  0  1.05  0
H  H19  1  0.67185528  0.38978137  0.62382687  1  0  0.077304  0.041528  0  1.049984  0
H  H20  1  0.94371379  0.50971769  0.10236449  1  0  0.074604  0.038044  0  1.091408  0
H  H21  1  0.05628594  0.49028159  0.89763409  1  0  0.074605  0.038051  0  1.091445  0
H  H22  1  0.97393616  0.37856617  0.03080987  1  0  0.083362  0.057271  0  1.024774  0
H  H23  1  0.02606110  0.62143417  0.96918766  1  0  0.083367  0.057283  0  1.024785  0
H  H24  1  0.71869083  0.48789072  0.99765973  1  0  0.081839  0.093078  0  1.025824  0
H  H25  1  0.28130744  0.51211596  0.00233930  1  0  0.081826  0.093021  0  1.02576  0
H  H26  1  0.64908432  0.51895793  0.09649444  1  0  0.077502  0.081031  0  1.02468  0
H  H27  1  0.35091286  0.48104344  0.90350653  1  0  0.077486  0.080973  0  1.024702  0
H  H28  1  0.51000284  0.29796005  0.07803960  1  0  0.088295  0.102114  0  1.0002  0
H  H29  1  0.48999805  0.70204244  0.92195595  1  0  0.088269  0.102135  0  1.000209  0
H  H30  1  0.68758142  0.23301376  0.02032231  1  0  0.087185  0.090977  0  1.004279  0
H  H31  1  0.31241814  0.76699189  0.97967437  1  0  0.087195  0.090991  0  1.004272  0
H  H32  1  0.73835586  0.12375442  0.14465591  1  0  0.078933  0.048007  0  1.073287  0
H  H33  1  0.26163766  0.87624803  0.85534118  1  0  0.078937  0.048001  0  1.073235  0
H  H34  1  0.63879640  0.26633012  0.19629576  1  0  0.084269  0.053778  0  1.021956  0
H  H35  1  0.36119964  0.73367023  0.80370068  1  0  0.084286  0.053789  0  1.021954  0
H  H36  1  0.72467682  0.62946026  0.20702752  1  0  0.078293  0.079958  0  1.074621  0
H  H37  1  0.27532501  0.37054849  0.79297645  1  0  0.078272  0.0799  0  1.074679  0
H  H38  1  0.54782675  0.44616852  0.27870984  1  0  0.083676  0.079276  0  1.061164  0
H  H39  1  0.45217646  0.55383711  0.72128953  1  0  0.0837  0.079373  0  1.061117  0
H  H40  1  0.59845099  0.35792671  0.41104085  1  0  0.087557  0.087422  0  1.054408  0
H  H41  1  0.40155013  0.64206731  0.58895722  1  0  0.087566  0.087399  0  1.054386  0
H  H42  1  0.82653882  0.45868293  0.47397923  1  0  0.090477  0.094013  0  1.026463  0
H  H43  1  0.17346118  0.54130683  0.52602075  1  0  0.090471  0.093989  0  1.026524  0
H  H44  1  0.00258626  0.64094454  0.40339425  1  0  0.090418  0.089812  0  1.058794  0
H  H45  1  0.99741844  0.35904941  0.59661229  1  0  0.090393  0.089768  0  1.058916  0
H  H46  1  0.10224319  0.16886456  0.09340259  1  0  0.087559  0.09276  0  1.061147  0
H  H47  1  0.89776134  0.83113898  0.90659447  1  0  0.087563  0.092785  0  1.061229  0
H  H48  1  0.27874497  0.99394521  0.02165743  1  0  0.085044  0.090056  0  1.049634  0
H  H49  1  0.72126332  0.00605517  0.97834067  1  0  0.085051  0.09005  0  1.049684  0
H  H50  1  0.50636299  0.86802720  0.08320349  1  0  0.089026  0.091225  0  1.034288  0
H  H51  1  0.49364036  0.13197314  0.91679660  1  0  0.089019  0.091219  0  1.034281  0
H  H52  1  0.55754676  0.92376862  0.21657745  1  0  0.085874  0.083324  0  1.046219  0
H  H53  1  0.44245923  0.07622645  0.78342150  1  0  0.085894  0.083397  0  1.046177  0
H  H54  1  0.38168623  0.09999293  0.28926924  1  0  0.078451  0.083761  0  1.065195  0
H  H55  1  0.61832345  0.90000109  0.71073127  1  0  0.078458  0.083772  0  1.065143  0
C  C56  1  0.18238801  0.86327004  0.44025191  1  0  -0.081176  0.029793  0  3.860471  0
C  C57  1  0.81760306  0.13673025  0.55974941  1  0  -0.081141  0.029906  0  3.860388  0
C  C58  1  0.35181438  0.89066613  0.46322654  1  0  -0.176381  -0.1801  0  3.912208  0
C  C59  1  0.64817551  0.10933311  0.53677429  1  0  -0.176445  -0.180162  0  3.912238  0
C  C60  1  0.46438209  0.77739576  0.42243133  1  0  -0.172808  -0.166114  0  3.861881  0
C  C61  1  0.53561272  0.22260243  0.57757042  1  0  -0.172776  -0.166068  0  3.861773  0
C  C62  1  0.36331792  0.72090383  0.36206550  1  0  -0.083563  0.027272  0  3.831756  0
C  C63  1  0.63667814  0.27909438  0.63793446  1  0  -0.083642  0.02708  0  3.831971  0
C  C64  1  0.89018322  0.41783439  0.07975697  1  0  -0.084493  0.025304  0  3.857113  0
C  C65  1  0.10981276  0.58216700  0.92024175  1  0  -0.084473  0.025294  0  3.857139  0
C  C66  1  0.71771791  0.44451632  0.05765118  1  0  -0.177401  -0.184118  0  3.943748  0
C  C67  1  0.28227671  0.55548929  0.94234807  1  0  -0.17739  -0.18393  0  3.943576  0
C  C68  1  0.64475128  0.29683184  0.07006924  1  0  -0.171976  -0.172643  0  3.904577  0
C  C69  1  0.35524718  0.70316957  0.92992761  1  0  -0.171996  -0.172761  0  3.904606  0
C  C70  1  0.71605011  0.23842394  0.14282461  1  0  -0.083624  0.02889  0  3.847246  0
C  C71  1  0.28394831  0.76157853  0.85717223  1  0  -0.083639  0.028921  0  3.847246  0
C  C72  1  0.74807029  0.59210918  0.26550215  1  0  -0.108718  -0.087824  0  4.048993  0
C  C73  1  0.25193430  0.40789009  0.73450021  1  0  -0.108677  -0.087688  0  4.049074  0
C  C74  1  0.64900802  0.48789473  0.30555851  1  0  -0.097461  -0.07268  0  3.994042  0
C  C75  1  0.35099528  0.51210772  0.69444152  1  0  -0.097465  -0.072848  0  3.994103  0
C  C76  1  0.67699830  0.43888596  0.38040646  1  0  -0.09979  -0.09366  0  4.010432  0
C  C77  1  0.32300026  0.56111120  0.61959281  1  0  -0.099907  -0.093701  0  4.010438  0
C  C78  1  0.80385498  0.49501193  0.41539543  1  0  -0.100938  -0.084072  0  4.017865  0
C  C79  1  0.19614858  0.50498100  0.58460600  1  0  -0.100836  -0.083954  0  4.017989  0
C  C80  1  0.90322767  0.59926432  0.37545319  1  0  -0.109281  -0.094097  0  4.067459  0
C  C81  1  0.09676959  0.40073279  0.62455192  1  0  -0.109255  -0.093954  0  4.067583  0
C  C82  1  0.87654611  0.64830603  0.30008128  1  0  -0.122903  -0.220057  0  3.93946  0
C  C83  1  0.12345842  0.35169427  0.69992336  1  0  -0.122908  -0.220134  0  3.939601  0
C  C84  1  0.20325803  0.11756034  0.12062027  1  0  -0.112  -0.099114  0  4.069425  0
C  C85  1  0.79675507  0.88244321  0.87937864  1  0  -0.11203  -0.099124  0  4.069469  0
C  C86  1  0.30275402  0.01740824  0.08006891  1  0  -0.103211  -0.087765  0  4.015271  0
C  C87  1  0.69725426  0.98259213  0.91992977  1  0  -0.10318  -0.087665  0  4.015404  0
C  C88  1  0.42918297  0.94656617  0.11458398  1  0  -0.100365  -0.090395  0  4.012756  0
C  C89  1  0.57082293  0.05343208  0.88541430  1  0  -0.100353  -0.090428  0  4.012944  0
C  C90  1  0.45713606  0.97720569  0.18978823  1  0  -0.099434  -0.081234  0  4.002915  0
C  C91  1  0.54286989  0.02279044  0.81021069  1  0  -0.099413  -0.081345  0  4.002995  0
C  C92  1  0.35864896  0.07772239  0.23046796  1  0  -0.108069  -0.085379  0  4.054096  0
C  C93  1  0.64136067  0.92227375  0.76953134  1  0  -0.108145  -0.085325  0  4.053972  0
C  C94  1  0.23017787  0.14804882  0.19629225  1  0  -0.124177  -0.220768  0  3.938688  0
C  C95  1  0.76983176  0.85194840  0.80370413  1  0  -0.124172  -0.22087  0  3.938657  0
I  I96  1  0.88924716  0.83159163  0.09642017  1  0  -0.090174  -0.29064  0  1.410529  0
I  I97  1  0.11075724  0.16841290  0.90358494  1  0  -0.090162  -0.290628  0  1.410621  0
I  I98  1  0.22395627  0.28899018  0.40092875  1  0  -0.109241  -0.31369  0  1.34088  0
I  I99  1  0.77604939  0.71101655  0.59906758  1  0  -0.109267  -0.313721  0  1.340821  0
I  I100  1  0.83672609  0.04199095  0.32067254  1  0  -0.044161  -0.241349  0  1.453421  0
I  I101  1  0.16326215  0.95802202  0.67932916  1  0  -0.044145  -0.241344  0  1.453445  0
I  I102  1  0.26985878  0.54658640  0.17739535  1  0  -0.061553  -0.267861  0  1.422861  0
I  I103  1  0.73013707  0.45341813  0.82260617  1  0  -0.061559  -0.267865  0  1.422863  0
O  O104  1  0.21536918  0.80962588  0.36304166  1  0  -0.228698  -0.233834  0  2.494713  0
O  O105  1  0.78462447  0.19037018  0.63696079  1  0  -0.228699  -0.2338  0  2.494682  0
O  O106  1  0.87490412  0.30583396  0.14128470  1  0  -0.228824  -0.232871  0  2.466112  0
O  O107  1  0.12509439  0.69416533  0.85871337  1  0  -0.228768  -0.232897  0  2.466275  0
