# generated using pymatgen
data_ZnH13C16NO4F
_symmetry_space_group_name_H-M   'P 1'
_cell_length_a   9.86982159
_cell_length_b   11.07050008
_cell_length_c   24.33928530
_cell_angle_alpha   90.05277901
_cell_angle_beta   89.12791332
_cell_angle_gamma   90.35621730
_symmetry_Int_Tables_number   1
_chemical_formula_structural   ZnH13C16NO4F
_chemical_formula_sum   'Zn4 H52 C64 N4 O16 F4'
_cell_volume   2659.04392695
_cell_formula_units_Z   4
loop_
 _symmetry_equiv_pos_site_id
 _symmetry_equiv_pos_as_xyz
  1  'x, y, z'
loop_
 _atom_site_type_symbol
 _atom_site_label
 _atom_site_symmetry_multiplicity
 _atom_site_fract_x
 _atom_site_fract_y
 _atom_site_fract_z
 _atom_site_occupancy
 _atom_site_pbe_bader_charge
 _atom_site_pbe_bader_spin_density
 _atom_site_pbe_cm5_charge
 _atom_site_pbe_ddec_charge
 _atom_site_pbe_ddec_spin_density
 _atom_site_pbe_ddec_sum_bond_order
 _atom_site_pbe_magmom
Zn  Zn0  1  0.63603092  0.49153759  0.49687919  1  1.286648  0  0.672638  0.824595  0  2.363514  0
Zn  Zn1  1  0.34932857  0.49073275  0.49841527  1  1.290383  0  0.671274  0.826326  0  2.368922  0
Zn  Zn2  1  0.36600827  0.49401972  0.04237559  1  1.295666  0  0.677895  0.83084  0  2.386583  0
Zn  Zn3  1  0.65228583  0.49591791  0.05022032  1  1.288861  0  0.667728  0.824495  0  2.333841  0
H  H4  1  0.11843312  0.57977896  0.61650820  1  0.101263  0  0.107824  0.129451  0  0.992614  0
H  H5  1  0.11274566  0.70738540  0.57193958  1  0.085187  0  0.106904  0.123397  0  1.002751  0
H  H6  1  0.85557781  0.69844423  0.57580491  1  0.095423  0  0.106288  0.127952  0  1.006866  0
H  H7  1  0.86294085  0.56619955  0.61750309  1  0.121677  0  0.107516  0.140274  0  0.996997  0
H  H8  1  0.18682306  0.86725680  0.47031535  1  0.04619  0  0.091606  0.101431  0  0.990459  0
H  H9  1  0.18718836  0.87559554  0.54358794  1  0.031293  0  0.089316  0.091318  0  1.014377  0
H  H10  1  0.17963106  0.10193247  0.53920827  1  0.058934  0  0.093626  0.103992  0  0.98301  0
H  H11  1  0.18444172  0.09465917  0.46599239  1  0.023848  0  0.088089  0.092739  0  1.014671  0
H  H12  1  0.74715748  0.47546888  0.88092857  1  0.112779  0  0.114704  0.141161  0  1.003483  0
H  H13  1  0.26167150  0.48414621  0.66340231  1  0.12027  0  0.113732  0.139334  0  1.011345  0
H  H14  1  0.77321463  0.44390547  0.21770632  1  0.0633  0  0.090005  0.097982  0  1.03656  0
H  H15  1  0.80481081  0.60236379  0.21361676  1  0.038012  0  0.093688  0.104173  0  0.980012  0
H  H16  1  0.81223395  0.60841625  0.31840095  1  0.04616  0  0.09318  0.102944  0  0.98487  0
H  H17  1  0.78459005  0.44907510  0.31875614  1  0.012433  0  0.087682  0.09359  0  1.0344  0
H  H18  1  0.87157270  0.58850849  0.93064618  1  0.101919  0  0.106586  0.129091  0  0.997752  0
H  H19  1  0.88987724  0.71601641  0.97472021  1  0.096057  0  0.106262  0.122853  0  1.006666  0
H  H20  1  0.14543313  0.70071243  0.96515304  1  0.120567  0  0.106585  0.127749  0  1.003221  0
H  H21  1  0.12669578  0.56873530  0.92373623  1  0.113134  0  0.108893  0.140489  0  0.988847  0
H  H22  1  0.82479306  0.87167431  0.07279660  1  0.051667  0  0.092278  0.101971  0  0.988308  0
H  H23  1  0.82324838  0.88521118  0.99967307  1  0.052241  0  0.090068  0.092251  0  1.013094  0
H  H24  1  0.83189153  0.11128368  0.00782087  1  0.057834  0  0.094223  0.105354  0  0.983971  0
H  H25  1  0.82569305  0.09739038  0.08085072  1  0.023506  0  0.08746  0.089842  0  1.024592  0
H  H26  1  0.86605151  0.24481647  0.41860872  1  0.02215  0  0.10239  0.143602  0  0.999589  0
H  H27  1  0.74401356  0.36085802  0.41233834  1  0.096421  0  0.107869  0.169387  0  1.014195  0
H  H28  1  0.89761788  0.36410356  0.37227283  1  0.051857  0  0.098815  0.135002  0  1.013947  0
H  H29  1  0.13616658  0.37437319  0.37512735  1  0.063647  0  0.103705  0.149008  0  0.985591  0
H  H30  1  0.24817914  0.32629184  0.42682604  1  0.11329  0  0.107186  0.168734  0  1.017194  0
H  H31  1  0.09547011  0.24419212  0.41426972  1  0.045229  0  0.098238  0.133987  0  1.007309  0
H  H32  1  0.81555690  0.13889547  0.48342649  1  -0.003273  0  0.084574  0.112611  0  1.036344  0
H  H33  1  0.73647858  0.21015101  0.54024781  1  0.049956  0  0.09403  0.143091  0  1.009103  0
H  H34  1  0.81594006  0.06732184  0.54821982  1  0.013571  0  0.088774  0.121468  0  1.005904  0
H  H35  1  0.81012574  0.85388038  0.53694030  1  0.022255  0  0.088107  0.117436  0  1.021318  0
H  H36  1  0.75562639  0.78680291  0.47516783  1  0.071799  0  0.093144  0.141221  0  1.017661  0
H  H37  1  0.83237434  0.93311176  0.47446539  1  0.051595  0  0.086425  0.118661  0  1.015902  0
H  H38  1  0.15537118  0.56102391  0.33159977  1  -0.003678  0  0.084324  0.111725  0  1.019368  0
H  H39  1  0.25840373  0.63695647  0.37998125  1  0.097743  0  0.092091  0.140384  0  1.022467  0
H  H40  1  0.20068377  0.71315229  0.32037055  1  0.022843  0  0.088626  0.119918  0  1.00557  0
H  H41  1  0.19815190  0.71489059  0.23052349  1  0.039611  0  0.090488  0.124323  0  0.99653  0
H  H42  1  0.22779311  0.61030030  0.17623839  1  0.099309  0  0.0898  0.141283  0  1.056834  0
H  H43  1  0.14187992  0.56472296  0.23818307  1  0.008322  0  0.083645  0.111849  0  1.017323  0
H  H44  1  0.10962546  0.25637059  0.13387473  1  0.006673  0  0.099245  0.137433  0  0.999724  0
H  H45  1  0.26205900  0.33710147  0.11876524  1  0.110625  0  0.106771  0.170208  0  1.03341  0
H  H46  1  0.14517454  0.39219298  0.16925021  1  0.067605  0  0.103697  0.150628  0  0.987478  0
H  H47  1  0.90926895  0.35678488  0.17072777  1  0.028351  0  0.099758  0.137517  0  1.008385  0
H  H48  1  0.75687302  0.36450034  0.13219365  1  0.146907  0  0.107169  0.169571  0  1.021925  0
H  H49  1  0.87625083  0.24743985  0.11985841  1  0.058105  0  0.100944  0.141166  0  1.013771  0
H  H50  1  0.19865273  0.14356135  0.06445762  1  0.022459  0  0.086841  0.120063  0  1.023399  0
H  H51  1  0.27278916  0.20879373  0.00506783  1  0.092774  0  0.094044  0.143245  0  1.009926  0
H  H52  1  0.19081195  0.06546241  0.00110078  1  0.025732  0  0.087892  0.120737  0  1.010455  0
H  H53  1  0.20247608  0.84938998  0.00894597  1  0.006902  0  0.087777  0.117366  0  1.023089  0
H  H54  1  0.25760900  0.78710940  0.07135412  1  0.070323  0  0.092953  0.140397  0  1.01345  0
H  H55  1  0.17834428  0.93134810  0.07074975  1  0.036643  0  0.086656  0.118551  0  1.016459  0
C  C56  1  0.49683956  0.72560452  0.50421058  1  1.549543  0  0.214645  0.601242  0  4.160287  0
C  C57  1  0.49072054  0.48233153  0.60498827  1  1.582351  0  0.216099  0.610466  0  4.161596  0
C  C58  1  0.48920623  0.25682770  0.49992505  1  1.559898  0  0.216026  0.602127  0  4.161286  0
C  C59  1  0.49543008  0.53270902  0.39217553  1  1.547141  0  0.216437  0.603674  0  4.1619  0
C  C60  1  0.51261743  0.72890041  0.03838481  1  1.515857  0  0.215487  0.602625  0  4.158346  0
C  C61  1  0.51581390  0.48073933  0.93909421  1  1.585898  0  0.215619  0.610134  0  4.165581  0
C  C62  1  0.52191312  0.26038751  0.04670074  1  1.527118  0  0.216639  0.601751  0  4.160768  0
C  C63  1  0.48166025  0.53662275  0.15230398  1  1.558365  0  0.219222  0.602801  0  4.148328  0
C  C64  1  0.06125264  0.53578519  0.53109145  1  0.521673  0  0.133304  0.180928  0  3.908479  0
C  C65  1  0.92252977  0.41214296  0.45643766  1  0.44276  0  0.138863  0.226145  0  3.84155  0
C  C66  1  0.92062555  0.53385868  0.53123867  1  0.558619  0  0.134465  0.188585  0  3.90628  0
C  C67  1  0.06682314  0.41053766  0.45749572  1  0.544514  0  0.138997  0.225776  0  3.837181  0
C  C68  1  0.06877665  0.61799489  0.58057186  1  -0.005978  0  -0.139006  -0.217843  0  3.822397  0
C  C69  1  0.90777758  0.61246396  0.58173524  1  -0.091093  0  -0.141514  -0.229428  0  3.81387  0
C  C70  1  0.50366305  0.86085084  0.50397889  1  -0.015204  0  -0.016672  -0.133752  0  3.939366  0
C  C71  1  0.49841318  0.12257049  0.50559480  1  -0.045501  0  -0.016976  -0.134794  0  3.946406  0
C  C72  1  0.38357263  0.92651632  0.50501591  1  -0.065293  0  -0.01302  0.051605  0  3.937373  0
C  C73  1  0.62245828  0.05826810  0.50891880  1  -0.040016  0  -0.00167  0.094981  0  3.872855  0
C  C74  1  0.38088254  0.05215547  0.50447961  1  0.067602  0  -0.014117  0.049803  0  3.935876  0
C  C75  1  0.62563057  0.93032895  0.50421223  1  0.021181  0  -0.001186  0.096314  0  3.873145  0
C  C76  1  0.23049808  0.91455495  0.50562957  1  0.014785  0  -0.15545  -0.194318  0  3.900411  0
C  C77  1  0.22737793  0.05716484  0.50363619  1  -0.03503  0  -0.156187  -0.192444  0  3.889423  0
C  C78  1  0.42062863  0.48485612  0.84191505  1  0.462853  0  0.110372  0.240821  0  3.992084  0
C  C79  1  0.66096207  0.47907181  0.85369907  1  -0.032186  0  -0.097039  -0.214046  0  4.011967  0
C  C80  1  0.68107353  0.48072152  0.79797332  1  0.475226  0  0.095539  0.252308  0  4.066857  0
C  C81  1  0.57219637  0.48287548  0.76037985  1  0.089055  0  -0.01377  -0.104305  0  4.016155  0
C  C82  1  0.58835297  0.48181551  0.70221859  1  0.496702  0  0.109888  0.239053  0  3.992347  0
C  C83  1  0.34792762  0.48444215  0.69063091  1  0.074817  0  -0.096881  -0.211254  0  4.011862  0
C  C84  1  0.32794422  0.48626342  0.74630547  1  0.407482  0  0.094771  0.250239  0  4.068567  0
C  C85  1  0.43697987  0.48505949  0.78380173  1  0.083675  0  -0.014367  -0.104862  0  4.01777  0
C  C86  1  0.52911927  0.48121072  0.87732746  1  0.129558  0  -0.020336  -0.111101  0  3.971168  0
C  C87  1  0.47966628  0.48239617  0.66687888  1  0.076702  0  -0.020232  -0.111453  0  3.968656  0
C  C88  1  0.47643126  0.56205845  0.21312227  1  -0.059539  0  -0.017811  -0.14  0  3.922287  0
C  C89  1  0.48613323  0.56302693  0.33233308  1  0.016683  0  -0.014694  -0.126237  0  3.942505  0
C  C90  1  0.59674819  0.55298477  0.24211079  1  -0.037189  0  -0.012376  0.056137  0  3.93614  0
C  C91  1  0.36431939  0.59009618  0.30438606  1  -0.049959  0  -0.004813  0.089094  0  3.876143  0
C  C92  1  0.60168232  0.55443110  0.29924384  1  0.029239  0  -0.014881  0.047317  0  3.944475  0
C  C93  1  0.35895979  0.58937353  0.24591648  1  0.025008  0  -0.00371  0.092293  0  3.865963  0
C  C94  1  0.74751823  0.53154143  0.23563866  1  -0.019558  0  -0.159716  -0.198253  0  3.900296  0
C  C95  1  0.75321575  0.53440514  0.30025402  1  -0.031088  0  -0.159461  -0.199102  0  3.904777  0
C  C96  1  0.93883112  0.54345953  0.01448584  1  0.501909  0  0.133704  0.184967  0  3.908314  0
C  C97  1  0.08193476  0.41686638  0.08631050  1  0.47577  0  0.138034  0.227564  0  3.835364  0
C  C98  1  0.07914305  0.53781081  0.01126225  1  0.519529  0  0.132605  0.183079  0  3.909458  0
C  C99  1  0.93758371  0.41885487  0.08813887  1  0.498898  0  0.138764  0.227116  0  3.842338  0
C  C100  1  0.92842653  0.62552458  0.96518926  1  -0.061215  0  -0.140011  -0.219873  0  3.824232  0
C  C101  1  0.08884234  0.61589975  0.96046718  1  -0.059054  0  -0.140735  -0.227972  0  3.814243  0
C  C102  1  0.50720273  0.86410113  0.04014963  1  0.054734  0  -0.015419  -0.130395  0  3.939651  0
C  C103  1  0.51237244  0.12602958  0.04087924  1  -0.013909  0  -0.018092  -0.13948  0  3.946567  0
C  C104  1  0.62728964  0.93101323  0.03950023  1  0.039268  0  -0.014563  0.048835  0  3.938177  0
C  C105  1  0.38811115  0.06039917  0.03735328  1  0.036009  0  -0.001067  0.097197  0  3.867251  0
C  C106  1  0.62981207  0.05662163  0.04142570  1  -0.107271  0  -0.01303  0.052143  0  3.934226  0
C  C107  1  0.38534044  0.93221644  0.04113530  1  -0.020111  0  -0.001867  0.09417  0  3.872725  0
C  C108  1  0.78036511  0.92074702  0.03832705  1  -0.05157  0  -0.155276  -0.193644  0  3.898904  0
C  C109  1  0.78331127  0.06308950  0.04235648  1  -0.007467  0  -0.155643  -0.193859  0  3.896754  0
C  C110  1  0.85244170  0.34245879  0.41259401  1  -0.013077  0  -0.233397  -0.447064  0  3.941196  0
C  C111  1  0.14155562  0.33461259  0.41647100  1  -0.067852  0  -0.234193  -0.446238  0  3.940033  0
C  C112  1  0.75419614  0.12251032  0.52081840  1  -0.000585  0  -0.244752  -0.402089  0  3.983285  0
C  C113  1  0.76297902  0.87264000  0.49714247  1  -0.084366  0  -0.245173  -0.407381  0  3.994424  0
C  C114  1  0.23869376  0.62681667  0.33617920  1  -0.048793  0  -0.244241  -0.403219  0  3.988048  0
C  C115  1  0.22471804  0.62059008  0.22080106  1  -0.090628  0  -0.250121  -0.415937  0  3.993293  0
C  C116  1  0.15475506  0.34681021  0.12913085  1  -0.018938  0  -0.237476  -0.456151  0  3.93862  0
C  C117  1  0.86481023  0.34368739  0.13009083  1  -0.073365  0  -0.235331  -0.453424  0  3.944805  0
C  C118  1  0.25573902  0.12315362  0.02644814  1  -0.079801  0  -0.245381  -0.405474  0  3.981513  0
C  C119  1  0.24879191  0.87170776  0.04857719  1  -0.053223  0  -0.244814  -0.405448  0  3.99189  0
N  N120  1  0.13808543  0.47620350  0.49486626  1  -1.215498  0  -0.285852  -0.23657  0  3.416294  0
N  N121  1  0.84743482  0.47556222  0.49397972  1  -1.220241  0  -0.285104  -0.239518  0  3.414524  0
N  N122  1  0.86425644  0.48580336  0.05234951  1  -1.185915  0  -0.284981  -0.237128  0  3.41781  0
N  N123  1  0.15455487  0.47779191  0.04691230  1  -1.205092  0  -0.28618  -0.241033  0  3.416434  0
O  O124  1  0.60301215  0.66722736  0.51720739  1  -1.171578  0  -0.315144  -0.543035  0  2.361888  0
O  O125  1  0.38300050  0.67763338  0.49235210  1  -1.164595  0  -0.314645  -0.546058  0  2.289039  0
O  O126  1  0.38071792  0.50873649  0.58094741  1  -1.162964  0  -0.315376  -0.544892  0  2.337807  0
O  O127  1  0.60288184  0.45625209  0.58202301  1  -1.157304  0  -0.314369  -0.544685  0  2.292003  0
O  O128  1  0.37459110  0.30524213  0.50989472  1  -1.167035  0  -0.312377  -0.542699  0  2.302177  0
O  O129  1  0.59455415  0.31437533  0.48314150  1  -1.180185  0  -0.315153  -0.552904  0  2.396711  0
O  O130  1  0.61024652  0.54584721  0.41485542  1  -1.163073  0  -0.313417  -0.545577  0  2.285662  0
O  O131  1  0.38995301  0.48843135  0.41574007  1  -1.169776  0  -0.314733  -0.554234  0  2.391267  0
O  O132  1  0.40754637  0.67116344  0.02292444  1  -1.170505  0  -0.316094  -0.547597  0  2.350459  0
O  O133  1  0.62486030  0.68079665  0.05166044  1  -1.159092  0  -0.316195  -0.542819  0  2.29316  0
O  O134  1  0.62416437  0.50433159  0.96480870  1  -1.164955  0  -0.311507  -0.546961  0  2.318159  0
O  O135  1  0.40037753  0.45638743  0.96029299  1  -1.151949  0  -0.317921  -0.542937  0  2.315697  0
O  O136  1  0.63845127  0.30941368  0.04060086  1  -1.160609  0  -0.311542  -0.535394  0  2.296662  0
O  O137  1  0.41455044  0.31852002  0.05941881  1  -1.179512  0  -0.314516  -0.558091  0  2.419849  0
O  O138  1  0.37595933  0.54915374  0.12347262  1  -1.178754  0  -0.310394  -0.540677  0  2.372599  0
O  O139  1  0.59540053  0.49960350  0.13306722  1  -1.163693  0  -0.311281  -0.549535  0  2.34183  0
F  F140  1  0.19796120  0.48859259  0.76565188  1  -0.618702  0  -0.106988  -0.145715  0  1.347095  0
F  F141  1  0.29235342  0.48975522  0.86217892  1  -0.622526  0  -0.087086  -0.126034  0  1.434729  0
F  F142  1  0.81106005  0.47943752  0.77861045  1  -0.622793  0  -0.10781  -0.146962  0  1.346075  0
F  F143  1  0.71661547  0.48109819  0.68171805  1  -0.626217  0  -0.086375  -0.125564  0  1.43125  0
