# generated using pymatgen
data_AgH6C6N3O2
_symmetry_space_group_name_H-M   'P 1'
_cell_length_a   12.07489280
_cell_length_b   12.07263808
_cell_length_c   13.25692843
_cell_angle_alpha   117.12757109
_cell_angle_beta   117.10968607
_cell_angle_gamma   89.98499896
_symmetry_Int_Tables_number   1
_chemical_formula_structural   AgH6C6N3O2
_chemical_formula_sum   'Ag8 H48 C48 N24 O16'
_cell_volume   1477.52578659
_cell_formula_units_Z   8
loop_
 _symmetry_equiv_pos_site_id
 _symmetry_equiv_pos_as_xyz
  1  'x, y, z'
loop_
 _atom_site_type_symbol
 _atom_site_label
 _atom_site_symmetry_multiplicity
 _atom_site_fract_x
 _atom_site_fract_y
 _atom_site_fract_z
 _atom_site_occupancy
 _atom_site_hle17_bader_spin_density
 _atom_site_hle17_ddec_charge
 _atom_site_hle17_ddec_spin_density
 _atom_site_hle17_ddec_sum_bond_order
 _atom_site_hle17_magmom
 _atom_site_hse06_10hf_bader_spin_density
 _atom_site_hse06_10hf_ddec_charge
 _atom_site_hse06_10hf_ddec_spin_density
 _atom_site_hse06_10hf_ddec_sum_bond_order
 _atom_site_hse06_10hf_magmom
 _atom_site_hse06_bader_spin_density
 _atom_site_hse06_ddec_charge
 _atom_site_hse06_ddec_spin_density
 _atom_site_hse06_ddec_sum_bond_order
 _atom_site_hse06_magmom
 _atom_site_pbe_bader_spin_density
 _atom_site_pbe_cm5_charge
 _atom_site_pbe_ddec_charge
 _atom_site_pbe_ddec_spin_density
 _atom_site_pbe_ddec_sum_bond_order
 _atom_site_pbe_magmom
Ag  Ag0  1  0.49638189  0.58798437  0.91072132  1  0  0.579242  0  1.41587  0  0  0.441532  0  1.873215  0  0  0.477413  0  1.81819  0  0  0.449914  0.416202  0  1.911452  0
Ag  Ag1  1  0.58808337  0.41404483  0.41081008  1  0  0.579728  0  1.414566  0  0  0.442018  0  1.871403  0  0  0.47796  0  1.81639  0  0  0.449791  0.416588  0  1.909764  0
Ag  Ag2  1  0.82302501  0.49655350  0.41063865  1  0  0.579496  0  1.414709  0  0  0.441929  0  1.871915  0  0  0.477796  0  1.816902  0  0  0.449724  0.416547  0  1.910273  0
Ag  Ag3  1  0.41408312  0.82296404  0.91059611  1  0  0.579345  0  1.415412  0  0  0.441762  0  1.872535  0  0  0.477674  0  1.817465  0  0  0.449798  0.416374  0  1.910888  0
Ag  Ag4  1  0.50362203  0.41202188  0.08928187  1  0  0.579194  0  1.415894  0  0  0.441503  0  1.873228  0  0  0.477373  0  1.818224  0  0  0.449894  0.416174  0  1.911462  0
Ag  Ag5  1  0.41191242  0.58595179  0.58918719  1  0  0.57973  0  1.414595  0  0  0.44202  0  1.871432  0  0  0.47796  0  1.816419  0  0  0.449795  0.416599  0  1.909788  0
Ag  Ag6  1  0.17697401  0.50345181  0.58936134  1  0  0.579535  0  1.414744  0  0  0.441931  0  1.871984  0  0  0.477804  0  1.816954  0  0  0.449735  0.416554  0  1.910344  0
Ag  Ag7  1  0.58591566  0.17704032  0.08940112  1  0  0.579324  0  1.415453  0  0  0.441728  0  1.872601  0  0  0.47765  0  1.817519  0  0  0.449795  0.416332  0  1.910958  0
H  H8  1  0.46355567  0.65933021  0.11332654  1  0  0.280255  0  0.973742  0  0  0.254728  0  1.057317  0  0  0.264753  0  1.047345  0  0  0.285013  0.247608  0  1.064412  0
H  H9  1  0.65956318  0.64952222  0.61332644  1  0  0.281437  0  0.972027  0  0  0.255796  0  1.056343  0  0  0.265867  0  1.046257  0  0  0.285018  0.248667  0  1.063446  0
H  H10  1  0.95374083  0.46348222  0.61312164  1  0  0.280585  0  0.974118  0  0  0.255244  0  1.057511  0  0  0.265264  0  1.047543  0  0  0.285312  0.248149  0  1.064538  0
H  H11  1  0.64943216  0.95373735  0.11318396  1  0  0.280474  0  0.973263  0  0  0.254843  0  1.057451  0  0  0.26488  0  1.047432  0  0  0.284765  0.247719  0  1.064545  0
H  H12  1  0.53644307  0.34067411  0.88667745  1  0  0.280176  0  0.973799  0  0  0.254714  0  1.057326  0  0  0.264745  0  1.047348  0  0  0.285026  0.247591  0  1.064427  0
H  H13  1  0.34043396  0.35047246  0.38667133  1  0  0.281421  0  0.972049  0  0  0.25578  0  1.056363  0  0  0.265848  0  1.046284  0  0  0.285026  0.248653  0  1.063463  0
H  H14  1  0.04626115  0.53652019  0.38687838  1  0  0.280524  0  0.974177  0  0  0.255204  0  1.057555  0  0  0.265226  0  1.047585  0  0  0.285286  0.248111  0  1.064579  0
H  H15  1  0.35056422  0.04626506  0.88681598  1  0  0.280482  0  0.973249  0  0  0.254847  0  1.05746  0  0  0.264886  0  1.047431  0  0  0.284744  0.247723  0  1.064556  0
H  H16  1  0.78340146  0.69503598  0.03091912  1  0  0.079343  0  0.971458  0  0  0.084485  0  1.042823  0  0  0.087488  0  1.038536  0  0  0.115055  0.082208  0  1.045962  0
H  H17  1  0.69531288  0.24717691  0.53103620  1  0  0.0791  0  0.972643  0  0  0.084618  0  1.043476  0  0  0.087607  0  1.039224  0  0  0.115221  0.08235  0  1.046588  0
H  H18  1  0.83610202  0.78377831  0.53121451  1  0  0.078765  0  0.973163  0  0  0.084729  0  1.043478  0  0  0.087729  0  1.039176  0  0  0.115213  0.082463  0  1.046585  0
H  H19  1  0.24719118  0.83566948  0.03065713  1  0  0.078913  0  0.97471  0  0  0.084815  0  1.044891  0  0  0.087776  0  1.040691  0  0  0.115284  0.082561  0  1.048001  0
H  H20  1  0.21659887  0.30496736  0.96908738  1  0  0.079333  0  0.971569  0  0  0.084473  0  1.042921  0  0  0.087475  0  1.038632  0  0  0.115056  0.082195  0  1.046059  0
H  H21  1  0.30469197  0.75281874  0.46896068  1  0  0.079075  0  0.972689  0  0  0.084589  0  1.043527  0  0  0.087577  0  1.039277  0  0  0.115225  0.082322  0  1.04664  0
H  H22  1  0.16389884  0.21622697  0.46879000  1  0  0.078771  0  0.973143  0  0  0.084736  0  1.043461  0  0  0.087737  0  1.039161  0  0  0.115207  0.08247  0  1.046569  0
H  H23  1  0.75280927  0.16432714  0.96933982  1  0  0.078904  0  0.97475  0  0  0.084836  0  1.044894  0  0  0.087798  0  1.040692  0  0  0.115284  0.082581  0  1.048005  0
H  H24  1  0.98713798  0.81257391  0.25612600  1  0  0.105673  0  0.957925  0  0  0.117889  0  1.013184  0  0  0.121415  0  1.01274  0  0  0.104366  0.115315  0  1.013831  0
H  H25  1  0.81261421  0.26880644  0.75626095  1  0  0.104989  0  0.957863  0  0  0.117359  0  1.013125  0  0  0.12094  0  1.012614  0  0  0.104052  0.11481  0  1.013739  0
H  H26  1  0.94382566  0.98740060  0.75659501  1  0  0.105743  0  0.957382  0  0  0.117518  0  1.013205  0  0  0.12109  0  1.012694  0  0  0.103942  0.114953  0  1.013848  0
H  H27  1  0.26867723  0.94351241  0.25582921  1  0  0.105301  0  0.957305  0  0  0.11711  0  1.013161  0  0  0.12069  0  1.012654  0  0  0.104085  0.114572  0  1.013764  0
H  H28  1  0.01286049  0.18742944  0.74387898  1  0  0.10559  0  0.957956  0  0  0.117855  0  1.013178  0  0  0.121388  0  1.012726  0  0  0.104359  0.115279  0  1.013827  0
H  H29  1  0.18738436  0.73119018  0.24373673  1  0  0.104978  0  0.957798  0  0  0.117375  0  1.013033  0  0  0.120956  0  1.012521  0  0  0.104056  0.11482  0  1.013655  0
H  H30  1  0.05617840  0.01260274  0.24341079  1  0  0.105725  0  0.957432  0  0  0.117505  0  1.013241  0  0  0.121078  0  1.012728  0  0  0.103932  0.114933  0  1.013893  0
H  H31  1  0.73132244  0.05648132  0.74416697  1  0  0.105235  0  0.957317  0  0  0.117033  0  1.01319  0  0  0.120608  0  1.01268  0  0  0.104031  0.11448  0  1.013808  0
H  H32  1  0.96549692  0.86018743  0.45189277  1  0  0.069451  0  0.943803  0  0  0.07981  0  1.006854  0  0  0.082169  0  1.003559  0  0  0.112815  0.077983  0  1.009248  0
H  H33  1  0.85987167  0.48632859  0.95190480  1  0  0.069237  0  0.944633  0  0  0.079186  0  1.008088  0  0  0.081638  0  1.004706  0  0  0.112774  0.077316  0  1.010556  0
H  H34  1  0.09249820  0.96559017  0.95208240  1  0  0.069352  0  0.944838  0  0  0.079849  0  1.007622  0  0  0.082186  0  1.004393  0  0  0.112821  0.078054  0  1.00997  0
H  H35  1  0.48605616  0.09189383  0.45161921  1  0  0.06842  0  0.943349  0  0  0.078761  0  1.006624  0  0  0.081072  0  1.003365  0  0  0.112269  0.076965  0  1.009025  0
H  H36  1  0.03450088  0.13981689  0.54811232  1  0  0.06944  0  0.943818  0  0  0.079767  0  1.006894  0  0  0.082125  0  1.003596  0  0  0.112785  0.07791  0  1.009326  0
H  H37  1  0.14012732  0.51366609  0.04809375  1  0  0.069246  0  0.944674  0  0  0.079211  0  1.008098  0  0  0.081662  0  1.004716  0  0  0.112786  0.077339  0  1.010567  0
H  H38  1  0.90750019  0.03440932  0.04792092  1  0  0.069364  0  0.944824  0  0  0.079841  0  1.007638  0  0  0.082176  0  1.004407  0  0  0.112809  0.078046  0  1.009984  0
H  H39  1  0.51394155  0.90809603  0.54837679  1  0  0.068367  0  0.943384  0  0  0.078706  0  1.006664  0  0  0.081019  0  1.003406  0  0  0.112227  0.07691  0  1.009066  0
H  H40  1  0.43156327  0.73535825  0.28453514  1  0  0.092425  0  0.943753  0  0  0.10821  0  1.006085  0  0  0.108298  0  1.008419  0  0  0.111676  0.10812  0  1.004595  0
H  H41  1  0.73557745  0.85291315  0.78448764  1  0  0.091792  0  0.943973  0  0  0.107639  0  1.006265  0  0  0.107694  0  1.008577  0  0  0.1116  0.107555  0  1.004811  0
H  H42  1  0.04871510  0.43122270  0.78411102  1  0  0.091235  0  0.945002  0  0  0.107518  0  1.006916  0  0  0.107574  0  1.009282  0  0  0.111481  0.107454  0  1.005438  0
H  H43  1  0.85275091  0.04860633  0.28422769  1  0  0.09137  0  0.944392  0  0  0.107451  0  1.006704  0  0  0.107514  0  1.009044  0  0  0.111441  0.107373  0  1.005236  0
H  H44  1  0.56843521  0.26464510  0.71546909  1  0  0.092373  0  0.943792  0  0  0.108172  0  1.006136  0  0  0.108259  0  1.008467  0  0  0.111649  0.108077  0  1.004651  0
H  H45  1  0.26442433  0.14708152  0.21551208  1  0  0.091769  0  0.944039  0  0  0.107612  0  1.006325  0  0  0.107669  0  1.008637  0  0  0.111587  0.107529  0  1.004873  0
H  H46  1  0.95129051  0.56877584  0.21588814  1  0  0.091237  0  0.94493  0  0  0.107502  0  1.006858  0  0  0.10756  0  1.009228  0  0  0.11145  0.107431  0  1.005376  0
H  H47  1  0.14724954  0.95139031  0.71576777  1  0  0.091387  0  0.944411  0  0  0.107475  0  1.006702  0  0  0.107536  0  1.009049  0  0  0.111448  0.107399  0  1.005234  0
H  H48  1  0.59189696  0.83648100  0.39484018  1  0  0.08352  0  0.942071  0  0  0.094476  0  1.010148  0  0  0.095616  0  1.009217  0  0  0.106045  0.093702  0  1.010775  0
H  H49  1  0.83651964  0.80293914  0.89491638  1  0  0.083425  0  0.942031  0  0  0.094207  0  1.010182  0  0  0.095272  0  1.009258  0  0  0.105992  0.093485  0  1.010791  0
H  H50  1  0.05786075  0.59152933  0.89447646  1  0  0.082856  0  0.943058  0  0  0.094086  0  1.010889  0  0  0.095168  0  1.010035  0  0  0.105913  0.093363  0  1.011485  0
H  H51  1  0.80287491  0.05797144  0.39463686  1  0  0.083193  0  0.94364  0  0  0.094101  0  1.011734  0  0  0.095171  0  1.010843  0  0  0.105979  0.09338  0  1.012336  0
H  H52  1  0.40810430  0.16352233  0.60516671  1  0  0.083485  0  0.942069  0  0  0.094472  0  1.010125  0  0  0.095601  0  1.009204  0  0  0.106053  0.093698  0  1.010752  0
H  H53  1  0.16347773  0.19705649  0.10508491  1  0  0.083435  0  0.942086  0  0  0.094217  0  1.010217  0  0  0.095282  0  1.009295  0  0  0.106002  0.093498  0  1.010826  0
H  H54  1  0.94214272  0.40846823  0.10552592  1  0  0.082842  0  0.943162  0  0  0.094069  0  1.010977  0  0  0.095153  0  1.010126  0  0  0.105927  0.093338  0  1.01157  0
H  H55  1  0.19712792  0.94203773  0.60536558  1  0  0.083172  0  0.943649  0  0  0.094103  0  1.011722  0  0  0.095174  0  1.010831  0  0  0.105969  0.093375  0  1.012338  0
C  C56  1  0.66294543  0.72549330  0.21778921  1  0  0.556544  0  3.795723  0  0  0.510983  0  4.062866  0  0  0.536995  0  4.073196  0  0  0.340461  0.493552  0  4.055509  0
C  C57  1  0.72562796  0.55470804  0.71784989  1  0  0.556578  0  3.795851  0  0  0.511168  0  4.062944  0  0  0.53722  0  4.07324  0  0  0.340539  0.493716  0  4.055591  0
C  C58  1  0.99243692  0.66296580  0.71777120  1  0  0.556039  0  3.797495  0  0  0.511886  0  4.062985  0  0  0.537762  0  4.073478  0  0  0.340675  0.49442  0  4.055687  0
C  C59  1  0.55462157  0.99221966  0.21770346  1  0  0.555903  0  3.797112  0  0  0.511425  0  4.063049  0  0  0.53753  0  4.073252  0  0  0.340645  0.493931  0  4.055761  0
C  C60  1  0.33705424  0.27451102  0.78221516  1  0  0.556424  0  3.795833  0  0  0.510955  0  4.062947  0  0  0.536973  0  4.073269  0  0  0.340433  0.493522  0  4.055597  0
C  C61  1  0.27437325  0.44529147  0.28214859  1  0  0.556532  0  3.795994  0  0  0.51116  0  4.063038  0  0  0.537211  0  4.073336  0  0  0.340556  0.493708  0  4.055684  0
C  C62  1  0.00756064  0.33703757  0.28223038  1  0  0.556089  0  3.797463  0  0  0.511916  0  4.062989  0  0  0.537804  0  4.073467  0  0  0.340713  0.494439  0  4.055707  0
C  C63  1  0.44537566  0.00777889  0.78229447  1  0  0.555869  0  3.797104  0  0  0.511471  0  4.06293  0  0  0.537533  0  4.073189  0  0  0.340667  0.493976  0  4.055646  0
C  C64  1  0.78204653  0.72367959  0.12119898  1  0  0.208502  0  3.689078  0  0  0.170919  0  3.939449  0  0  0.186356  0  3.953861  0  0  0.059867  0.16089  0  3.929483  0
C  C65  1  0.72382597  0.33885698  0.62128820  1  0  0.208787  0  3.688854  0  0  0.170982  0  3.939222  0  0  0.186428  0  3.953707  0  0  0.059811  0.160951  0  3.929209  0
C  C66  1  0.89771904  0.78229823  0.62139650  1  0  0.208642  0  3.689614  0  0  0.170686  0  3.939744  0  0  0.186132  0  3.95419  0  0  0.060258  0.16067  0  3.929751  0
C  C67  1  0.33884441  0.89738365  0.12095508  1  0  0.20641  0  3.692186  0  0  0.168333  0  3.942467  0  0  0.183783  0  3.956949  0  0  0.05904  0.15829  0  3.932475  0
C  C68  1  0.21795364  0.27632665  0.87880716  1  0  0.208535  0  3.689232  0  0  0.170954  0  3.93963  0  0  0.186392  0  3.95404  0  0  0.059879  0.160927  0  3.929662  0
C  C69  1  0.27617514  0.66113866  0.37871088  1  0  0.208775  0  3.688906  0  0  0.170983  0  3.939269  0  0  0.186429  0  3.953753  0  0  0.059815  0.160949  0  3.929262  0
C  C70  1  0.10228334  0.21770223  0.37860588  1  0  0.208668  0  3.689528  0  0  0.17068  0  3.939673  0  0  0.186118  0  3.954128  0  0  0.060239  0.160662  0  3.929678  0
C  C71  1  0.66115747  0.10261489  0.87904478  1  0  0.206368  0  3.692275  0  0  0.168271  0  3.942541  0  0  0.183721  0  3.957022  0  0  0.059023  0.158228  0  3.932542  0
C  C72  1  0.89398706  0.78794572  0.24482393  1  0  -0.238197  0  3.768521  0  0  -0.247783  0  4.022428  0  0  -0.262159  0  4.042912  0  0  -0.112907  -0.238638  0  4.008847  0
C  C73  1  0.78801882  0.35066769  0.74494005  1  0  -0.238226  0  3.765562  0  0  -0.248041  0  4.019668  0  0  -0.262477  0  4.040146  0  0  -0.113246  -0.238911  0  4.006073  0
C  C74  1  0.95722487  0.89418989  0.74513201  1  0  -0.237332  0  3.76742  0  0  -0.246617  0  4.021225  0  0  -0.26104  0  4.041717  0  0  -0.112218  -0.237482  0  4.007633  0
C  C75  1  0.35054235  0.95682566  0.24456121  1  0  -0.236211  0  3.766028  0  0  -0.245432  0  4.019981  0  0  -0.259848  0  4.04046  0  0  -0.112083  -0.236318  0  4.006371  0
C  C76  1  0.10601210  0.21205666  0.75518092  1  0  -0.238132  0  3.768541  0  0  -0.24777  0  4.02246  0  0  -0.262152  0  4.042944  0  0  -0.112914  -0.23862  0  4.008869  0
C  C77  1  0.21198204  0.64932699  0.25505777  1  0  -0.238177  0  3.765458  0  0  -0.248013  0  4.019553  0  0  -0.262448  0  4.040029  0  0  -0.113207  -0.238877  0  4.005964  0
C  C78  1  0.04277869  0.10581153  0.25487127  1  0  -0.237326  0  3.767419  0  0  -0.246596  0  4.021196  0  0  -0.261021  0  4.041691  0  0  -0.112206  -0.237456  0  4.007604  0
C  C79  1  0.64945251  0.04317097  0.75543492  1  0  -0.236214  0  3.766112  0  0  -0.245431  0  4.020059  0  0  -0.259841  0  4.040538  0  0  -0.112103  -0.236303  0  4.006456  0
C  C80  1  0.88122800  0.81520903  0.35254658  1  0  0.20147  0  3.747443  0  0  0.168512  0  4.0089  0  0  0.183682  0  4.020433  0  0  0.06298  0.158703  0  4.000946  0
C  C81  1  0.81509471  0.47125892  0.85260889  1  0  0.202168  0  3.74574  0  0  0.169559  0  4.007139  0  0  0.18465  0  4.018611  0  0  0.063368  0.159766  0  3.999255  0
C  C82  1  0.03793836  0.88133519  0.85272235  1  0  0.200469  0  3.748173  0  0  0.16754  0  4.009329  0  0  0.182716  0  4.020832  0  0  0.0624  0.157718  0  4.001391  0
C  C83  1  0.47103863  0.03740436  0.35231512  1  0  0.202176  0  3.74426  0  0  0.169161  0  4.005866  0  0  0.184349  0  4.017362  0  0  0.063718  0.159319  0  3.997951  0
C  C84  1  0.11876954  0.18479431  0.64745876  1  0  0.20149  0  3.747483  0  0  0.168562  0  4.008933  0  0  0.183734  0  4.020468  0  0  0.063019  0.158774  0  4.00099  0
C  C85  1  0.18490945  0.52873768  0.14739111  1  0  0.20214  0  3.745809  0  0  0.169514  0  4.007216  0  0  0.184608  0  4.018684  0  0  0.063307  0.159723  0  3.999331  0
C  C86  1  0.96206080  0.11866720  0.14728100  1  0  0.200526  0  3.748107  0  0  0.167608  0  4.009269  0  0  0.182788  0  4.020767  0  0  0.06245  0.157787  0  4.001326  0
C  C87  1  0.52895826  0.96258937  0.64768065  1  0  0.202265  0  3.744261  0  0  0.169266  0  4.005859  0  0  0.184453  0  4.01735  0  0  0.06378  0.159425  0  3.997943  0
C  C88  1  0.53350412  0.73730584  0.31749711  1  0  -0.097078  0  3.687907  0  0  -0.157904  0  3.942855  0  0  -0.157567  0  3.952786  0  0  -0.067041  -0.158085  0  3.935845  0
C  C89  1  0.73742901  0.78398908  0.81750562  1  0  -0.095519  0  3.689502  0  0  -0.155841  0  3.943789  0  0  -0.155333  0  3.953647  0  0  -0.066877  -0.156126  0  3.936827  0
C  C90  1  0.07979778  0.53323511  0.81723927  1  0  -0.094523  0  3.690039  0  0  -0.155934  0  3.945676  0  0  -0.155513  0  3.955657  0  0  -0.066535  -0.156258  0  3.938736  0
C  C91  1  0.78392237  0.07983426  0.31739007  1  0  -0.094751  0  3.690001  0  0  -0.156059  0  3.945349  0  0  -0.155607  0  3.955249  0  0  -0.066539  -0.156374  0  3.938476  0
C  C92  1  0.46649487  0.26269944  0.68250813  1  0  -0.096958  0  3.687776  0  0  -0.157779  0  3.942794  0  0  -0.157424  0  3.952722  0  0  -0.06702  -0.157964  0  3.935797  0
C  C93  1  0.26256998  0.21600561  0.18249218  1  0  -0.095539  0  3.689676  0  0  -0.155852  0  3.943942  0  0  -0.155348  0  3.953807  0  0  -0.06688  -0.156144  0  3.936991  0
C  C94  1  0.92020462  0.46676536  0.18276012  1  0  -0.094459  0  3.689893  0  0  -0.155824  0  3.945533  0  0  -0.155417  0  3.955537  0  0  -0.066465  -0.156104  0  3.938539  0
C  C95  1  0.21607818  0.92016622  0.68260778  1  0  -0.094724  0  3.690091  0  0  -0.156058  0  3.945374  0  0  -0.15561  0  3.955279  0  0  -0.066498  -0.156372  0  3.938505  0
C  C96  1  0.56750747  0.65378966  0.38116372  1  0  0.663877  0  3.86538  0  0  0.61541  0  4.160815  0  0  0.647875  0  4.157692  0  0  0.201186  0.593306  0  4.162011  0
C  C97  1  0.65377578  0.81389050  0.88101924  1  0  0.66106  0  3.870523  0  0  0.612901  0  4.165074  0  0  0.645319  0  4.161948  0  0  0.200695  0.590821  0  4.166256  0
C  C98  1  0.22702606  0.56728739  0.88115642  1  0  0.663557  0  3.866496  0  0  0.615037  0  4.162165  0  0  0.647492  0  4.15907  0  0  0.200658  0.592965  0  4.163352  0
C  C99  1  0.81395729  0.22707371  0.38118137  1  0  0.662096  0  3.868254  0  0  0.614628  0  4.16235  0  0  0.647065  0  4.159224  0  0  0.201091  0.592553  0  4.16353  0
C  C100  1  0.43248907  0.34620984  0.61883733  1  0  0.663769  0  3.86553  0  0  0.615302  0  4.160968  0  0  0.647768  0  4.157843  0  0  0.201173  0.593198  0  4.162165  0
C  C101  1  0.34622055  0.18610807  0.11897455  1  0  0.661149  0  3.870498  0  0  0.612983  0  4.165045  0  0  0.645402  0  4.16192  0  0  0.200758  0.590902  0  4.166227  0
C  C102  1  0.77297593  0.43271503  0.11884134  1  0  0.663499  0  3.866398  0  0  0.614961  0  4.162091  0  0  0.64742  0  4.159  0  0  0.20062  0.59288  0  4.163269  0
C  C103  1  0.18604582  0.77292585  0.61881038  1  0  0.662026  0  3.868471  0  0  0.614653  0  4.1624  0  0  0.647089  0  4.159277  0  0  0.201032  0.59258  0  4.163582  0
N  N104  1  0.76807978  0.78524046  0.34086628  1  0  -0.433223  0  3.000824  0  0  -0.388454  0  3.268456  0  0  -0.408193  0  3.278069  0  0  -0.325952  -0.3754  0  3.261891  0
N  N105  1  0.78518573  0.57274037  0.84089140  1  0  -0.433184  0  3.002616  0  0  -0.388095  0  3.269557  0  0  -0.407835  0  3.27919  0  0  -0.32585  -0.375036  0  3.262983  0
N  N106  1  0.05604898  0.76807166  0.84088390  1  0  -0.432184  0  3.001198  0  0  -0.387898  0  3.268424  0  0  -0.407588  0  3.278105  0  0  -0.325733  -0.374835  0  3.261864  0
N  N107  1  0.57257999  0.05564313  0.34075486  1  0  -0.433051  0  3.001878  0  0  -0.388332  0  3.268778  0  0  -0.408078  0  3.278365  0  0  -0.326174  -0.375259  0  3.262222  0
N  N108  1  0.23191895  0.21476385  0.65913921  1  0  -0.433208  0  3.000876  0  0  -0.388445  0  3.268456  0  0  -0.408185  0  3.278069  0  0  -0.325954  -0.375389  0  3.261879  0
N  N109  1  0.21481614  0.42725816  0.15910996  1  0  -0.43314  0  3.002648  0  0  -0.388078  0  3.269584  0  0  -0.407815  0  3.279213  0  0  -0.325828  -0.375019  0  3.26301  0
N  N110  1  0.94394757  0.23192785  0.15911490  1  0  -0.432271  0  3.001138  0  0  -0.387995  0  3.268393  0  0  -0.407688  0  3.278066  0  0  -0.325779  -0.37493  0  3.261838  0
N  N111  1  0.42741925  0.94435251  0.65924570  1  0  -0.43304  0  3.00195  0  0  -0.388367  0  3.268846  0  0  -0.408101  0  3.278449  0  0  -0.326176  -0.375293  0  3.262293  0
N  N112  1  0.54748935  0.69687326  0.20436379  1  0  -0.43002  0  3.390927  0  0  -0.365498  0  3.636284  0  0  -0.387379  0  3.644567  0  0  -0.427753  -0.350336  0  3.630206  0
N  N113  1  0.69707208  0.65675014  0.70440917  1  0  -0.431582  0  3.389863  0  0  -0.367966  0  3.636151  0  0  -0.389959  0  3.644311  0  0  -0.427985  -0.352747  0  3.630135  0
N  N114  1  0.00730524  0.54739583  0.70423243  1  0  -0.430965  0  3.394398  0  0  -0.367207  0  3.6396  0  0  -0.38906  0  3.647882  0  0  -0.42835  -0.352003  0  3.633574  0
N  N115  1  0.65668409  0.00728807  0.20429750  1  0  -0.431144  0  3.390404  0  0  -0.367396  0  3.636146  0  0  -0.389396  0  3.644443  0  0  -0.428039  -0.352124  0  3.630049  0
N  N116  1  0.45250912  0.30313008  0.79564194  1  0  -0.429824  0  3.39078  0  0  -0.365522  0  3.636314  0  0  -0.387415  0  3.644592  0  0  -0.427743  -0.35034  0  3.630202  0
N  N117  1  0.30292546  0.34324260  0.29558872  1  0  -0.431569  0  3.389876  0  0  -0.367904  0  3.636044  0  0  -0.389899  0  3.644212  0  0  -0.428016  -0.352684  0  3.63003  0
N  N118  1  0.99269342  0.45260463  0.29576841  1  0  -0.430885  0  3.394444  0  0  -0.367178  0  3.639675  0  0  -0.389028  0  3.647958  0  0  -0.428361  -0.351983  0  3.633642  0
N  N119  1  0.34331551  0.99271240  0.79570222  1  0  -0.431141  0  3.390409  0  0  -0.367443  0  3.636146  0  0  -0.389424  0  3.644455  0  0  -0.428061  -0.352172  0  3.630054  0
N  N120  1  0.66683153  0.69148439  0.10607555  1  0  -0.449609  0  3.263939  0  0  -0.3642  0  3.556923  0  0  -0.391788  0  3.56823  0  0  -0.355133  -0.345714  0  3.548876  0
N  N121  1  0.69166839  0.43896497  0.60614429  1  0  -0.44987  0  3.262351  0  0  -0.364294  0  3.555133  0  0  -0.391976  0  3.56653  0  0  -0.355203  -0.345743  0  3.547024  0
N  N122  1  0.91480725  0.66700535  0.60611574  1  0  -0.449871  0  3.263762  0  0  -0.365179  0  3.556892  0  0  -0.392723  0  3.568213  0  0  -0.355685  -0.346664  0  3.548846  0
N  N123  1  0.43900280  0.91450631  0.10595582  1  0  -0.448125  0  3.262962  0  0  -0.363042  0  3.555833  0  0  -0.390685  0  3.567122  0  0  -0.355103  -0.344518  0  3.547804  0
N  N124  1  0.33316694  0.30851895  0.89392942  1  0  -0.449598  0  3.263928  0  0  -0.364173  0  3.556853  0  0  -0.391771  0  3.568185  0  0  -0.355124  -0.345686  0  3.548807  0
N  N125  1  0.30833433  0.56102971  0.39385356  1  0  -0.449833  0  3.262682  0  0  -0.364286  0  3.555444  0  0  -0.391965  0  3.566839  0  0  -0.355216  -0.345737  0  3.547341  0
N  N126  1  0.08519100  0.33299706  0.39388347  1  0  -0.450014  0  3.263803  0  0  -0.365265  0  3.556921  0  0  -0.392813  0  3.56824  0  0  -0.355724  -0.346747  0  3.54888  0
N  N127  1  0.56100120  0.08549319  0.89404457  1  0  -0.448046  0  3.262876  0  0  -0.362958  0  3.555685  0  0  -0.390588  0  3.56699  0  0  -0.355046  -0.344428  0  3.547648  0
O  O128  1  0.55439003  0.53346734  0.30802013  1  0  -0.640319  0  2.181004  0  0  -0.543362  0  2.465373  0  0  -0.578025  0  2.453016  0  0  -0.339428  -0.51904  0  2.473119  0
O  O129  1  0.53339783  0.75423243  0.80770433  1  0  -0.639606  0  2.183965  0  0  -0.54228  0  2.467685  0  0  -0.576868  0  2.455238  0  0  -0.339154  -0.517984  0  2.47549  0
O  O130  1  0.27430294  0.55446363  0.80823675  1  0  -0.640797  0  2.181935  0  0  -0.543749  0  2.466767  0  0  -0.578269  0  2.454103  0  0  -0.339271  -0.519436  0  2.47453  0
O  O131  1  0.75424835  0.27431908  0.30811178  1  0  -0.63949  0  2.181806  0  0  -0.542973  0  2.466046  0  0  -0.577535  0  2.453553  0  0  -0.339219  -0.518706  0  2.47388  0
O  O132  1  0.44560676  0.46653312  0.69198143  1  0  -0.640326  0  2.181037  0  0  -0.54335  0  2.465391  0  0  -0.578016  0  2.453035  0  0  -0.339433  -0.519028  0  2.473141  0
O  O133  1  0.46659586  0.24576325  0.19228865  1  0  -0.639604  0  2.184155  0  0  -0.542293  0  2.467889  0  0  -0.57688  0  2.45544  0  0  -0.339171  -0.517997  0  2.475692  0
O  O134  1  0.72569908  0.44554943  0.19176245  1  0  -0.640727  0  2.181831  0  0  -0.543699  0  2.466697  0  0  -0.57822  0  2.454038  0  0  -0.339234  -0.519383  0  2.474451  0
O  O135  1  0.24574960  0.72567855  0.69187852  1  0  -0.639433  0  2.181894  0  0  -0.542927  0  2.466046  0  0  -0.577487  0  2.453553  0  0  -0.339149  -0.518661  0  2.473882  0
O  O136  1  0.60134453  0.70860862  0.50089629  1  0  -0.631532  0  1.979321  0  0  -0.579675  0  2.221862  0  0  -0.606855  0  2.215045  0  0  -0.320823  -0.560276  0  2.225612  0
O  O137  1  0.70857986  0.89961356  0.00084429  1  0  -0.630344  0  1.981529  0  0  -0.578641  0  2.223783  0  0  -0.605879  0  2.217183  0  0  -0.320598  -0.559243  0  2.227497  0
O  O138  1  0.29187112  0.60092639  0.00083278  1  0  -0.631238  0  1.979266  0  0  -0.579449  0  2.221595  0  0  -0.606699  0  2.214988  0  0  -0.320724  -0.560049  0  2.22531  0
O  O139  1  0.89980917  0.29195864  0.50095924  1  0  -0.630962  0  1.980178  0  0  -0.579504  0  2.222034  0  0  -0.606741  0  2.215417  0  0  -0.321131  -0.56011  0  2.225737  0
O  O140  1  0.39865412  0.29139184  0.49910530  1  0  -0.631473  0  1.979443  0  0  -0.579623  0  2.221985  0  0  -0.606794  0  2.215148  0  0  -0.320797  -0.560223  0  2.225734  0
O  O141  1  0.29141638  0.10038116  0.99914635  1  0  -0.630414  0  1.98132  0  0  -0.578731  0  2.223609  0  0  -0.605968  0  2.217009  0  0  -0.320642  -0.559331  0  2.227324  0
O  O142  1  0.70813053  0.39907122  0.99916207  1  0  -0.631203  0  1.979214  0  0  -0.579403  0  2.221518  0  0  -0.606654  0  2.214911  0  0  -0.320717  -0.560008  0  2.225236  0
O  O143  1  0.10020296  0.70804672  0.49903117  1  0  -0.630951  0  1.980176  0  0  -0.579553  0  2.221987  0  0  -0.606788  0  2.215371  0  0  -0.321139  -0.560159  0  2.225692  0
