# generated using pymatgen
data_GdH14C12N9O7
_symmetry_space_group_name_H-M   'P 1'
_cell_length_a   8.67636301
_cell_length_b   9.81489716
_cell_length_c   10.98727747
_cell_angle_alpha   81.69322928
_cell_angle_beta   86.53365843
_cell_angle_gamma   76.77281103
_symmetry_Int_Tables_number   1
_chemical_formula_structural   GdH14C12N9O7
_chemical_formula_sum   'Gd2 H28 C24 N18 O14'
_cell_volume   900.90732657
_cell_formula_units_Z   2
loop_
 _symmetry_equiv_pos_site_id
 _symmetry_equiv_pos_as_xyz
  1  'x, y, z'
loop_
 _atom_site_type_symbol
 _atom_site_label
 _atom_site_symmetry_multiplicity
 _atom_site_fract_x
 _atom_site_fract_y
 _atom_site_fract_z
 _atom_site_occupancy
 _atom_site_hle17_bader_spin_density
 _atom_site_hle17_ddec_charge
 _atom_site_hle17_ddec_spin_density
 _atom_site_hle17_ddec_sum_bond_order
 _atom_site_hle17_magmom
 _atom_site_hse06_10hf_bader_spin_density
 _atom_site_hse06_10hf_ddec_charge
 _atom_site_hse06_10hf_ddec_spin_density
 _atom_site_hse06_10hf_ddec_sum_bond_order
 _atom_site_hse06_10hf_magmom
 _atom_site_hse06_bader_spin_density
 _atom_site_hse06_ddec_charge
 _atom_site_hse06_ddec_spin_density
 _atom_site_hse06_ddec_sum_bond_order
 _atom_site_hse06_magmom
 _atom_site_pbe_bader_spin_density
 _atom_site_pbe_cm5_charge
 _atom_site_pbe_ddec_charge
 _atom_site_pbe_ddec_spin_density
 _atom_site_pbe_ddec_sum_bond_order
 _atom_site_pbe_magmom
Gd  Gd0  1  0.38738068  0.03230929  0.15757716  1  0  2.137807  0  1.80862  0  0  2.041217  0  2.169155  0  0  2.097392  0  2.114259  0  0  1.460975  1.998661  0  2.211948  0
Gd  Gd1  1  0.61261980  0.96769033  0.84242244  1  0  2.137815  0  1.808629  0  0  2.041199  0  2.169202  0  0  2.097357  0  2.114338  0  0  1.46098  1.998653  0  2.21198  0
H  H2  1  0.13960526  0.13838561  0.34883980  1  0  0.397467  0  0.921102  0  0  0.357171  0  1.001701  0  0  0.368201  0  0.985973  0  0  0.281089  0.349339  0  1.012829  0
H  H3  1  0.86039556  0.86161718  0.65116026  1  0  0.397484  0  0.921079  0  0  0.357188  0  1.001678  0  0  0.368218  0  0.98595  0  0  0.2811  0.349356  0  1.012806  0
H  H4  1  0.05802028  0.18914031  0.21592761  1  0  0.403825  0  0.913854  0  0  0.362825  0  0.994205  0  0  0.374774  0  0.977224  0  0  0.282355  0.354368  0  1.006208  0
H  H5  1  0.94197965  0.81086142  0.78407264  1  0  0.403832  0  0.913845  0  0  0.362835  0  0.994185  0  0  0.374785  0  0.977202  0  0  0.282373  0.354378  0  1.006188  0
H  H6  1  0.11363673  0.51571267  0.74770793  1  0  0.099491  0  0.959628  0  0  0.10047  0  1.037602  0  0  0.104679  0  1.031996  0  0  0.131763  0.097364  0  1.041525  0
H  H7  1  0.88636287  0.48428588  0.25229002  1  0  0.099465  0  0.959574  0  0  0.10044  0  1.037559  0  0  0.10465  0  1.031952  0  0  0.131746  0.097334  0  1.041482  0
H  H8  1  0.19425281  0.80580798  0.97136434  1  0  0.100607  0  0.949968  0  0  0.110514  0  1.009808  0  0  0.112537  0  1.008279  0  0  0.138811  0.108885  0  1.011001  0
H  H9  1  0.80574589  0.19418952  0.02863561  1  0  0.100567  0  0.949863  0  0  0.110475  0  1.009707  0  0  0.112498  0  1.008177  0  0  0.138786  0.108846  0  1.010899  0
H  H10  1  0.03664909  0.00666027  0.62102987  1  0  0.109472  0  0.942918  0  0  0.119749  0  1.00607  0  0  0.122655  0  1.002823  0  0  0.142197  0.117522  0  1.008537  0
H  H11  1  0.96335060  0.99334251  0.37896751  1  0  0.109468  0  0.942944  0  0  0.119751  0  1.006078  0  0  0.122658  0  1.002832  0  0  0.142193  0.117522  0  1.008551  0
H  H12  1  0.17300345  0.38194634  0.46990877  1  0  0.084793  0  0.940611  0  0  0.094005  0  1.002882  0  0  0.095845  0  1.001324  0  0  0.130297  0.092559  0  1.004243  0
H  H13  1  0.82699852  0.61805647  0.53009307  1  0  0.084815  0  0.940585  0  0  0.094027  0  1.002852  0  0  0.095867  0  1.001294  0  0  0.130305  0.092581  0  1.004213  0
H  H14  1  0.21123189  0.72987647  0.49277989  1  0  0.104645  0  0.928011  0  0  0.114662  0  0.994206  0  0  0.115924  0  0.993173  0  0  0.114881  0.113776  0  0.994076  0
H  H15  1  0.78876625  0.27012316  0.50722253  1  0  0.104665  0  0.928034  0  0  0.114676  0  0.994219  0  0  0.115939  0  0.993187  0  0  0.114882  0.113789  0  0.994089  0
H  H16  1  0.37761818  0.60460282  0.44307287  1  0  0.124521  0  0.958374  0  0  0.125838  0  1.037707  0  0  0.130323  0  1.03249  0  0  0.12116  0.122246  0  1.041477  0
H  H17  1  0.62238050  0.39539469  0.55692890  1  0  0.124537  0  0.958387  0  0  0.12585  0  1.03771  0  0  0.130334  0  1.032494  0  0  0.121164  0.12226  0  1.041477  0
H  H18  1  0.67218830  0.58825855  0.78323206  1  0  0.107541  0  0.918569  0  0  0.117187  0  0.976938  0  0  0.120023  0  0.973485  0  0  0.142038  0.114868  0  0.979794  0
H  H19  1  0.32781422  0.41174212  0.21676730  1  0  0.107527  0  0.91858  0  0  0.117188  0  0.976929  0  0  0.120025  0  0.973477  0  0  0.142027  0.11487  0  0.979786  0
H  H20  1  0.37141146  0.94135180  0.59403622  1  0  0.118175  0  0.929876  0  0  0.125  0  0.996304  0  0  0.128117  0  0.991022  0  0  0.147622  0.122413  0  1.000028  0
H  H21  1  0.62858580  0.05864677  0.40596547  1  0  0.118201  0  0.929867  0  0  0.124999  0  0.996312  0  0  0.128122  0  0.991035  0  0  0.147611  0.122412  0  1.000039  0
H  H22  1  0.52576542  0.39337764  0.84739112  1  0  0.134662  0  0.924117  0  0  0.141069  0  0.994674  0  0  0.143952  0  0.992338  0  0  0.129993  0.13906  0  0.996486  0
H  H23  1  0.47423479  0.60662303  0.15260743  1  0  0.134678  0  0.924141  0  0  0.141098  0  0.994679  0  0  0.143981  0  0.992343  0  0  0.130011  0.139086  0  0.996493  0
H  H24  1  0.37311286  0.34054063  0.77753420  1  0  0.123369  0  0.913729  0  0  0.132951  0  0.979863  0  0  0.134946  0  0.978951  0  0  0.130167  0.131601  0  0.980533  0
H  H25  1  0.62688762  0.65945899  0.22246449  1  0  0.123319  0  0.913821  0  0  0.132902  0  0.979965  0  0  0.134902  0  0.979053  0  0  0.13015  0.131552  0  0.980637  0
H  H26  1  0.96574185  0.07393561  0.84298463  1  0  0.143682  0  0.929148  0  0  0.15286  0  0.996015  0  0  0.15599  0  0.993834  0  0  0.134354  0.150663  0  0.997656  0
H  H27  1  0.03425862  0.92606401  0.15701405  1  0  0.143713  0  0.929088  0  0  0.152888  0  0.995961  0  0  0.156019  0  0.993779  0  0  0.134375  0.15069  0  0.997602  0
H  H28  1  0.00009257  0.23730211  0.87174220  1  0  0.127588  0  0.905274  0  0  0.140068  0  0.964844  0  0  0.142731  0  0.962693  0  0  0.130477  0.138218  0  0.966512  0
H  H29  1  0.99990673  0.76269751  0.12825926  1  0  0.127596  0  0.905317  0  0  0.140077  0  0.964887  0  0  0.14274  0  0.962736  0  0  0.130484  0.138226  0  0.966555  0
C  C30  1  0.16087351  0.57028547  0.81112283  1  0  0.15574  0  3.653031  0  0  0.082768  0  3.912599  0  0  0.095563  0  3.92329  0  0  0.154747  0.074957  0  3.90486  0
C  C31  1  0.83912493  0.42971308  0.18887608  1  0  0.155849  0  3.652953  0  0  0.082881  0  3.912531  0  0  0.095679  0  3.923215  0  0  0.154822  0.075067  0  3.904792  0
C  C32  1  0.20501196  0.71291255  0.92590398  1  0  0.190977  0  3.694164  0  0  0.14005  0  3.985247  0  0  0.150537  0  3.997732  0  0  0.143522  0.133354  0  3.976719  0
C  C33  1  0.79498656  0.28709023  0.07409527  1  0  0.191131  0  3.694078  0  0  0.140213  0  3.985159  0  0  0.150701  0  3.997646  0  0  0.14362  0.133518  0  3.976628  0
C  C34  1  0.07042781  0.10784296  0.60628764  1  0  0.164779  0  3.638434  0  0  0.088333  0  3.906401  0  0  0.10083  0  3.916978  0  0  0.161801  0.080322  0  3.899281  0
C  C35  1  0.92957328  0.89215877  0.39371164  1  0  0.16474  0  3.638467  0  0  0.088289  0  3.906414  0  0  0.100785  0  3.916992  0  0  0.161785  0.08028  0  3.899294  0
C  C36  1  0.13682006  0.29917031  0.53396610  1  0  0.192758  0  3.740629  0  0  0.140261  0  4.033347  0  0  0.151  0  4.046327  0  0  0.137962  0.133262  0  4.024557  0
C  C37  1  0.86318129  0.70083038  0.46603422  1  0  0.192697  0  3.74059  0  0  0.1402  0  4.0333  0  0  0.15094  0  4.046279  0  0  0.137928  0.1332  0  4.024511  0
C  C38  1  0.36048475  0.81825171  0.35518692  1  0  0.660426  0  3.913616  0  0  0.6202  0  4.216669  0  0  0.652313  0  4.21009  0  0  0.191856  0.598781  0  4.218711  0
C  C39  1  0.63951430  0.18174896  0.64481259  1  0  0.660409  0  3.913656  0  0  0.62019  0  4.216676  0  0  0.652302  0  4.210094  0  0  0.191834  0.598769  0  4.218718  0
C  C40  1  0.33828833  0.71210511  0.46760013  1  0  -0.167165  0  3.613747  0  0  -0.236319  0  3.855002  0  0  -0.227119  0  3.863602  0  0  -0.05146  -0.235639  0  3.851785  0
C  C41  1  0.66171188  0.28789557  0.53239933  1  0  -0.167272  0  3.61379  0  0  -0.23637  0  3.855009  0  0  -0.227171  0  3.863607  0  0  -0.051476  -0.235691  0  3.851794  0
C  C42  1  0.58889911  0.65382622  0.71721956  1  0  0.213243  0  3.716329  0  0  0.158836  0  4.017074  0  0  0.171832  0  4.024918  0  0  0.148859  0.150975  0  4.009189  0
C  C43  1  0.41110225  0.34617445  0.28277985  1  0  0.213221  0  3.716216  0  0  0.158804  0  4.016963  0  0  0.1718  0  4.024806  0  0  0.148846  0.150942  0  4.009079  0
C  C44  1  0.43494470  0.83468060  0.62478907  1  0  0.212336  0  3.614694  0  0  0.134097  0  3.887546  0  0  0.160577  0  3.898873  0  0  0.173509  0.123558  0  3.882134  0
C  C45  1  0.56505461  0.16531902  0.37521148  1  0  0.212272  0  3.614716  0  0  0.13409  0  3.887558  0  0  0.160559  0  3.898896  0  0  0.173513  0.123548  0  3.882146  0
C  C46  1  0.39719820  0.26759164  0.96976435  1  0  0.716907  0  3.840438  0  0  0.668427  0  4.151539  0  0  0.7018  0  4.142721  0  0  0.215981  0.645755  0  4.156654  0
C  C47  1  0.60280228  0.73240798  0.03023524  1  0  0.716903  0  3.840376  0  0  0.668392  0  4.151535  0  0  0.701766  0  4.142715  0  0  0.215954  0.645719  0  4.156654  0
C  C48  1  0.40411190  0.37908341  0.85978774  1  0  -0.179323  0  3.63514  0  0  -0.25405  0  3.882977  0  0  -0.255271  0  3.889246  0  0  -0.042153  -0.25329  0  3.878942  0
C  C49  1  0.59588832  0.62091727  0.14021081  1  0  -0.17933  0  3.635288  0  0  -0.254052  0  3.883106  0  0  -0.25528  0  3.889385  0  0  -0.042156  -0.25329  0  3.879074  0
C  C50  1  0.20627894  0.06519726  0.89095889  1  0  0.727603  0  3.836193  0  0  0.684089  0  4.140227  0  0  0.717545  0  4.131596  0  0  0.230984  0.661403  0  4.145243  0
C  C51  1  0.79372064  0.93480130  0.10904179  1  0  0.727693  0  3.836004  0  0  0.68413  0  4.14011  0  0  0.71759  0  4.131468  0  0  0.230992  0.661443  0  4.145128  0
C  C52  1  0.05102279  0.14227823  0.82891005  1  0  -0.183581  0  3.59438  0  0  -0.259657  0  3.837835  0  0  -0.260977  0  3.841965  0  0  -0.043421  -0.259025  0  3.835587  0
C  C53  1  0.94897794  0.85772034  0.17109058  1  0  -0.183657  0  3.59438  0  0  -0.259728  0  3.837853  0  0  -0.26105  0  3.841982  0  0  -0.043463  -0.259093  0  3.835602  0
N  N54  1  0.42821493  0.72068069  0.57235106  1  0  0.061116  0  3.562533  0  0  0.18176  0  3.744174  0  0  0.140449  0  3.80777  0  0  -0.134305  0.188662  0  3.727629  0
N  N55  1  0.57178579  0.27931789  0.42765048  1  0  0.061229  0  3.562416  0  0  0.181774  0  3.744151  0  0  0.140469  0  3.807736  0  0  -0.134306  0.188683  0  3.727592  0
N  N56  1  0.52714023  0.60336303  0.63022562  1  0  -0.29787  0  2.872634  0  0  -0.291799  0  3.1407  0  0  -0.292334  0  3.160692  0  0  -0.225504  -0.284856  0  3.131349  0
N  N57  1  0.47286023  0.39663660  0.36977488  1  0  -0.297858  0  2.872507  0  0  -0.291762  0  3.140605  0  0  -0.292299  0  3.160593  0  0  -0.225474  -0.284821  0  3.131254  0
N  N58  1  0.53546510  0.79590249  0.71737815  1  0  -0.481379  0  3.181383  0  0  -0.43552  0  3.474356  0  0  -0.454057  0  3.484276  0  0  -0.40362  -0.422605  0  3.464811  0
N  N59  1  0.46453537  0.20409713  0.28262235  1  0  -0.481354  0  3.181341  0  0  -0.435502  0  3.474305  0  0  -0.454041  0  3.484226  0  0  -0.403607  -0.422585  0  3.46476  0
N  N60  1  0.29655576  0.51307698  0.87081304  1  0  0.068152  0  3.604783  0  0  0.187244  0  3.788497  0  0  0.177851  0  3.812766  0  0  -0.13312  0.192597  0  3.773388  0
N  N61  1  0.70344266  0.48692158  0.12918678  1  0  0.068122  0  3.604806  0  0  0.187197  0  3.788539  0  0  0.177798  0  3.812819  0  0  -0.133082  0.192549  0  3.773431  0
N  N62  1  0.07245564  0.18375642  0.69835788  1  0  0.088542  0  3.595462  0  0  0.207446  0  3.778908  0  0  0.200565  0  3.799127  0  0  -0.129108  0.211659  0  3.765572  0
N  N63  1  0.92754545  0.81624532  0.30164232  1  0  0.088582  0  3.595443  0  0  0.207505  0  3.778878  0  0  0.200624  0  3.799096  0  0  -0.129083  0.211715  0  3.765545  0
N  N64  1  0.09969845  0.69788090  0.84386582  1  0  -0.378774  0  3.087094  0  0  -0.318833  0  3.351536  0  0  -0.335217  0  3.362298  0  0  -0.322508  -0.30786  0  3.343868  0
N  N65  1  0.90029909  0.30211661  0.15613418  1  0  -0.378861  0  3.087103  0  0  -0.318913  0  3.351547  0  0  -0.335297  0  3.362307  0  0  -0.322582  -0.307939  0  3.343879  0
N  N66  1  0.32651000  0.60270458  0.94513446  1  0  -0.257289  0  2.844267  0  0  -0.259407  0  3.118913  0  0  -0.267598  0  3.132787  0  0  -0.214488  -0.253894  0  3.109816  0
N  N67  1  0.67348959  0.39729397  0.05486349  1  0  -0.257337  0  2.844261  0  0  -0.259472  0  3.118932  0  0  -0.267662  0  3.132807  0  0  -0.214564  -0.253959  0  3.109835  0
N  N68  1  0.11011539  0.17838661  0.49981454  1  0  -0.399277  0  3.069295  0  0  -0.341908  0  3.342723  0  0  -0.358357  0  3.353819  0  0  -0.326531  -0.330923  0  3.335126  0
N  N69  1  0.88988456  0.82161512  0.50018479  1  0  -0.399251  0  3.069259  0  0  -0.341871  0  3.34268  0  0  -0.358321  0  3.353774  0  0  -0.326513  -0.330888  0  3.335084  0
N  N70  1  0.11581572  0.30671860  0.65402731  1  0  -0.292455  0  2.866309  0  0  -0.289778  0  3.131233  0  0  -0.299074  0  3.143823  0  0  -0.222147  -0.283525  0  3.122917  0
N  N71  1  0.88418679  0.69328209  0.34597297  1  0  -0.292428  0  2.866266  0  0  -0.289757  0  3.131188  0  0  -0.299054  0  3.143778  0  0  -0.222135  -0.283503  0  3.122873  0
O  O72  1  0.14632703  0.11680432  0.26194749  1  0  -0.934067  0  1.972854  0  0  -0.887908  0  2.189616  0  0  -0.909517  0  2.157274  0  0  -0.665181  -0.872148  0  2.212368  0
O  O73  1  0.85367495  0.88319848  0.73805252  1  0  -0.934062  0  1.972821  0  0  -0.887925  0  2.189638  0  0  -0.909533  0  2.157295  0  0  -0.6652  -0.872154  0  2.212368  0
O  O74  1  0.44148834  0.90911850  0.36402670  1  0  -0.679474  0  1.99277  0  0  -0.639792  0  2.234821  0  0  -0.665014  0  2.227685  0  0  -0.377669  -0.621718  0  2.238551  0
O  O75  1  0.55850928  0.09088324  0.63597365  1  0  -0.679473  0  1.992769  0  0  -0.639803  0  2.234824  0  0  -0.665022  0  2.227688  0  0  -0.37768  -0.621729  0  2.238553  0
O  O76  1  0.29462687  0.81198841  0.25679727  1  0  -0.668279  0  1.939032  0  0  -0.629742  0  2.174875  0  0  -0.654811  0  2.168203  0  0  -0.360833  -0.611778  0  2.178793  0
O  O77  1  0.70537272  0.18801015  0.74320250  1  0  -0.668282  0  1.939072  0  0  -0.629736  0  2.17491  0  0  -0.654802  0  2.168235  0  0  -0.360821  -0.611789  0  2.178859  0
O  O78  1  0.49910728  0.14898332  0.96912970  1  0  -0.814884  0  2.169275  0  0  -0.766848  0  2.427724  0  0  -0.795081  0  2.419034  0  0  -0.439489  -0.746669  0  2.43323  0
O  O79  1  0.50089292  0.85101736  0.03087067  1  0  -0.814845  0  2.169179  0  0  -0.766803  0  2.427645  0  0  -0.795035  0  2.418955  0  0  -0.43945  -0.746625  0  2.433152  0
O  O80  1  0.29573196  0.28743202  0.05520573  1  0  -0.633567  0  1.969941  0  0  -0.598722  0  2.206498  0  0  -0.62286  0  2.199601  0  0  -0.333461  -0.581645  0  2.210737  0
O  O81  1  0.70426941  0.71256865  0.94479278  1  0  -0.633581  0  1.969954  0  0  -0.598706  0  2.206503  0  0  -0.622841  0  2.199604  0  0  -0.333481  -0.58163  0  2.210743  0
O  O82  1  0.19639695  0.04059861  0.00772213  1  0  -0.698677  0  2.001031  0  0  -0.650441  0  2.244513  0  0  -0.676586  0  2.234844  0  0  -0.383657  -0.63177  0  2.250882  0
O  O83  1  0.80360236  0.95940102  0.99227842  1  0  -0.698723  0  2.000967  0  0  -0.650465  0  2.244475  0  0  -0.676612  0  2.234808  0  0  -0.383662  -0.631796  0  2.250844  0
O  O84  1  0.32777660  0.03325250  0.82276675  1  0  -0.704169  0  2.06827  0  0  -0.668371  0  2.325972  0  0  -0.695068  0  2.320004  0  0  -0.368747  -0.649479  0  2.329517  0
O  O85  1  0.67222297  0.96674607  0.17723484  1  0  -0.704209  0  2.068216  0  0  -0.668398  0  2.325943  0  0  -0.695098  0  2.31997  0  0  -0.368749  -0.649504  0  2.329489  0
