# generated using pymatgen
data_NiH4C7O5
_symmetry_space_group_name_H-M   'P 1'
_cell_length_a   8.97991419
_cell_length_b   8.97996734
_cell_length_c   10.17798989
_cell_angle_alpha   89.98135611
_cell_angle_beta   90.01937526
_cell_angle_gamma   120.04231039
_symmetry_Int_Tables_number   1
_chemical_formula_structural   NiH4C7O5
_chemical_formula_sum   'Ni3 H12 C21 O15'
_cell_volume   710.48389883
_cell_formula_units_Z   3
loop_
 _symmetry_equiv_pos_site_id
 _symmetry_equiv_pos_as_xyz
  1  'x, y, z'
loop_
 _atom_site_type_symbol
 _atom_site_label
 _atom_site_symmetry_multiplicity
 _atom_site_fract_x
 _atom_site_fract_y
 _atom_site_fract_z
 _atom_site_occupancy
 _atom_site_hle17_ddec_charge
 _atom_site_hle17_ddec_spin_density
 _atom_site_hle17_ddec_sum_bond_order
 _atom_site_hle17_magmom
 _atom_site_hse06_10hf_ddec_charge
 _atom_site_hse06_10hf_ddec_spin_density
 _atom_site_hse06_10hf_ddec_sum_bond_order
 _atom_site_hse06_10hf_magmom
 _atom_site_hse06_ddec_charge
 _atom_site_hse06_ddec_spin_density
 _atom_site_hse06_ddec_sum_bond_order
 _atom_site_hse06_magmom
 _atom_site_pbe_cm5_charge
 _atom_site_pbe_ddec_charge
 _atom_site_pbe_ddec_spin_density
 _atom_site_pbe_ddec_sum_bond_order
 _atom_site_pbe_magmom
Ni  Ni0  1  0.99994826  0.97178275  0.16683132  1  0.990165  1.754747  1.878141  1.52  1.019987  1.83324  2.280911  1.666  1.106699  1.883005  2.212582  1.749  0.634725  0.936939  1.782555  2.349863  1.585
Ni  Ni1  1  0.02844731  0.02844521  0.50000165  1  0.98986  1.751641  1.880589  1.52  1.019294  1.829698  2.283311  1.666  1.106005  1.8795  2.214973  1.749  0.634657  0.936034  1.779095  2.352861  1.585
Ni  Ni2  1  0.97178319  0.99994594  0.83317103  1  0.990294  1.754771  1.878105  1.52  1.020046  1.833237  2.280919  1.666  1.106752  1.882998  2.212591  1.749  0.634809  0.937012  1.782532  2.349855  1.585
H  H3  1  0.74621491  0.64661430  0.30005766  1  0.411073  2e-06  0.785072  0.0  0.404509  0.000317  0.826638  0.001  0.412623  0.000173  0.818235  0.0  0.353511  0.397992  0.000474  0.833308  0.001
H  H4  1  0.35348510  0.09946855  0.63373217  1  0.41115  1e-05  0.785111  0.0  0.40449  0.000324  0.826729  0.001  0.412626  0.000179  0.818312  0.0  0.353724  0.397967  0.000482  0.833404  0.001
H  H5  1  0.90045601  0.25375522  0.96647044  1  0.411651  7e-06  0.785335  0.0  0.405092  0.000323  0.826731  0.001  0.413214  0.000179  0.818307  0.0  0.354179  0.398583  0.000478  0.833408  0.001
H  H6  1  0.64661665  0.74621937  0.69994730  1  0.411066  2e-06  0.785152  0.0  0.4045  0.000317  0.826722  0.001  0.412613  0.000173  0.81832  0.0  0.353524  0.397984  0.000474  0.833391  0.001
H  H7  1  0.09947640  0.35349491  0.36628614  1  0.411145  1e-05  0.785051  0.0  0.404492  0.000323  0.826657  0.001  0.412618  0.000179  0.81824  0.0  0.35379  0.397973  0.000481  0.833331  0.001
H  H8  1  0.25377195  0.90047836  0.03353514  1  0.411687  6e-06  0.785261  0.0  0.405154  0.000323  0.826648  0.001  0.413278  0.000179  0.818221  0.0  0.354146  0.398645  0.000479  0.833325  0.001
H  H9  1  0.47892997  0.39192125  0.20150449  1  0.126347  0.000197  0.939147  0.001  0.135132  0.000211  1.000337  0.0  0.138768  0.000131  0.997962  0.0  0.105891  0.132497  0.000294  1.002338  0.0
H  H10  1  0.60800656  0.08679172  0.53522179  1  0.126772  0.000204  0.938876  0.001  0.134994  0.000214  1.000763  0.0  0.138714  0.000134  0.998269  0.0  0.105864  0.132358  0.000298  1.002757  0.0
H  H11  1  0.91288548  0.52079295  0.86789112  1  0.127115  0.000202  0.938563  0.001  0.135292  0.000212  1.000471  0.0  0.139013  0.000132  0.997959  0.0  0.106039  0.132646  0.000295  1.002495  0.0
H  H12  1  0.39193174  0.47893820  0.79847591  1  0.126498  0.000194  0.939058  0.001  0.135252  0.000211  1.000253  0.0  0.138893  0.000131  0.997878  0.0  0.105947  0.132618  0.000295  1.002258  0.0
H  H13  1  0.08680139  0.60800309  0.46479003  1  0.12663  0.000203  0.938858  0.001  0.13486  0.000214  1.000741  0.0  0.138581  0.000134  0.998247  0.0  0.105747  0.132225  0.000298  1.002735  0.0
H  H14  1  0.52080819  0.91291294  0.13210916  1  0.127063  0.000203  0.93863  0.001  0.135241  0.000212  1.000525  0.0  0.138966  0.000132  0.998023  0.0  0.106091  0.132595  0.000295  1.002549  0.0
C  C15  1  0.73258842  0.73258552  0.00000120  1  0.161166  0.004312  3.870404  0.001  0.147394  0.004015  4.14086  0.003  0.156873  0.002585  4.163151  0.002  0.062563  0.140468  0.005924  4.122325  0.004
C  C16  1  0.26766056  0.00026952  0.33360256  1  0.162982  0.004249  3.866876  0.001  0.148449  0.004007  4.138244  0.003  0.157925  0.002588  4.160505  0.002  0.063107  0.141509  0.005901  4.119707  0.004
C  C17  1  0.00025673  0.26765046  0.66640979  1  0.162788  0.004257  3.866956  0.001  0.148254  0.004009  4.13832  0.003  0.157725  0.002591  4.160589  0.002  0.063017  0.14132  0.005903  4.119784  0.004
C  C18  1  0.52242290  0.47391550  0.11448024  1  -0.21394  -0.004882  3.781373  -0.003  -0.25114  0.002046  4.042494  0.002  -0.251372  0.001316  4.060569  0.001  -0.115261  -0.251466  0.002793  4.030748  0.003
C  C19  1  0.52597871  0.04824349  0.44821874  1  -0.214453  -0.005011  3.781029  -0.003  -0.250991  0.002004  4.042557  0.002  -0.251253  0.001285  4.060604  0.001  -0.115039  -0.251317  0.002737  4.030862  0.003
C  C20  1  0.95138207  0.47740824  0.78084623  1  -0.215872  -0.004962  3.779569  -0.003  -0.252483  0.002013  4.041056  0.002  -0.252742  0.001292  4.059053  0.001  -0.115908  -0.252787  0.00275  4.029383  0.003
C  C21  1  0.47392381  0.52241175  0.88550382  1  -0.214183  -0.004852  3.78146  -0.003  -0.251332  0.002045  4.042572  0.002  -0.251575  0.001315  4.060659  0.001  -0.115347  -0.251658  0.002793  4.030828  0.003
C  C22  1  0.04822871  0.52596927  0.55179829  1  -0.214374  -0.004993  3.78083  -0.003  -0.250885  0.002003  4.042374  0.002  -0.251151  0.001285  4.06042  0.001  -0.114941  -0.251213  0.002737  4.030692  0.003
C  C23  1  0.47742565  0.95141559  0.21916188  1  -0.21576  -0.005003  3.779781  -0.003  -0.252386  0.002013  4.041259  0.002  -0.252655  0.001292  4.05927  0.001  -0.116047  -0.25269  0.002749  4.02959  0.003
C  C24  1  0.25582439  0.25581684  0.99999165  1  0.642332  -0.018396  3.891831  -0.015  0.610972  -0.001654  4.193852  -0.001  0.651882  -0.001464  4.18388  -0.001  0.203139  0.579717  -0.00263  4.199674  -0.003
C  C25  1  0.74394117  0.99976794  0.33374873  1  0.638817  -0.018446  3.896418  -0.015  0.607594  -0.001726  4.198554  -0.001  0.648477  -0.001522  4.188714  -0.001  0.202437  0.576369  -0.002713  4.204268  -0.003
C  C26  1  0.99976129  0.74393781  0.66625920  1  0.6388  -0.018444  3.896446  -0.015  0.607585  -0.001728  4.198589  -0.001  0.648461  -0.001522  4.188759  -0.001  0.202422  0.576359  -0.002714  4.204305  -0.003
C  C27  1  0.67852522  0.62667645  0.11252737  1  0.21155  0.009616  3.822769  0.012  0.199331  0.002935  4.097354  0.004  0.203458  0.001499  4.116118  0.002  0.056502  0.196517  0.004826  4.084113  0.006
C  C28  1  0.37343388  0.05182697  0.44621250  1  0.211961  0.009627  3.823225  0.012  0.199538  0.002951  4.098333  0.004  0.203652  0.001519  4.117126  0.002  0.0567  0.196732  0.004838  4.085087  0.006
C  C29  1  0.94830226  0.32151984  0.77891814  1  0.212415  0.009583  3.821637  0.012  0.200475  0.00292  4.096031  0.004  0.204625  0.001493  4.114771  0.002  0.057021  0.19764  0.004805  4.082839  0.006
C  C30  1  0.62667639  0.67852246  0.88747121  1  0.211714  0.009606  3.822499  0.012  0.199441  0.002936  4.09714  0.004  0.203568  0.0015  4.115907  0.002  0.056573  0.196629  0.004827  4.083899  0.006
C  C31  1  0.05182211  0.37342980  0.55379976  1  0.211946  0.009622  3.823289  0.012  0.199489  0.002951  4.098383  0.004  0.203609  0.001519  4.117172  0.002  0.056724  0.196671  0.004839  4.085152  0.006
C  C32  1  0.32153452  0.94832338  0.22108908  1  0.212444  0.009604  3.821451  0.012  0.200546  0.002921  4.095855  0.004  0.2047  0.001493  4.114588  0.002  0.057168  0.197708  0.004805  4.082667  0.006
C  C33  1  0.42117865  0.42116402  0.99999161  1  -0.040338  0.022542  3.827723  0.028  -0.026602  0.00731  4.074727  0.01  -0.035047  0.00428  4.097458  0.006  -0.038312  -0.019963  0.011156  4.059494  0.014
C  C34  1  0.57863498  0.99973915  0.33371993  1  -0.038756  0.022517  3.826139  0.028  -0.025327  0.007321  4.073278  0.01  -0.033837  0.004299  4.096179  0.006  -0.038418  -0.018701  0.011157  4.058027  0.014
C  C35  1  0.99971575  0.57862581  0.66629100  1  -0.038563  0.022504  3.825917  0.028  -0.025202  0.007322  4.073148  0.01  -0.033706  0.004299  4.096034  0.006  -0.038365  -0.018576  0.011158  4.057901  0.014
O  O36  1  0.79816553  0.68780732  0.21389509  1  -0.507062  0.015168  2.166783  0.024  -0.469236  0.015068  2.383511  0.023  -0.487999  0.011842  2.36972  0.019  -0.337744  -0.453305  0.018037  2.393899  0.027
O  O37  1  0.31243950  0.11033052  0.54753482  1  -0.507556  0.01513  2.166936  0.023  -0.469383  0.015051  2.383643  0.023  -0.488133  0.011836  2.369864  0.019  -0.338106  -0.453447  0.018009  2.394071  0.027
O  O38  1  0.89007512  0.20194794  0.88032454  1  -0.508677  0.015115  2.167397  0.023  -0.470695  0.015038  2.383942  0.023  -0.489445  0.01182  2.370095  0.019  -0.33874  -0.454782  0.017997  2.394398  0.027
O  O39  1  0.68779998  0.79817536  0.78610844  1  -0.507153  0.015172  2.166709  0.024  -0.469315  0.015069  2.38346  0.023  -0.488075  0.011842  2.369667  0.019  -0.337836  -0.453389  0.018039  2.393852  0.027
O  O40  1  0.11034963  0.31244783  0.45248038  1  -0.507585  0.015127  2.166863  0.023  -0.469374  0.015049  2.383516  0.023  -0.488109  0.011834  2.369724  0.019  -0.33821  -0.453439  0.018006  2.393951  0.027
O  O41  1  0.20195422  0.89008985  0.11967970  1  -0.508683  0.015116  2.167039  0.023  -0.470822  0.015039  2.383649  0.023  -0.489573  0.011821  2.369798  0.019  -0.338757  -0.454906  0.017998  2.394106  0.027
O  O42  1  0.17121019  0.21225494  0.10788003  1  -0.609855  0.058814  2.058422  0.102  -0.601788  0.034693  2.335702  0.064  -0.639973  0.023472  2.322656  0.047  -0.320611  -0.569471  0.045628  2.343806  0.079
O  O43  1  0.78781572  0.95928740  0.44175452  1  -0.609125  0.058877  2.05972  0.102  -0.600871  0.034769  2.336855  0.064  -0.639026  0.023533  2.323811  0.047  -0.320441  -0.568495  0.045739  2.344938  0.079
O  O44  1  0.04036255  0.82827651  0.77428143  1  -0.608976  0.058672  2.059361  0.102  -0.600801  0.034588  2.336417  0.063  -0.638948  0.023386  2.323388  0.047  -0.320604  -0.568497  0.045521  2.344491  0.078
O  O45  1  0.21224926  0.17119646  0.89210940  1  -0.609915  0.058816  2.058325  0.102  -0.601833  0.034693  2.335617  0.064  -0.640005  0.023473  2.322552  0.047  -0.320694  -0.569522  0.045626  2.343725  0.079
O  O46  1  0.95928796  0.78781441  0.55824656  1  -0.609172  0.058885  2.059648  0.102  -0.600917  0.034774  2.33678  0.064  -0.639073  0.023536  2.323737  0.047  -0.320472  -0.568539  0.045746  2.344862  0.079
O  O47  1  0.82828121  0.04036372  0.22572254  1  -0.609025  0.05868  2.059212  0.102  -0.600866  0.03459  2.336276  0.063  -0.639016  0.023387  2.323244  0.047  -0.320664  -0.568557  0.045523  2.344345  0.078
O  O48  1  0.88053269  0.88053178  0.00000498  1  -0.588397  0.080241  2.369152  0.134  -0.584673  0.04785  2.707852  0.08  -0.630849  0.035958  2.700268  0.062  -0.346269  -0.541967  0.060192  2.708608  0.097
O  O49  1  0.12000889  0.00070045  0.33343575  1  -0.590098  0.080369  2.369053  0.134  -0.585339  0.047872  2.707464  0.08  -0.631479  0.035981  2.699768  0.062  -0.346625  -0.542608  0.060239  2.708411  0.097
O  O50  1  0.00069576  0.12000361  0.66657577  1  -0.589914  0.08037  2.369087  0.134  -0.58514  0.04787  2.70748  0.08  -0.631277  0.035978  2.699788  0.062  -0.346604  -0.542415  0.060236  2.708442  0.097
