# generated using pymatgen
data_Zn2H20C46N8O20F9
_symmetry_space_group_name_H-M   'P 1'
_cell_length_a   19.65574926
_cell_length_b   19.59377540
_cell_length_c   19.65423366
_cell_angle_alpha   111.84671462
_cell_angle_beta   104.52137363
_cell_angle_gamma   111.24765629
_symmetry_Int_Tables_number   1
_chemical_formula_structural   Zn2H20C46N8O20F9
_chemical_formula_sum   'Zn4 H40 C92 N16 O40 F18'
_cell_volume   5861.74687030
_cell_formula_units_Z   2
loop_
 _symmetry_equiv_pos_site_id
 _symmetry_equiv_pos_as_xyz
  1  'x, y, z'
loop_
 _atom_site_type_symbol
 _atom_site_label
 _atom_site_symmetry_multiplicity
 _atom_site_fract_x
 _atom_site_fract_y
 _atom_site_fract_z
 _atom_site_occupancy
 _atom_site_pbe_bader_charge
 _atom_site_pbe_bader_spin_density
 _atom_site_pbe_cm5_charge
 _atom_site_pbe_ddec_charge
 _atom_site_pbe_ddec_spin_density
 _atom_site_pbe_ddec_sum_bond_order
 _atom_site_pbe_magmom
Zn  Zn0  1  0.00345769  0.62089746  0.09557849  1  1.242008  0  0.744563  0.66589  0  2.437335  0
Zn  Zn1  1  0.98455856  0.37766638  0.88947442  1  1.227808  0  0.758398  0.701364  0  2.367204  0
Zn  Zn2  1  0.10916153  0.59301104  0.98744393  1  1.223148  0  0.763504  0.686091  0  2.426486  0
Zn  Zn3  1  0.89964932  0.40579471  0.02048428  1  1.23377  0  0.756739  0.698258  0  2.34759  0
H  H4  1  0.84805671  0.58902655  0.96057091  1  0.10386  0  0.125453  0.121135  0  0.990823  0
H  H5  1  0.92704128  0.17358380  0.82405239  1  0.095756  0  0.127222  0.121037  0  0.980123  0
H  H6  1  0.13292142  0.82196222  0.23456781  1  0.112543  0  0.126006  0.11929  0  0.990919  0
H  H7  1  0.02726416  0.39700093  0.15218403  1  0.145293  0  0.12948  0.131119  0  0.98381  0
H  H8  1  0.23969918  0.62150729  0.14821772  1  0.121873  0  0.127604  0.125565  0  0.982799  0
H  H9  1  0.41838876  0.47047748  0.00340304  1  0.101083  0  0.117924  0.132958  0  0.95904  0
H  H10  1  0.52777455  0.64834214  0.24266329  1  0.09742  0  0.113225  0.122112  0  0.971459  0
H  H11  1  0.59832557  0.55468175  0.27931571  1  0.086728  0  0.107862  0.099615  0  0.98118  0
H  H12  1  0.44569697  0.40093848  0.17136337  1  0.097052  0  0.112881  0.11219  0  0.972042  0
H  H13  1  0.58256628  0.23055489  0.50556545  1  0.086129  0  0.114189  0.146991  0  0.944125  0
H  H14  1  0.45761880  0.17785314  0.61744337  1  0.118253  0  0.109357  0.138264  0  0.977711  0
H  H15  1  0.47164235  0.22300403  0.55554946  1  0.072869  0  0.10564  0.129322  0  0.981464  0
H  H16  1  0.51296154  0.00058501  0.44289970  1  0.170402  0  0.116012  0.092504  0  0.99829  0
H  H17  1  0.60742876  0.14921084  0.49271825  1  0.11394  0  0.112752  0.14793  0  0.978875  0
H  H18  1  0.15356383  0.39437082  0.50354766  1  0.14001  0  0.109128  0.078155  0  1.000177  0
H  H19  1  0.02206107  0.52258606  0.44515158  1  0.203017  0  0.129585  0.160608  0  0.984192  0
H  H20  1  0.23926521  0.63049890  0.54104407  1  0.200055  0  0.130203  0.158796  0  1.003651  0
H  H21  1  0.78268679  0.76099409  0.74970399  1  0.136105  0  0.109485  0.074076  0  1.018377  0
H  H22  1  0.99286161  0.87009026  0.91272623  1  0.163063  0  0.121104  0.115036  0  0.961892  0
H  H23  1  0.79681056  0.93173961  0.94743591  1  0.162095  0  0.122378  0.098714  0  0.959234  0
H  H24  1  0.07518672  0.24700600  0.84253415  1  0.634913  0  0.34926  0.388494  0  0.846276  0
H  H25  1  0.49472757  0.30797963  0.92757215  1  0.624894  0  0.346633  0.387709  0  0.848762  0
H  H26  1  0.29793460  0.18366822  0.44648714  1  0.636302  0  0.352686  0.38879  0  0.839319  0
H  H27  1  0.26585575  0.91800381  0.48564195  1  0.629813  0  0.353212  0.394822  0  0.834875  0
H  H28  1  0.67871071  0.07789174  0.68030087  1  0.619309  0  0.354214  0.391267  0  0.83499  0
H  H29  1  0.47167566  0.03034602  0.23552891  1  0.611719  0  0.356815  0.393029  0  0.831497  0
H  H30  1  0.30404179  0.47759526  0.42126674  1  0.625168  0  0.35303  0.388768  0  0.838966  0
H  H31  1  0.89118837  0.26589231  0.30162248  1  0.630927  0  0.358847  0.396732  0  0.824826  0
H  H32  1  0.12623068  0.27164669  0.32738505  1  0.60502  0  0.355428  0.393675  0  0.833562  0
H  H33  1  0.08746322  0.73050792  0.56208386  1  0.614961  0  0.353259  0.389732  0  0.838343  0
H  H34  1  0.01570188  0.61127670  0.69077668  1  0.66333  0  0.317848  0.376236  0  0.926639  0
H  H35  1  0.32452385  0.68866365  0.78767908  1  0.638457  0  0.355763  0.39462  0  0.829381  0
H  H36  1  0.63432195  0.63535681  0.74223407  1  0.621196  0  0.362612  0.400182  0  0.822237  0
H  H37  1  0.75389713  0.82000998  0.61967927  1  0.620713  0  0.355844  0.394673  0  0.832149  0
H  H38  1  0.02907414  0.01777574  0.79273656  1  0.624606  0  0.356733  0.394446  0  0.830915  0
H  H39  1  0.80603728  0.76251576  0.03955872  1  0.633649  0  0.330576  0.384273  0  0.884393  0
H  H40  1  0.94747415  0.77038636  0.12263491  1  0.646184  0  0.358607  0.402842  0  0.827248  0
H  H41  1  0.69175878  0.28121432  0.96355430  1  0.622871  0  0.349507  0.395885  0  0.840594  0
H  H42  1  0.13466089  0.68658169  0.85033606  1  0.619221  0  0.350432  0.394963  0  0.840872  0
H  H43  1  0.07919400  0.77141404  0.31536978  1  0.598078  0  0.348149  0.386116  0  0.848207  0
C  C44  1  0.89616606  0.59522611  0.94162558  1  0.480871  0  0.021937  -0.035841  0  3.91171  0
C  C45  1  0.75248209  0.33596837  0.78073153  1  0.205636  0  -0.017585  -0.070544  0  4.161355  0
C  C46  1  0.10533754  0.46364116  0.76007509  1  0.206962  0  -0.037945  -0.185704  0  4.230653  0
C  C47  1  0.78144549  0.53789939  0.11864107  1  0.179912  0  -0.015034  -0.062758  0  4.176778  0
C  C48  1  0.08340531  0.60025041  0.23691419  1  0.477424  0  0.09132  0.000403  0  3.957378  0
C  C49  1  0.14504874  0.41772026  0.00932908  1  0.486589  0  0.089608  0.001431  0  3.942639  0
C  C50  1  0.23630739  0.76945662  0.14095577  1  1.05111  0  0.210381  0.324739  0  4.107764  0
C  C51  1  0.89391682  0.23476902  0.98448646  1  1.057224  0  0.215261  0.336829  0  4.096593  0
C  C52  1  0.91751531  0.20280886  0.87692243  1  0.477263  0  0.02603  -0.014153  0  3.962933  0
C  C53  1  0.15812295  0.79551406  0.19594961  1  0.442783  0  0.026271  -0.008076  0  3.947331  0
C  C54  1  0.04183574  0.46199013  0.17022181  1  0.431032  0  0.028616  -0.032235  0  3.883996  0
C  C55  1  0.83242034  0.36944984  0.78876622  1  1.048997  0  0.214831  0.330606  0  4.063674  0
C  C56  1  0.20040618  0.55517448  0.09957143  1  0.475902  0  0.021647  -0.043732  0  3.903736  0
C  C57  1  0.08710982  0.53474692  0.24934993  1  0.140505  0  -0.002109  0.053676  0  4.119275  0
C  C58  1  0.21729223  0.48831802  0.07996871  1  0.061946  0  -0.006456  0.051933  0  4.137854  0
C  C59  1  0.24042601  0.82997724  0.21094453  1  0.168407  0  -0.02853  -0.063493  0  4.209336  0
C  C60  1  0.90005387  0.17081864  0.92759284  1  0.187004  0  -0.029086  -0.069327  0  4.208286  0
C  C61  1  0.45859251  0.48964429  0.06482930  1  -0.022142  0  -0.065268  -0.166185  0  3.582196  0
C  C62  1  0.54133235  0.57393591  0.12534068  1  0.614828  0  0.113153  0.279921  0  3.735291  0
C  C63  1  0.71707036  0.54066260  0.13498098  1  0.143685  0  -0.050274  -0.073594  0  4.197996  0
C  C64  1  0.29224603  0.49291918  0.11178441  1  0.024489  0  -0.050804  -0.094276  0  4.179152  0
C  C65  1  0.49554884  0.43756969  0.08585132  1  0.014487  0  0.007177  -0.009107  0  3.601957  0
C  C66  1  0.14636618  0.53111036  0.84171625  1  1.09402  0  0.214861  0.35042  0  4.119033  0
C  C67  1  0.58276189  0.52417930  0.14638216  1  0.093508  0  0.010983  0.050561  0  3.79961  0
C  C68  1  0.47369692  0.45138116  0.15893677  1  -0.012582  0  -0.061524  -0.090431  0  3.592422  0
C  C69  1  0.43419903  0.50320017  0.13816294  1  0.105764  0  0.013591  0.151764  0  3.7978  0
C  C70  1  0.55745595  0.53630406  0.21846194  1  -0.040504  0  -0.065581  -0.062642  0  3.641916  0
C  C71  1  0.51960426  0.58843089  0.19847006  1  -0.034623  0  -0.074025  -0.163639  0  3.626418  0
C  C72  1  0.65660746  0.53372438  0.14472582  1  -0.416389  0  -0.038719  -0.083976  0  4.114868  0
C  C73  1  0.35760953  0.49561626  0.12891062  1  -0.335382  0  -0.044985  -0.105384  0  4.089022  0
C  C74  1  0.56068973  0.16638951  0.49671638  1  -0.04151  0  -0.155681  -0.311904  0  3.839248  0
C  C75  1  0.46543617  0.16826890  0.56205197  1  -0.03493  0  -0.159189  -0.250076  0  3.81717  0
C  C76  1  0.38937341  0.08480097  0.48700705  1  0.014102  0  0.005576  -0.110811  0  3.661208  0
C  C77  1  0.79657988  0.47005197  0.10106723  1  1.0541  0  0.215608  0.330874  0  4.067234  0
C  C78  1  0.30718646  0.90256888  0.28267859  1  -0.139584  0  -0.045254  -0.050654  0  4.135608  0
C  C79  1  0.54494927  0.16588210  0.57002099  1  0.137105  0  0.007781  0.14642  0  3.86968  0
C  C80  1  0.48135809  0.10423586  0.41710462  1  0.514788  0  0.107843  0.179453  0  3.758527  0
C  C81  1  0.41993623  0.03591049  0.42922838  1  0.12442  0  0.011134  0.037782  0  3.805779  0
C  C82  1  0.47442530  0.00901137  0.47351664  1  0.497726  0  0.027049  0.089323  0  3.807649  0
C  C83  1  0.52995980  0.07908032  0.56437584  1  0.529063  0  0.100704  0.085871  0  3.793945  0
C  C84  1  0.35668829  0.96335771  0.35041096  1  -0.083778  0  -0.05253  -0.095141  0  4.105796  0
C  C85  1  0.61532084  0.23652401  0.64646509  1  0.164905  0  -0.040097  -0.095574  0  4.004562  0
C  C86  1  0.67884158  0.28717373  0.70892726  1  -0.481439  0  -0.047048  -0.064212  0  4.163257  0
C  C87  1  0.21899676  0.56261204  0.51868650  1  -0.04609  0  -0.087313  -0.28402  0  3.75966  0
C  C88  1  0.04172385  0.40314430  0.76286663  1  1.101669  0  0.220463  0.361423  0  4.110735  0
C  C89  1  0.08114255  0.41364876  0.41755700  1  0.006226  0  0.002243  -0.205997  0  3.627369  0
C  C90  1  0.10269250  0.40621948  0.49516857  1  0.546875  0  0.027744  0.157705  0  3.792909  0
C  C91  1  0.11829350  0.46437561  0.69371050  1  -0.406575  0  -0.0455  -0.026129  0  4.167206  0
C  C92  1  0.12964419  0.51362096  0.45009449  1  0.123216  0  0.024537  0.191614  0  3.750256  0
C  C93  1  0.22168371  0.55140289  0.59286601  1  0.508594  0  0.115094  0.185922  0  3.684449  0
C  C94  1  0.13224933  0.49139800  0.57458810  1  0.104479  0  0.000278  -0.025783  0  3.865032  0
C  C95  1  0.07292009  0.52531065  0.55514336  1  0.521539  0  0.111185  0.175713  0  3.717336  0
C  C96  1  0.08426636  0.55312915  0.49265761  1  -0.064333  0  -0.080296  -0.273279  0  3.753019  0
C  C97  1  0.12946444  0.47462002  0.63956983  1  0.187303  0  -0.051618  -0.096618  0  4.1068  0
C  C98  1  0.12712837  0.52848342  0.38284291  1  -0.079111  0  -0.043993  -0.096885  0  4.028043  0
C  C99  1  0.84487156  0.59557154  0.11206936  1  0.470453  0  0.089603  0.001592  0  3.987495  0
C  C100  1  0.11471154  0.53616754  0.32322419  1  -0.148851  0  -0.035536  -0.054494  0  4.101739  0
C  C101  1  0.79666916  0.81160840  0.89692789  1  -0.006773  0  -0.003352  -0.206469  0  3.679346  0
C  C102  1  0.84817427  0.80027074  0.78995394  1  0.531597  0  0.027797  0.140174  0  3.774066  0
C  C103  1  0.87726709  0.89239571  0.80525384  1  0.011456  0  0.001715  -0.185715  0  3.661452  0
C  C104  1  0.89304296  0.09476796  0.92106443  1  0.170139  0  -0.037222  -0.030776  0  4.144136  0
C  C105  1  0.86203279  0.79729067  0.87090879  1  0.094689  0  0.002367  0.059922  0  3.847877  0
C  C106  1  0.80080352  0.89144583  0.89401568  1  0.484032  0  0.039039  0.153661  0  3.731945  0
C  C107  1  0.88000581  0.94571478  0.89077771  1  0.102296  0  0.00427  -0.011484  0  3.871447  0
C  C108  1  0.95220914  0.95863737  0.95983246  1  1.114758  0  0.197251  0.403622  0  3.894114  0
C  C109  1  0.94917191  0.87293135  0.93761448  1  0.502182  0  0.023809  0.024623  0  3.811202  0
C  C110  1  0.76526090  0.34842293  0.85970231  1  0.476278  0  0.094466  0.01909  0  3.967621  0
C  C111  1  0.88827321  0.02715183  0.90723332  1  -0.395413  0  -0.058986  -0.112401  0  4.117603  0
C  C112  1  0.86117059  0.71938173  0.85907897  1  0.023943  0  -0.051152  -0.09016  0  4.055978  0
C  C113  1  0.87870335  0.66701581  0.86258906  1  -0.236561  0  -0.037007  -0.065183  0  4.112439  0
C  C114  1  0.98219366  0.61963182  0.88713241  1  0.47032  0  0.093032  0.001297  0  3.94059  0
C  C115  1  0.91122284  0.62252306  0.88754030  1  0.100903  0  -0.006442  0.046914  0  4.119721  0
C  C116  1  0.13463574  0.33597529  0.95402483  1  1.473424  0  0.230434  0.561702  0  4.135601  0
C  C117  1  0.49106548  0.35884989  0.02910125  1  1.524381  0  0.227475  0.570715  0  4.148634  0
C  C118  1  0.32628169  0.10048163  0.43965287  1  1.554088  0  0.231843  0.575162  0  4.077328  0
C  C119  1  0.33765908  0.03169222  0.51674382  1  1.573999  0  0.234786  0.577037  0  4.083328  0
C  C120  1  0.60958042  0.07876769  0.59536161  1  1.531959  0  0.233264  0.534836  0  4.118415  0
C  C121  1  0.49641376  0.05956988  0.34442103  1  1.538215  0  0.233003  0.524276  0  4.112328  0
C  C122  1  0.28527157  0.55293633  0.49692759  1  1.552426  0  0.233275  0.621447  0  4.07998  0
C  C123  1  0.98795994  0.37259059  0.36360485  1  1.589616  0  0.240783  0.586457  0  4.068137  0
C  C124  1  0.10015945  0.35832570  0.35330076  1  1.556769  0  0.229791  0.592145  0  4.082149  0
C  C125  1  0.11789862  0.64787260  0.52332781  1  1.545527  0  0.2358  0.603365  0  4.055909  0
C  C126  1  0.07996643  0.59155199  0.63452536  1  1.604421  0  0.224003  0.523575  0  4.148723  0
C  C127  1  0.27432720  0.63957733  0.67376703  1  1.601029  0  0.230723  0.530935  0  4.090166  0
C  C128  1  0.70680379  0.73790580  0.84284610  1  1.583617  0  0.236389  0.587502  0  4.092054  0
C  C129  1  0.81791654  0.89015461  0.73408129  1  1.557479  0  0.231198  0.581001  0  4.078556  0
C  C130  1  0.96252922  0.93313864  0.80738216  1  1.553105  0  0.235507  0.580406  0  4.065256  0
C  C131  1  0.80819635  0.82478040  0.98363816  1  1.584413  0  0.2333  0.587693  0  4.084639  0
C  C132  1  0.86326071  0.67789818  0.11877470  1  1.473049  0  0.237686  0.562609  0  4.128888  0
C  C133  1  0.70317403  0.31585108  0.88603045  1  1.514873  0  0.232815  0.568007  0  4.13066  0
C  C134  1  0.02785194  0.64551667  0.84405745  1  1.510244  0  0.244125  0.579476  0  4.116766  0
C  C135  1  0.10782353  0.68599515  0.29959704  1  1.467374  0  0.231244  0.556702  0  4.143188  0
N  N136  1  0.95483451  0.58013152  0.97281919  1  -0.773148  0  -0.266674  -0.188854  0  3.603009  0
N  N137  1  0.09072169  0.44272537  0.99082077  1  -0.746952  0  -0.264893  -0.19349  0  3.600742  0
N  N138  1  0.16020214  0.70501203  0.08975440  1  -0.8096  0  -0.287042  -0.297355  0  3.581352  0
N  N139  1  0.90670371  0.29860920  0.97041581  1  -0.812166  0  -0.280894  -0.299973  0  3.554596  0
N  N140  1  0.92182579  0.27867638  0.90262474  1  -0.800262  0  -0.276472  -0.185779  0  3.555179  0
N  N141  1  0.11065102  0.72101023  0.12456455  1  -0.79451  0  -0.275757  -0.182758  0  3.534952  0
N  N142  1  0.01364242  0.48314339  0.11566473  1  -0.777695  0  -0.268143  -0.190219  0  3.614245  0
N  N143  1  0.12462691  0.52654333  0.04476315  1  -0.766758  0  -0.268392  -0.194301  0  3.587067  0
N  N144  1  0.88760947  0.39853808  0.86386612  1  -0.764583  0  -0.271188  -0.297388  0  3.554111  0
N  N145  1  0.11108072  0.51402742  0.88738538  1  -0.81275  0  -0.286918  -0.290399  0  3.541834  0
N  N146  1  0.86003580  0.48321415  0.08351875  1  -0.754668  0  -0.254126  -0.264797  0  3.503033  0
N  N147  1  0.04393744  0.43172790  0.83656302  1  -0.816484  0  -0.284348  -0.295075  0  3.559527  0
N  N148  1  0.89061876  0.56157360  0.09158710  1  -0.728753  0  -0.253325  -0.178552  0  3.539676  0
N  N149  1  0.84571425  0.38629316  0.90781212  1  -0.744795  0  -0.263262  -0.184689  0  3.588919  0
N  N150  1  0.00695037  0.59449554  0.93945846  1  -0.74603  0  -0.261204  -0.18763  0  3.569903  0
N  N151  1  0.03961839  0.56738599  0.15613030  1  -0.750367  0  -0.262949  -0.191649  0  3.595102  0
O  O152  1  0.17399593  0.30387436  0.97085992  1  -1.10101  0  -0.283009  -0.460258  0  2.053851  0
O  O153  1  0.07636647  0.29964393  0.87522551  1  -1.140012  0  -0.340154  -0.509072  0  2.282749  0
O  O154  1  0.49034289  0.30328735  0.04373465  1  -1.126036  0  -0.304287  -0.494976  0  2.037616  0
O  O155  1  0.49219417  0.35828695  0.95990300  1  -1.115133  0  -0.335316  -0.485171  0  2.200664  0
O  O156  1  0.26440496  0.04478524  0.37664431  1  -1.136087  0  -0.288417  -0.476354  0  2.104596  0
O  O157  1  0.34352567  0.18245860  0.47952337  1  -1.126492  0  -0.329683  -0.468846  0  2.239108  0
O  O158  1  0.33368590  0.06486282  0.58052734  1  -1.124998  0  -0.289514  -0.469457  0  2.075815  0
O  O159  1  0.29448345  0.94743147  0.46192050  1  -1.108075  0  -0.314872  -0.460422  0  2.32174  0
O  O160  1  0.65121918  0.07862892  0.55864409  1  -1.105621  0  -0.28368  -0.462102  0  2.086459  0
O  O161  1  0.62772289  0.07899362  0.66630777  1  -1.09351  0  -0.320608  -0.450244  0  2.237175  0
O  O162  1  0.53696904  0.02521123  0.34731116  1  -1.11829  0  -0.278321  -0.452589  0  2.096995  0
O  O163  1  0.46034844  0.06266426  0.27851360  1  -1.08499  0  -0.322512  -0.454136  0  2.245431  0
O  O164  1  0.35703522  0.60752075  0.53604359  1  -1.130123  0  -0.289608  -0.471745  0  2.037883  0
O  O165  1  0.25672986  0.47654270  0.42982895  1  -1.129594  0  -0.324775  -0.482973  0  2.301193  0
O  O166  1  0.95486988  0.40728628  0.34119917  1  -1.126808  0  -0.269464  -0.45321  0  2.133621  0
O  O167  1  0.94810039  0.28867994  0.33798169  1  -1.114597  0  -0.319265  -0.459974  0  2.25533  0
O  O168  1  0.08787238  0.35311815  0.28733432  1  -1.125865  0  -0.283002  -0.473861  0  2.107582  0
O  O169  1  0.12338339  0.30916187  0.37486374  1  -1.091524  0  -0.33045  -0.475153  0  2.250772  0
O  O170  1  0.18088660  0.69834512  0.52953222  1  -1.11407  0  -0.25648  -0.433873  0  2.133103  0
O  O171  1  0.06258726  0.66890350  0.54004565  1  -1.111834  0  -0.335215  -0.479355  0  2.203038  0
O  O172  1  0.14578326  0.65429546  0.68849055  1  -1.156411  0  -0.290362  -0.482867  0  2.151887  0
O  O173  1  0.00868249  0.57049408  0.63685774  1  -1.131648  0  -0.321264  -0.443976  0  2.302064  0
O  O174  1  0.30289363  0.70711604  0.67613813  1  -1.100674  0  -0.26681  -0.427665  0  2.117343  0
O  O175  1  0.28943016  0.63070705  0.73991715  1  -1.12239  0  -0.326923  -0.464452  0  2.2785  0
O  O176  1  0.65418263  0.73586252  0.86511525  1  -1.1077  0  -0.274959  -0.450869  0  2.060197  0
O  O177  1  0.69281891  0.67745858  0.77005092  1  -1.113326  0  -0.316123  -0.461234  0  2.270887  0
O  O178  1  0.80132312  0.94478253  0.73768623  1  -1.110362  0  -0.272295  -0.451661  0  2.130634  0
O  O179  1  0.78878739  0.81705482  0.66261036  1  -1.109065  0  -0.330786  -0.476225  0  2.218087  0
O  O180  1  0.01403882  0.91415957  0.82445549  1  -1.105422  0  -0.268866  -0.452188  0  2.142498  0
O  O181  1  0.97333932  0.99421364  0.78730650  1  -1.101612  0  -0.323978  -0.466304  0  2.230946  0
O  O182  1  0.81247349  0.88493082  0.03736859  1  -1.107651  0  -0.272932  -0.448037  0  2.105299  0
O  O183  1  0.80655359  0.75698512  0.98765740  1  -1.120178  0  -0.329807  -0.48223  0  2.291397  0
O  O184  1  0.81721106  0.70618745  0.11430922  1  -1.108901  0  -0.267094  -0.455647  0  2.083131  0
O  O185  1  0.94115596  0.72082213  0.12776254  1  -1.139525  0  -0.328351  -0.495214  0  2.296449  0
O  O186  1  0.63384321  0.30239352  0.85905396  1  -1.107166  0  -0.276085  -0.451558  0  2.045543  0
O  O187  1  0.73348287  0.29912309  0.94516523  1  -1.117734  0  -0.334785  -0.503095  0  2.28999  0
O  O188  1  0.99843317  0.64511639  0.78084144  1  -1.130554  0  -0.26273  -0.46415  0  2.133077  0
O  O189  1  0.10809986  0.67199615  0.88304883  1  -1.1096  0  -0.325128  -0.487093  0  2.284169  0
O  O190  1  0.16001773  0.72695978  0.37020533  1  -1.113846  0  -0.27149  -0.448207  0  2.08122  0
O  O191  1  0.05954388  0.71466575  0.26993040  1  -1.102746  0  -0.340191  -0.50432  0  2.276893  0
F  F192  1  0.29728786  0.76985893  0.12187964  1  -0.629385  0  -0.086524  -0.134502  0  1.336086  0
F  F193  1  0.87686429  0.23714007  0.04688959  1  -0.629828  0  -0.081462  -0.128948  0  1.33593  0
F  F194  1  0.57649733  0.63574300  0.10833402  1  -0.633376  0  -0.123323  -0.177872  0  1.273877  0
F  F195  1  0.85573481  0.37153645  0.73102142  1  -0.62399  0  -0.073835  -0.113785  0  1.36328  0
F  F196  1  0.44483164  0.14943639  0.39932021  1  -0.617112  0  -0.117081  -0.163899  0  1.308728  0
F  F197  1  0.21280092  0.60704657  0.87454843  1  -0.634952  0  -0.076012  -0.11995  0  1.360254  0
F  F198  1  0.48949017  0.06517519  0.61122278  1  -0.604601  0  -0.105385  -0.132813  0  1.336628  0
F  F199  1  0.42919506  0.93208580  0.46793288  1  -0.614887  0  -0.126008  -0.148157  0  1.309007  0
F  F200  1  0.26416828  0.50760251  0.60218484  1  -0.609676  0  -0.118484  -0.172521  0  1.269102  0
F  F201  1  0.75486955  0.39846760  0.10050406  1  -0.632833  0  -0.073448  -0.124041  0  1.365461  0
F  F202  1  0.03946769  0.33807379  0.48865226  1  -0.616652  0  -0.129113  -0.158834  0  1.332198  0
F  F203  1  0.99364632  0.45376913  0.51453652  1  -0.608666  0  -0.114211  -0.156225  0  1.326501  0
F  F204  1  0.73381018  0.86489236  0.82330023  1  -0.619123  0  -0.116926  -0.153523  0  1.290903  0
F  F205  1  0.88440127  0.76213048  0.74921507  1  -0.616382  0  -0.120348  -0.145642  0  1.319604  0
F  F206  1  0.98378567  0.32427390  0.70206938  1  -0.624287  0  -0.077167  -0.120301  0  1.340802  0
F  F207  1  0.97192140  0.86806781  0.00821709  1  -0.617782  0  -0.132923  -0.153182  0  1.306121  0
F  F208  1  0.94678183  0.99192810  0.03191851  1  -0.605491  0  -0.099629  -0.165887  0  1.344669  0
F  F209  1  0.02598795  0.01862108  0.97303181  1  -0.618835  0  -0.110648  -0.181985  0  1.310198  0
