# generated using pymatgen
data_CuH9C7SN2Cl
_symmetry_space_group_name_H-M   'P 1'
_cell_length_a   7.62243046
_cell_length_b   7.87152568
_cell_length_c   15.53696339
_cell_angle_alpha   90.00009772
_cell_angle_beta   90.00001792
_cell_angle_gamma   109.16165452
_symmetry_Int_Tables_number   1
_chemical_formula_structural   CuH9C7SN2Cl
_chemical_formula_sum   'Cu4 H36 C28 S4 N8 Cl4'
_cell_volume   880.57175073
_cell_formula_units_Z   4
loop_
 _symmetry_equiv_pos_site_id
 _symmetry_equiv_pos_as_xyz
  1  'x, y, z'
loop_
 _atom_site_type_symbol
 _atom_site_label
 _atom_site_symmetry_multiplicity
 _atom_site_fract_x
 _atom_site_fract_y
 _atom_site_fract_z
 _atom_site_occupancy
 _atom_site_hle17_bader_spin_density
 _atom_site_hle17_ddec_charge
 _atom_site_hle17_ddec_spin_density
 _atom_site_hle17_ddec_sum_bond_order
 _atom_site_hle17_magmom
 _atom_site_hse06_10hf_bader_spin_density
 _atom_site_hse06_10hf_ddec_charge
 _atom_site_hse06_10hf_ddec_spin_density
 _atom_site_hse06_10hf_ddec_sum_bond_order
 _atom_site_hse06_10hf_magmom
 _atom_site_hse06_bader_spin_density
 _atom_site_hse06_ddec_charge
 _atom_site_hse06_ddec_spin_density
 _atom_site_hse06_ddec_sum_bond_order
 _atom_site_hse06_magmom
 _atom_site_pbe_bader_spin_density
 _atom_site_pbe_cm5_charge
 _atom_site_pbe_ddec_charge
 _atom_site_pbe_ddec_spin_density
 _atom_site_pbe_ddec_sum_bond_order
 _atom_site_pbe_magmom
Cu  Cu0  1  0.13376866  0.51784197  0.75495791  1  0  0.379652  0  2.108906  0  0  0.299497  0  2.596607  0  0  0.291784  0  2.559476  0  0  0.387461  0.308588  0  2.618609  0
Cu  Cu1  1  0.36623366  0.48215787  0.25496125  1  0  0.37966  0  2.108875  0  0  0.29951  0  2.596574  0  0  0.291794  0  2.559434  0  0  0.387469  0.308599  0  2.618644  0
Cu  Cu2  1  0.86623002  0.48216317  0.24504043  1  0  0.379628  0  2.108974  0  0  0.299495  0  2.596703  0  0  0.291782  0  2.559559  0  0  0.387465  0.308592  0  2.618757  0
Cu  Cu3  1  0.63376947  0.51783770  0.74503903  1  0  0.37964  0  2.108924  0  0  0.299483  0  2.596625  0  0  0.291797  0  2.559527  0  0  0.387425  0.308594  0  2.618583  0
H  H4  1  0.61099730  0.99999683  0.87301878  1  0  0.14139  0  0.949455  0  0  0.15971  0  1.01201  0  0  0.161816  0  1.01342  0  0  0.097944  0.158234  0  1.011044  0
H  H5  1  0.88899936  0.00000264  0.37302148  1  0  0.14142  0  0.949444  0  0  0.159748  0  1.011984  0  0  0.161854  0  1.013394  0  0  0.097976  0.158275  0  1.011015  0
H  H6  1  0.38900288  0.00000087  0.12698366  1  0  0.141413  0  0.949449  0  0  0.159744  0  1.011989  0  0  0.161849  0  1.013399  0  0  0.097962  0.158271  0  1.011022  0
H  H7  1  0.11100014  0.00000049  0.62697902  1  0  0.141398  0  0.949446  0  0  0.159721  0  1.011998  0  0  0.161827  0  1.013409  0  0  0.097958  0.158246  0  1.01103  0
H  H8  1  0.48690134  0.14032593  0.83590797  1  0  0.128244  0  0.979877  0  0  0.146331  0  1.044669  0  0  0.148718  0  1.044403  0  0  0.086352  0.144557  0  1.044954  0
H  H9  1  0.01309983  0.85967427  0.33591220  1  0  0.128266  0  0.979825  0  0  0.146356  0  1.044611  0  0  0.148743  0  1.044347  0  0  0.086347  0.144588  0  1.044897  0
H  H10  1  0.51309787  0.85966972  0.16409552  1  0  0.128256  0  0.979812  0  0  0.146338  0  1.044624  0  0  0.148724  0  1.044359  0  0  0.086364  0.144568  0  1.044916  0
H  H11  1  0.98690357  0.14032942  0.66408872  1  0  0.128224  0  0.979824  0  0  0.146292  0  1.044654  0  0  0.148678  0  1.044389  0  0  0.086315  0.14452  0  1.044938  0
H  H12  1  0.55336174  0.14512041  0.94711504  1  0  0.130706  0  0.941991  0  0  0.151496  0  0.999845  0  0  0.153577  0  0.999832  0  0  0.095309  0.150056  0  0.999818  0
H  H13  1  0.94663685  0.85488133  0.44711933  1  0  0.130686  0  0.941952  0  0  0.151489  0  0.999797  0  0  0.15357  0  0.999782  0  0  0.095326  0.15005  0  0.999773  0
H  H14  1  0.44663829  0.85487387  0.05288717  1  0  0.13071  0  0.941982  0  0  0.151494  0  0.999849  0  0  0.153575  0  0.999835  0  0  0.09531  0.150055  0  0.999824  0
H  H15  1  0.05336525  0.14512239  0.55288094  1  0  0.130668  0  0.941939  0  0  0.151472  0  0.99979  0  0  0.153556  0  0.99977  0  0  0.095324  0.150034  0  0.999762  0
H  H16  1  0.07935193  0.55512782  0.56518532  1  0  0.074398  0  0.944891  0  0  0.083785  0  1.010735  0  0  0.086515  0  1.007762  0  0  0.106269  0.081682  0  1.013044  0
H  H17  1  0.42065048  0.44487258  0.06518992  1  0  0.074422  0  0.944878  0  0  0.083778  0  1.010754  0  0  0.086505  0  1.007786  0  0  0.106279  0.081676  0  1.013077  0
H  H18  1  0.92065552  0.44487986  0.43480980  1  0  0.074382  0  0.944794  0  0  0.083773  0  1.010649  0  0  0.086493  0  1.007696  0  0  0.106303  0.081678  0  1.012939  0
H  H19  1  0.57934874  0.55512308  0.93481100  1  0  0.074379  0  0.944892  0  0  0.083748  0  1.010753  0  0  0.086474  0  1.007788  0  0  0.106273  0.081644  0  1.013069  0
H  H20  1  0.24985921  0.75030108  0.44807823  1  0  0.1053  0  0.962405  0  0  0.118016  0  1.021353  0  0  0.121045  0  1.020343  0  0  0.104  0.115725  0  1.022396  0
H  H21  1  0.25014281  0.24970501  0.94808049  1  0  0.105327  0  0.96235  0  0  0.118031  0  1.021321  0  0  0.12106  0  1.020312  0  0  0.104003  0.115737  0  1.022357  0
H  H22  1  0.75015085  0.24970655  0.55191947  1  0  0.105288  0  0.962373  0  0  0.118032  0  1.021298  0  0  0.121042  0  1.020312  0  0  0.103995  0.115732  0  1.022343  0
H  H23  1  0.74985332  0.75028936  0.05191978  1  0  0.105282  0  0.96238  0  0  0.118027  0  1.021315  0  0  0.121021  0  1.020348  0  0  0.103979  0.115727  0  1.022364  0
H  H24  1  0.61048354  0.08058033  0.64366254  1  0  0.095861  0  0.990993  0  0  0.104347  0  1.058125  0  0  0.106879  0  1.058702  0  0  0.095098  0.102444  0  1.058001  0
H  H25  1  0.88951396  0.91941881  0.14366301  1  0  0.095862  0  0.990939  0  0  0.104351  0  1.058068  0  0  0.106883  0  1.058644  0  0  0.095117  0.102442  0  1.057959  0
H  H26  1  0.38951253  0.91942487  0.35633645  1  0  0.095919  0  0.990908  0  0  0.1044  0  1.058038  0  0  0.106931  0  1.058618  0  0  0.095131  0.102491  0  1.057928  0
H  H27  1  0.11048169  0.08057421  0.85633726  1  0  0.095871  0  0.99103  0  0  0.104351  0  1.058156  0  0  0.106882  0  1.058734  0  0  0.09511  0.102431  0  1.05805  0
H  H28  1  0.42874763  0.86379699  0.75093284  1  0  0.079618  0  0.966807  0  0  0.086632  0  1.035746  0  0  0.089748  0  1.032445  0  0  0.104662  0.084214  0  1.038379  0
H  H29  1  0.07124754  0.13619757  0.25093455  1  0  0.079582  0  0.966796  0  0  0.086597  0  1.035742  0  0  0.089713  0  1.032441  0  0  0.10463  0.08417  0  1.038373  0
H  H30  1  0.57124714  0.13620824  0.24906422  1  0  0.079629  0  0.966759  0  0  0.086635  0  1.035711  0  0  0.089751  0  1.032415  0  0  0.104675  0.08421  0  1.03835  0
H  H31  1  0.92874845  0.86379274  0.74906508  1  0  0.079647  0  0.966796  0  0  0.086657  0  1.035735  0  0  0.089774  0  1.03244  0  0  0.104671  0.084232  0  1.038367  0
H  H32  1  0.84441864  0.31888919  0.98792684  1  0  0.31842  0  0.933763  0  0  0.301294  0  0.996702  0  0  0.308802  0  0.992101  0  0  0.275141  0.296173  0  0.999686  0
H  H33  1  0.65557564  0.68111146  0.48793030  1  0  0.318473  0  0.933763  0  0  0.30141  0  0.996625  0  0  0.30889  0  0.992051  0  0  0.275163  0.296272  0  0.999647  0
H  H34  1  0.15558332  0.68111048  0.01207472  1  0  0.318372  0  0.933749  0  0  0.301253  0  0.996692  0  0  0.30876  0  0.992092  0  0  0.27511  0.296133  0  0.999676  0
H  H35  1  0.34442680  0.31888954  0.51206998  1  0  0.3184  0  0.933755  0  0  0.301319  0  0.996645  0  0  0.308817  0  0.992053  0  0  0.27514  0.296183  0  0.999659  0
H  H36  1  0.01372295  0.44594402  0.91279438  1  0  0.30671  0  0.954632  0  0  0.284383  0  1.030361  0  0  0.294254  0  1.021138  0  0  0.266331  0.27737  0  1.036971  0
H  H37  1  0.48627495  0.55405793  0.41279650  1  0  0.306712  0  0.954621  0  0  0.284379  0  1.030372  0  0  0.294252  0  1.021146  0  0  0.266329  0.277364  0  1.036992  0
H  H38  1  0.98627593  0.55405435  0.08720589  1  0  0.306685  0  0.954635  0  0  0.284366  0  1.030379  0  0  0.29424  0  1.02115  0  0  0.266315  0.277352  0  1.036991  0
H  H39  1  0.51372879  0.44594305  0.58720442  1  0  0.306694  0  0.95465  0  0  0.284376  0  1.030406  0  0  0.294248  0  1.021184  0  0  0.266321  0.277361  0  1.037026  0
C  C40  1  0.77647105  0.27542878  0.86042378  1  0  0.447021  0  3.688723  0  0  0.436071  0  3.965651  0  0  0.460434  0  3.971509  0  0  0.148738  0.419724  0  3.960848  0
C  C41  1  0.72353031  0.72456984  0.36042600  1  0  0.446974  0  3.68858  0  0  0.435998  0  3.965555  0  0  0.460356  0  3.971427  0  0  0.148708  0.419653  0  3.96079  0
C  C42  1  0.22353043  0.72456954  0.13957907  1  0  0.447039  0  3.688621  0  0  0.436003  0  3.965704  0  0  0.460364  0  3.971565  0  0  0.148752  0.419654  0  3.960938  0
C  C43  1  0.27647213  0.27543117  0.63957363  1  0  0.446876  0  3.688839  0  0  0.435953  0  3.965742  0  0  0.46031  0  3.971618  0  0  0.148699  0.419606  0  3.960941  0
C  C44  1  0.59588967  0.13347619  0.88044306  1  0  -0.401254  0  3.666072  0  0  -0.474709  0  3.893251  0  0  -0.481985  0  3.898025  0  0  -0.243324  -0.469519  0  3.889627  0
C  C45  1  0.90410830  0.86652393  0.38044671  1  0  -0.401261  0  3.665994  0  0  -0.474739  0  3.893209  0  0  -0.482012  0  3.897985  0  0  -0.243357  -0.469556  0  3.889602  0
C  C46  1  0.40410824  0.86651949  0.11955850  1  0  -0.401292  0  3.666002  0  0  -0.474735  0  3.893222  0  0  -0.482008  0  3.897995  0  0  -0.243354  -0.469543  0  3.889614  0
C  C47  1  0.09589332  0.13347845  0.61955420  1  0  -0.40111  0  3.665944  0  0  -0.474585  0  3.893169  0  0  -0.481855  0  3.897942  0  0  -0.243283  -0.469402  0  3.889547  0
C  C48  1  0.19958558  0.67226587  0.57947517  1  0  0.122405  0  3.71927  0  0  0.089605  0  3.979641  0  0  0.096438  0  3.994711  0  0  0.032436  0.084927  0  3.970246  0
C  C49  1  0.30041425  0.32773464  0.07947837  1  0  0.122361  0  3.719468  0  0  0.089599  0  3.979812  0  0  0.096433  0  3.994884  0  0  0.032462  0.084906  0  3.970439  0
C  C50  1  0.80041947  0.32773508  0.42052124  1  0  0.12236  0  3.719443  0  0  0.089599  0  3.979834  0  0  0.096405  0  3.994886  0  0  0.032407  0.084918  0  3.970444  0
C  C51  1  0.69958236  0.67226107  0.92052320  1  0  0.122443  0  3.719395  0  0  0.089686  0  3.979766  0  0  0.096508  0  3.994821  0  0  0.032485  0.084999  0  3.970379  0
C  C52  1  0.29503216  0.78513843  0.51411496  1  0  -0.15533  0  3.703848  0  0  -0.172924  0  3.951095  0  0  -0.179574  0  3.970732  0  0  -0.086881  -0.168957  0  3.938665  0
C  C53  1  0.20496590  0.21486455  0.01411741  1  0  -0.155316  0  3.703859  0  0  -0.172893  0  3.95109  0  0  -0.179543  0  3.970726  0  0  -0.086878  -0.16891  0  3.938638  0
C  C54  1  0.70497645  0.21486516  0.48588145  1  0  -0.155325  0  3.703932  0  0  -0.172937  0  3.951219  0  0  -0.179575  0  3.970868  0  0  -0.086865  -0.168958  0  3.938772  0
C  C55  1  0.79502598  0.78513261  0.98588287  1  0  -0.155311  0  3.703881  0  0  -0.172923  0  3.951151  0  0  -0.179546  0  3.970802  0  0  -0.086848  -0.168945  0  3.938709  0
C  C56  1  0.44740658  0.93838693  0.53379907  1  0  0.088555  0  3.745151  0  0  0.099991  0  3.974271  0  0  0.104795  0  3.993909  0  0  0.005415  0.096641  0  3.961402  0
C  C57  1  0.05259413  0.06161608  0.03380007  1  0  0.088486  0  3.745276  0  0  0.099909  0  3.97443  0  0  0.104714  0  3.994067  0  0  0.005379  0.096558  0  3.961546  0
C  C58  1  0.55260547  0.06161524  0.46619863  1  0  0.088597  0  3.745024  0  0  0.099944  0  3.974225  0  0  0.104753  0  3.993855  0  0  0.00529  0.096592  0  3.961351  0
C  C59  1  0.94739741  0.93838379  0.96620020  1  0  0.088596  0  3.745045  0  0  0.099949  0  3.974264  0  0  0.104756  0  3.993892  0  0  0.005364  0.096605  0  3.961367  0
C  C60  1  0.49467168  0.96643828  0.62134836  1  0  -0.14244  0  3.704417  0  0  -0.160333  0  3.950387  0  0  -0.167638  0  3.971367  0  0  -0.086432  -0.155986  0  3.937052  0
C  C61  1  0.00532481  0.03356382  0.12134869  1  0  -0.142463  0  3.704427  0  0  -0.160356  0  3.950412  0  0  -0.167661  0  3.971393  0  0  -0.086489  -0.156014  0  3.93709  0
C  C62  1  0.50533351  0.03356673  0.37865127  1  0  -0.142578  0  3.704359  0  0  -0.160422  0  3.950315  0  0  -0.167733  0  3.971303  0  0  -0.086465  -0.156076  0  3.936989  0
C  C63  1  0.99466755  0.96643468  0.87865158  1  0  -0.142379  0  3.7044  0  0  -0.160221  0  3.950346  0  0  -0.167527  0  3.97133  0  0  -0.086411  -0.155863  0  3.937002  0
C  C64  1  0.39328415  0.84643493  0.68281527  1  0  0.123155  0  3.686876  0  0  0.091976  0  3.942232  0  0  0.100052  0  3.954499  0  0  0.036333  0.08637  0  3.934966  0
C  C65  1  0.10671281  0.15356472  0.18281636  1  0  0.123268  0  3.686914  0  0  0.092083  0  3.942261  0  0  0.100159  0  3.954528  0  0  0.03643  0.086497  0  3.934968  0
C  C66  1  0.60671974  0.15357011  0.31718436  1  0  0.123157  0  3.686955  0  0  0.092018  0  3.942297  0  0  0.100065  0  3.954552  0  0  0.036366  0.086426  0  3.93502  0
C  C67  1  0.89328120  0.84643104  0.81718456  1  0  0.123032  0  3.687037  0  0  0.091859  0  3.942389  0  0  0.099919  0  3.954653  0  0  0.036313  0.086266  0  3.935092  0
S  S68  1  0.83718476  0.34093171  0.75659979  1  0  -0.396409  0  2.613008  0  0  -0.375171  0  3.081435  0  0  -0.381175  0  3.054454  0  0  -0.208014  -0.371854  0  3.098225  0
S  S69  1  0.66281687  0.65906782  0.25660323  1  0  -0.396393  0  2.612974  0  0  -0.375146  0  3.081393  0  0  -0.381137  0  3.054401  0  0  -0.208028  -0.371827  0  3.098251  0
S  S70  1  0.16281672  0.65906661  0.24340177  1  0  -0.396418  0  2.612959  0  0  -0.375155  0  3.081426  0  0  -0.381153  0  3.054439  0  0  -0.208043  -0.37184  0  3.098279  0
S  S71  1  0.33718345  0.34093458  0.74339704  1  0  -0.39636  0  2.612987  0  0  -0.375123  0  3.081379  0  0  -0.381129  0  3.054413  0  0  -0.20801  -0.371801  0  3.098155  0
N  N72  1  0.88763307  0.34739895  0.92495509  1  0  -0.567819  0  3.199937  0  0  -0.521017  0  3.416065  0  0  -0.542185  0  3.415798  0  0  -0.54077  -0.506773  0  3.416138  0
N  N73  1  0.61236238  0.65260141  0.42495981  1  0  -0.567891  0  3.199947  0  0  -0.521088  0  3.41589  0  0  -0.542228  0  3.415673  0  0  -0.540777  -0.506828  0  3.416021  0
N  N74  1  0.11236628  0.65260077  0.07504647  1  0  -0.56773  0  3.199799  0  0  -0.520901  0  3.415891  0  0  -0.542071  0  3.415624  0  0  -0.540713  -0.506654  0  3.415979  0
N  N75  1  0.38763958  0.34739825  0.57504176  1  0  -0.567785  0  3.200049  0  0  -0.521024  0  3.416021  0  0  -0.542185  0  3.415776  0  0  -0.540773  -0.506768  0  3.416139  0
N  N76  1  0.24620588  0.70045875  0.66340279  1  0  -0.284405  0  3.365597  0  0  -0.214997  0  3.660343  0  0  -0.223007  0  3.665807  0  0  -0.363775  -0.210902  0  3.657363  0
N  N77  1  0.25379104  0.29954082  0.16340466  1  0  -0.284457  0  3.365807  0  0  -0.215052  0  3.660551  0  0  -0.223062  0  3.666014  0  0  -0.363846  -0.21096  0  3.657589  0
N  N78  1  0.75379800  0.29954629  0.33659492  1  0  -0.284297  0  3.365816  0  0  -0.215003  0  3.660661  0  0  -0.222937  0  3.666068  0  0  -0.363778  -0.210918  0  3.657699  0
N  N79  1  0.74620297  0.70045494  0.83659690  1  0  -0.284381  0  3.365659  0  0  -0.215003  0  3.660419  0  0  -0.222985  0  3.665877  0  0  -0.363809  -0.210911  0  3.657427  0
Cl  Cl80  1  0.26221693  0.66501378  0.88448844  1  0  -0.593787  0  1.015514  0  0  -0.533984  0  1.292396  0  0  -0.549297  0  1.272892  0  0  -0.312265  -0.522725  0  1.305015  0
Cl  Cl81  1  0.23778289  0.33498260  0.38448842  1  0  -0.593781  0  1.01557  0  0  -0.53398  0  1.292464  0  0  -0.549294  0  1.272955  0  0  -0.312256  -0.522712  0  1.305093  0
Cl  Cl82  1  0.73778290  0.33498728  0.11551119  1  0  -0.593767  0  1.015555  0  0  -0.533954  0  1.292455  0  0  -0.549276  0  1.272949  0  0  -0.312241  -0.52269  0  1.305086  0
Cl  Cl83  1  0.76221907  0.66501706  0.61551186  1  0  -0.593777  0  1.015558  0  0  -0.533982  0  1.292458  0  0  -0.549305  0  1.272962  0  0  -0.312241  -0.52272  0  1.305071  0
