# generated using pymatgen
data_CoH6C14N4(ClO2)2
_symmetry_space_group_name_H-M   'P 1'
_cell_length_a   9.73726660
_cell_length_b   9.73760335
_cell_length_c   9.92620495
_cell_angle_alpha   68.86772085
_cell_angle_beta   68.84045131
_cell_angle_gamma   67.10541743
_symmetry_Int_Tables_number   1
_chemical_formula_structural   CoH6C14N4(ClO2)2
_chemical_formula_sum   'Co2 H12 C28 N8 Cl4 O8'
_cell_volume   781.59434507
_cell_formula_units_Z   2
loop_
 _symmetry_equiv_pos_site_id
 _symmetry_equiv_pos_as_xyz
  1  'x, y, z'
loop_
 _atom_site_type_symbol
 _atom_site_label
 _atom_site_symmetry_multiplicity
 _atom_site_fract_x
 _atom_site_fract_y
 _atom_site_fract_z
 _atom_site_occupancy
 _atom_site_hse06_10hf_bader_charge
 _atom_site_hse06_10hf_bader_spin_density
 _atom_site_hse06_10hf_ddec_charge
 _atom_site_hse06_10hf_ddec_spin_density
 _atom_site_hse06_10hf_ddec_sum_bond_order
 _atom_site_hse06_10hf_magmom
 _atom_site_hse06_ddec_charge
 _atom_site_hse06_ddec_spin_density
 _atom_site_hse06_ddec_sum_bond_order
 _atom_site_hse06_magmom
 _atom_site_pbe_cm5_charge
 _atom_site_pbe_ddec_charge
 _atom_site_pbe_ddec_spin_density
 _atom_site_pbe_ddec_sum_bond_order
 _atom_site_pbe_magmom
Co  Co0  1  0.40092668  0.59926866  0.74982862  1  1.145955  0.971287  0.564308  1.090106  3.076032  0.963  0.613139  1.059637  3.019709  0.951  0.701926  0.544288  1.09089  3.103482  0.951
Co  Co1  1  0.60709351  0.39283444  0.24993864  1  1.153094  -0.969108  0.576028  -1.088815  3.081353  -0.962  0.626921  -1.062516  3.023043  -0.956  0.672832  0.554563  -1.086087  3.110471  -0.945
H  H2  1  0.74685410  0.63324603  0.64760984  1  0.132676  0.001152  0.082707  0.000415  1.018179  0.001  0.084729  0.000304  1.015163  0.001  0.1168  0.081262  0.000518  1.020819  0.001
H  H3  1  0.36680455  0.25263765  0.85280535  1  0.132166  0.001217  0.082716  0.000441  1.01764  0.001  0.084695  0.000324  1.014638  0.001  0.11675  0.081308  0.000546  1.020232  0.001
H  H4  1  0.27576789  0.37040942  0.36490622  1  0.138868  -0.000411  0.08889  -0.000153  1.027224  0.0  0.091692  -0.000106  1.022526  0.0  0.120274  0.086281  -0.000237  1.031651  0.0
H  H5  1  0.62958262  0.72406236  0.13520379  1  0.137576  -0.000412  0.08908  -0.000153  1.026674  0.0  0.09185  -0.000106  1.022004  0.0  0.120386  0.086486  -0.000237  1.031095  0.0
H  H6  1  0.95731264  0.60586046  0.41314196  1  0.141031  -0.00037  0.136184  -0.00012  1.017949  0.0  0.139233  -8.6e-05  1.017446  0.0  0.115807  0.133998  -0.000128  1.018946  0.0
H  H7  1  0.39423303  0.04241683  0.08738090  1  0.139553  -0.000339  0.136075  -0.000108  1.01746  0.0  0.139092  -7.6e-05  1.016991  0.0  0.115737  0.133918  -0.000114  1.018432  0.0
H  H8  1  0.07278346  0.40496440  0.60331280  1  0.151302  -0.000231  0.142139  -9.3e-05  0.994308  0.0  0.145587  -5.4e-05  0.993678  0.0  0.120422  0.139429  -0.000118  0.995588  0.0
H  H9  1  0.59509245  0.92706984  0.89692502  1  0.152216  -0.000229  0.14202  -9.2e-05  0.994131  0.0  0.145472  -5.4e-05  0.993493  0.0  0.120441  0.139309  -0.000117  0.995397  0.0
H  H10  1  0.12050198  0.51741605  0.77283120  1  0.172815  -0.000238  0.114935  -0.00012  0.975347  0.0  0.11919  -0.000118  0.969298  0.0  0.133488  0.111093  -0.000113  0.980638  0.0
H  H11  1  0.48277990  0.87936096  0.72729343  1  0.174885  -0.00024  0.114843  -0.000122  0.974738  0.0  0.118979  -0.00012  0.968825  0.0  0.133314  0.11102  -0.000114  0.980009  0.0
H  H12  1  0.92072261  0.49928109  0.23204752  1  0.148605  -0.001402  0.104685  -0.000538  0.963046  -0.001  0.10879  -0.000385  0.957757  -0.001  0.126964  0.101601  -0.000719  0.967198  -0.001
H  H13  1  0.50066565  0.07948082  0.26824545  1  0.147751  -0.001414  0.104725  -0.000541  0.962732  -0.001  0.108793  -0.000388  0.957511  -0.001  0.126876  0.101661  -0.000722  0.966818  -0.001
C  C14  1  0.73470530  0.59607085  0.56265624  1  0.484534  -0.003487  0.166211  -0.001511  3.869174  -0.002  0.181697  -0.001389  3.876667  -0.002  0.077928  0.155163  -0.001286  3.866163  -0.002
C  C15  1  0.40398519  0.26489014  0.93769535  1  0.487135  -0.003237  0.166514  -0.00136  3.870608  -0.002  0.181941  -0.001298  3.878287  -0.002  0.078246  0.155507  -0.001101  3.867452  -0.002
C  C16  1  0.29034250  0.41473327  0.44321073  1  0.476888  -0.00013  0.163629  -0.000321  3.846886  0.0  0.184315  0.000519  3.84981  0.001  0.079143  0.149063  -0.001197  3.847675  -0.001
C  C17  1  0.58533300  0.70951000  0.05684278  1  0.477315  -3.3e-05  0.163809  -0.000269  3.846649  0.0  0.184411  0.00055  3.849664  0.001  0.079442  0.149249  -0.001145  3.847381  -0.001
C  C18  1  0.85234975  0.57795622  0.43340272  1  0.049321  0.00062  -0.144403  0.00025  3.893564  0.0  -0.151571  0.000691  3.906206  0.001  -0.064629  -0.142097  -0.000273  3.887983  0.0
C  C19  1  0.42209642  0.14741937  0.06697977  1  0.046824  0.000713  -0.14493  0.000306  3.893198  0.001  -0.152104  0.000728  3.905994  0.001  -0.06487  -0.142603  -0.000209  3.887503  0.0
C  C20  1  0.17827387  0.43489717  0.57531072  1  0.073825  -0.001709  -0.139291  -0.000936  3.904915  -0.001  -0.148196  -0.000696  3.914669  -0.001  -0.060907  -0.135943  -0.001327  3.901593  -0.001
C  C21  1  0.56520022  0.82158738  0.92482919  1  0.069699  -0.001661  -0.139471  -0.000907  3.90498  -0.001  -0.148424  -0.000697  3.914799  -0.001  -0.06127  -0.136075  -0.001279  3.90161  -0.001
C  C22  1  0.83151117  0.52285644  0.33253852  1  0.515361  -0.006249  0.158463  -0.003933  3.897577  -0.004  0.174336  -0.002493  3.902378  -0.003  0.07644  0.147069  -0.004943  3.89636  -0.005
C  C23  1  0.47716844  0.16851677  0.16769239  1  0.51575  -0.006032  0.159473  -0.003816  3.897512  -0.004  0.175159  -0.002444  3.902508  -0.003  0.077355  0.148196  -0.004795  3.896144  -0.005
C  C24  1  0.20364234  0.49431920  0.66937341  1  0.481801  -0.000612  0.146204  -0.000134  3.850804  0.0  0.166889  -0.000345  3.853197  0.0  0.076987  0.132173  0.000281  3.852206  0.001
C  C25  1  0.50587863  0.79622041  0.83069484  1  0.485652  -0.000514  0.146842  -8.1e-05  3.851026  0.0  0.167548  -0.000306  3.853544  0.0  0.077616  0.132809  0.000338  3.852371  0.001
C  C26  1  0.58875197  0.52401957  0.47980717  1  1.158426  -0.006951  0.288226  -0.004034  4.001094  -0.005  0.304846  -0.002561  4.006406  -0.003  0.257793  0.275291  -0.004325  4.00118  -0.005
C  C27  1  0.47605849  0.41109998  0.02018706  1  1.15915  -0.006677  0.288102  -0.003867  4.002454  -0.005  0.304572  -0.002488  4.007998  -0.003  0.257922  0.275226  -0.00413  4.002418  -0.005
C  C28  1  0.44318487  0.49869856  0.50673270  1  1.097447  -0.001207  0.292846  -0.000872  3.918225  0.0  0.315931  -0.000173  3.921295  0.0  0.259882  0.275517  -0.001348  3.920295  -0.001
C  C29  1  0.50144336  0.55670490  0.99313482  1  1.101478  -0.001021  0.292907  -0.000768  3.917816  0.0  0.315979  -0.000112  3.920901  0.0  0.259594  0.275523  -0.00125  3.919906  -0.001
C  C30  1  0.10121185  0.81959229  0.82715008  1  0.729223  0.001744  0.244455  0.00141  4.134625  0.002  0.265991  0.001142  4.147341  0.001  0.092932  0.229913  0.001757  4.124172  0.002
C  C31  1  0.18061470  0.89943220  0.67201314  1  0.753743  0.001584  0.246801  0.001345  4.135356  0.001  0.268367  0.001092  4.147971  0.001  0.093561  0.232236  0.001683  4.124909  0.002
C  C32  1  0.88449222  0.18643878  0.17120750  1  0.717819  0.002426  0.237069  0.001632  4.116166  0.002  0.260422  0.000817  4.127037  0.001  0.091268  0.220347  0.002488  4.109133  0.003
C  C33  1  0.81348121  0.11555739  0.32873692  1  0.694633  0.002415  0.237672  0.001628  4.115631  0.002  0.261021  0.000815  4.126512  0.001  0.091383  0.220938  0.002488  4.108605  0.003
C  C34  1  0.95837056  0.90178223  0.90123789  1  0.09517  -0.00042  -0.166392  -7.6e-05  4.097242  0.0  -0.184892  -5.5e-05  4.124349  0.0  -0.053743  -0.153209  -0.000194  4.07885  -0.001
C  C35  1  0.09784566  0.04214900  0.59835490  1  0.092526  -0.00024  -0.167323  2.6e-05  4.097143  0.0  -0.186005  6e-06  4.124354  0.0  -0.053403  -0.154028  -5.9e-05  4.078701  0.0
C  C36  1  0.02722713  0.10782645  0.09521391  1  0.079334  0.000837  -0.151049  0.000453  4.08801  0.0  -0.167479  0.000453  4.112018  0.0  -0.045936  -0.139706  0.0003  4.072997  0.0
C  C37  1  0.89203785  0.97287217  0.40471352  1  0.082261  0.000856  -0.150581  0.000462  4.087542  0.0  -0.167007  0.000459  4.111546  0.0  -0.045738  -0.139255  0.000312  4.072525  0.0
C  C38  1  0.87206949  0.05034183  0.83111293  1  0.934584  0.000102  0.263382  4.1e-05  4.159409  0.0  0.284733  4.4e-05  4.164918  0.0  0.10326  0.248454  8.1e-05  4.155819  0.0
C  C39  1  0.94928402  0.12805883  0.66894314  1  0.915345  0.000119  0.263198  4.9e-05  4.159978  0.0  0.28474  4.4e-05  4.165334  0.0  0.10231  0.248167  9.6e-05  4.156442  0.0
C  C40  1  0.11436805  0.96024977  0.16728320  1  0.958291  0.002392  0.266969  0.001207  4.126575  0.001  0.289253  0.000462  4.129807  0.0  0.110929  0.250691  0.002108  4.126001  0.002
C  C41  1  0.03966885  0.88566165  0.33264080  1  0.946744  0.002405  0.266056  0.001211  4.127258  0.001  0.288355  0.000464  4.130487  0.0  0.1106  0.249827  0.002115  4.126605  0.002
N  N42  1  0.60104990  0.56915355  0.58721764  1  -1.204624  0.027568  -0.253354  0.016677  3.530722  0.025  -0.273005  0.014742  3.537354  0.022  -0.307716  -0.241224  0.017987  3.52623  0.027
N  N43  1  0.43084843  0.39853841  0.91305161  1  -1.205635  0.030046  -0.254275  0.018012  3.528765  0.028  -0.274069  0.015925  3.535694  0.024  -0.307184  -0.241912  0.019318  3.52405  0.029
N  N44  1  0.42423372  0.44566892  0.40889970  1  -1.21047  0.005  -0.231357  0.001946  3.594438  0.003  -0.255426  0.001313  3.600092  0.002  -0.313255  -0.217909  0.001631  3.591567  0.003
N  N45  1  0.55438527  0.57566137  0.09103035  1  -1.213685  0.00504  -0.231355  0.001959  3.594427  0.003  -0.255361  0.001305  3.600038  0.002  -0.312964  -0.217855  0.001667  3.591513  0.003
N  N46  1  0.69748152  0.49879896  0.35518097  1  -1.240553  -0.047287  -0.274399  -0.027091  3.451498  -0.04  -0.292302  -0.02282  3.458149  -0.034  -0.291578  -0.262997  -0.031935  3.448884  -0.046
N  N47  1  0.50128768  0.30256165  0.14487438  1  -1.239627  -0.047434  -0.274771  -0.02719  3.453787  -0.04  -0.292651  -0.0229  3.46053  -0.034  -0.291882  -0.263316  -0.032043  3.451056  -0.046
N  N48  1  0.33753126  0.52546308  0.63497543  1  -1.209841  -0.018158  -0.223269  -0.008763  3.594392  -0.013  -0.249208  -0.007143  3.603876  -0.01  -0.319737  -0.211214  -0.009551  3.591324  -0.014
N  N49  1  0.47483304  0.66233671  0.86490492  1  -1.211245  -0.018036  -0.223735  -0.008706  3.5954  -0.013  -0.249721  -0.007127  3.604899  -0.01  -0.319846  -0.211634  -0.009489  3.592315  -0.014
Cl  Cl50  1  0.87577672  0.81815724  0.08458857  1  -0.261984  0.000269  -0.077333  0.000176  1.72658  0.0  -0.083297  0.000101  1.725489  0.0  -0.015444  -0.071738  0.000251  1.727477  0.0
Cl  Cl51  1  0.18108293  0.12508832  0.41496571  1  -0.261692  0.000283  -0.077252  0.000186  1.727203  0.0  -0.083233  0.000107  1.726214  0.0  -0.015508  -0.071626  0.000265  1.728026  0.0
Cl  Cl52  1  0.10190389  0.18977481  0.90942104  1  -0.245416  0.00016  -0.061183  8.9e-05  1.726398  0.0  -0.065389  9.5e-05  1.724  0.0  -0.00312  -0.057596  8e-05  1.728665  0.0
Cl  Cl53  1  0.80997108  0.89827464  0.59050299  1  -0.244564  0.000158  -0.061491  8.9e-05  1.726623  0.0  -0.065714  9.4e-05  1.72423  0.0  -0.003249  -0.057891  8e-05  1.728886  0.0
O  O54  1  0.17241745  0.67845262  0.88043191  1  -1.12593  0.034165  -0.451963  0.019047  2.301664  0.031  -0.490195  0.015224  2.303753  0.025  -0.293477  -0.422619  0.02339  2.296563  0.038
O  O55  1  0.32179600  0.82875131  0.61841161  1  -1.130175  0.037251  -0.453876  0.020672  2.296607  0.034  -0.491731  0.016519  2.298472  0.027  -0.293748  -0.424583  0.02523  2.291567  0.041
O  O56  1  0.80224802  0.32414814  0.11549876  1  -1.086018  0.004221  -0.415874  0.000999  2.379908  0.003  -0.458238  0.001653  2.382361  0.004  -0.293502  -0.385854  -0.000464  2.375572  0.0
O  O57  1  0.67572710  0.19785201  0.38444599  1  -1.086205  0.004256  -0.415984  0.001018  2.37945  0.003  -0.458367  0.001667  2.381919  0.004  -0.293324  -0.385943  -0.000428  2.375107  0.001
O  O58  1  0.73863005  0.12024511  0.89033627  1  -1.147612  -0.000582  -0.4414  -0.000299  2.211438  0.0  -0.463138  -0.000345  2.211197  -0.001  -0.293943  -0.42389  -0.000301  2.21042  0.0
O  O59  1  0.87899804  0.26145975  0.61020827  1  -1.147084  -0.000513  -0.442055  -0.000264  2.210516  0.0  -0.463901  -0.000337  2.210181  -0.001  -0.294303  -0.424436  -0.000226  2.209523  0.0
O  O60  1  0.24616670  0.88795448  0.10698890  1  -1.136549  0.004144  -0.435125  0.002096  2.196827  0.004  -0.454231  0.00122  2.19414  0.002  -0.291301  -0.42044  0.003048  2.198478  0.005
O  O61  1  0.11190575  0.75389929  0.39290982  1  -1.13986  0.004155  -0.434673  0.002101  2.19746  0.004  -0.453813  0.001224  2.194789  0.002  -0.291031  -0.419982  0.003056  2.199057  0.005
