# generated using pymatgen
data_ZnH6C8N3Cl
_symmetry_space_group_name_H-M   'P 1'
_cell_length_a   8.77069518
_cell_length_b   8.53909978
_cell_length_c   16.91717543
_cell_angle_alpha   90.00089316
_cell_angle_beta   89.99931249
_cell_angle_gamma   133.01476528
_symmetry_Int_Tables_number   1
_chemical_formula_structural   ZnH6C8N3Cl
_chemical_formula_sum   'Zn4 H24 C32 N12 Cl4'
_cell_volume   926.39676500
_cell_formula_units_Z   4
loop_
 _symmetry_equiv_pos_site_id
 _symmetry_equiv_pos_as_xyz
  1  'x, y, z'
loop_
 _atom_site_type_symbol
 _atom_site_label
 _atom_site_symmetry_multiplicity
 _atom_site_fract_x
 _atom_site_fract_y
 _atom_site_fract_z
 _atom_site_occupancy
 _atom_site_hle17_bader_spin_density
 _atom_site_hle17_ddec_charge
 _atom_site_hle17_ddec_spin_density
 _atom_site_hle17_ddec_sum_bond_order
 _atom_site_hle17_magmom
 _atom_site_hse06_10hf_bader_spin_density
 _atom_site_hse06_10hf_ddec_charge
 _atom_site_hse06_10hf_ddec_spin_density
 _atom_site_hse06_10hf_ddec_sum_bond_order
 _atom_site_hse06_10hf_magmom
 _atom_site_hse06_bader_spin_density
 _atom_site_hse06_ddec_charge
 _atom_site_hse06_ddec_spin_density
 _atom_site_hse06_ddec_sum_bond_order
 _atom_site_hse06_magmom
 _atom_site_pbe_bader_spin_density
 _atom_site_pbe_cm5_charge
 _atom_site_pbe_ddec_charge
 _atom_site_pbe_ddec_spin_density
 _atom_site_pbe_ddec_sum_bond_order
 _atom_site_pbe_magmom
Zn  Zn0  1  0.80202428  0.46251141  0.55611139  1  0  0.837655  0  2.071019  0  0  0.638556  0  2.559406  0  0  0.678064  0  2.515836  0  0  0.645009  0.611483  0  2.589022  0
Zn  Zn1  1  0.69797253  0.03748710  0.05611310  1  0  0.837681  0  2.071031  0  0  0.638616  0  2.559373  0  0  0.678116  0  2.51581  0  0  0.645037  0.61155  0  2.588992  0
Zn  Zn2  1  0.19797076  0.53748986  0.44388981  1  0  0.837697  0  2.070908  0  0  0.638603  0  2.559347  0  0  0.678109  0  2.515779  0  0  0.645021  0.611532  0  2.588968  0
Zn  Zn3  1  0.30204061  0.96251191  0.94388691  1  0  0.837702  0  2.070977  0  0  0.638586  0  2.559422  0  0  0.678089  0  2.515856  0  0  0.645007  0.611516  0  2.589039  0
H  H4  1  0.74147694  0.69950721  0.43766496  1  0  0.096472  0  0.984328  0  0  0.105946  0  1.052789  0  0  0.108268  0  1.0503  0  0  0.108782  0.104218  0  1.054545  0
H  H5  1  0.75849954  0.80046817  0.93767360  1  0  0.096511  0  0.984227  0  0  0.105978  0  1.052693  0  0  0.108303  0  1.050208  0  0  0.108783  0.104246  0  1.054458  0
H  H6  1  0.25852179  0.30049451  0.56233683  1  0  0.096409  0  0.984347  0  0  0.105887  0  1.052806  0  0  0.108209  0  1.050319  0  0  0.10875  0.104159  0  1.054565  0
H  H7  1  0.24150688  0.19953299  0.06232642  1  0  0.096442  0  0.984317  0  0  0.105916  0  1.052773  0  0  0.108241  0  1.050287  0  0  0.108758  0.104186  0  1.054538  0
H  H8  1  0.12376272  0.68517443  0.28180658  1  0  0.090839  0  0.95475  0  0  0.105089  0  1.014516  0  0  0.107314  0  1.01192  0  0  0.117907  0.103473  0  1.016317  0
H  H9  1  0.37627792  0.81486148  0.78180846  1  0  0.090777  0  0.954925  0  0  0.105066  0  1.014647  0  0  0.107289  0  1.012054  0  0  0.117933  0.103435  0  1.016464  0
H  H10  1  0.87624313  0.31482962  0.71819403  1  0  0.090813  0  0.954787  0  0  0.105078  0  1.014548  0  0  0.107302  0  1.011953  0  0  0.117892  0.103471  0  1.016341  0
H  H11  1  0.62371532  0.18514253  0.21819274  1  0  0.090801  0  0.954996  0  0  0.105109  0  1.014689  0  0  0.107332  0  1.012096  0  0  0.117928  0.103495  0  1.016488  0
H  H12  1  0.97952314  0.73002430  0.16998114  1  0  0.112403  0  0.9346  0  0  0.124719  0  0.989714  0  0  0.127912  0  0.989163  0  0  0.109409  0.122407  0  0.990311  0
H  H13  1  0.52051444  0.77000572  0.66998967  1  0  0.112443  0  0.934713  0  0  0.124773  0  0.989804  0  0  0.127963  0  0.989254  0  0  0.109451  0.122461  0  0.990399  0
H  H14  1  0.02048215  0.26998265  0.83001829  1  0  0.112436  0  0.934639  0  0  0.124766  0  0.989723  0  0  0.127959  0  0.989172  0  0  0.109418  0.122452  0  0.990319  0
H  H15  1  0.47949226  0.22999399  0.33001507  1  0  0.112436  0  0.934632  0  0  0.124766  0  0.989727  0  0  0.127957  0  0.989178  0  0  0.109442  0.122453  0  0.990323  0
H  H16  1  0.86654481  0.82828005  0.06578168  1  0  0.071625  0  0.986421  0  0  0.07842  0  1.057674  0  0  0.080812  0  1.055108  0  0  0.101276  0.076553  0  1.059658  0
H  H17  1  0.63347721  0.67174686  0.56578732  1  0  0.071609  0  0.98645  0  0  0.078425  0  1.057678  0  0  0.080822  0  1.055108  0  0  0.101287  0.076557  0  1.059662  0
H  H18  1  0.13345902  0.17171489  0.93421952  1  0  0.071575  0  0.986424  0  0  0.078424  0  1.057647  0  0  0.080766  0  1.055131  0  0  0.101268  0.076555  0  1.059632  0
H  H19  1  0.36652449  0.32826558  0.43421447  1  0  0.071507  0  0.986609  0  0  0.078343  0  1.05781  0  0  0.08071  0  1.055271  0  0  0.101253  0.076478  0  1.059793  0
H  H20  1  0.54809832  0.88832519  0.22542182  1  0  0.062678  0  0.958646  0  0  0.073437  0  1.021952  0  0  0.075492  0  1.019974  0  0  0.110408  0.071992  0  1.023279  0
H  H21  1  0.95189330  0.61164256  0.72543512  1  0  0.062596  0  0.958732  0  0  0.073457  0  1.021938  0  0  0.075518  0  1.019965  0  0  0.110436  0.072003  0  1.023272  0
H  H22  1  0.45189391  0.11165799  0.77456993  1  0  0.062614  0  0.958825  0  0  0.073439  0  1.022048  0  0  0.0755  0  1.020071  0  0  0.110414  0.071991  0  1.023376  0
H  H23  1  0.04810117  0.38836161  0.27456490  1  0  0.062549  0  0.958821  0  0  0.073411  0  1.022032  0  0  0.075466  0  1.020056  0  0  0.110448  0.071959  0  1.023364  0
H  H24  1  0.66359109  0.81086336  0.33852140  1  0  0.108101  0  1.007495  0  0  0.116489  0  1.072473  0  0  0.119772  0  1.071729  0  0  0.090105  0.114098  0  1.073136  0
H  H25  1  0.83638660  0.68909701  0.83852992  1  0  0.108082  0  1.007639  0  0  0.116438  0  1.072645  0  0  0.119726  0  1.071879  0  0  0.090083  0.114071  0  1.073279  0
H  H26  1  0.33640181  0.18912285  0.66147626  1  0  0.108137  0  1.007487  0  0  0.116481  0  1.072499  0  0  0.11976  0  1.07176  0  0  0.090091  0.114121  0  1.073136  0
H  H27  1  0.16359009  0.31089466  0.16146064  1  0  0.108032  0  1.007485  0  0  0.116324  0  1.072568  0  0  0.119611  0  1.07181  0  0  0.090025  0.113981  0  1.073184  0
C  C28  1  0.84132671  0.68201608  0.41024377  1  0  0.028961  0  3.680496  0  0  -0.017321  0  3.938293  0  0  -0.009348  0  3.95451  0  0  0.021224  -0.022168  0  3.926941  0
C  C29  1  0.65865253  0.81796428  0.91024875  1  0  0.02886  0  3.680339  0  0  -0.017369  0  3.938145  0  0  -0.009416  0  3.954363  0  0  0.021107  -0.022208  0  3.926799  0
C  C30  1  0.15865710  0.31797792  0.58975389  1  0  0.029009  0  3.680331  0  0  -0.017245  0  3.938104  0  0  -0.009274  0  3.954323  0  0  0.021224  -0.022088  0  3.926758  0
C  C31  1  0.34134924  0.18203484  0.08975067  1  0  0.028952  0  3.680289  0  0  -0.017248  0  3.938078  0  0  -0.009301  0  3.954292  0  0  0.021125  -0.022089  0  3.926731  0
C  C32  1  0.90620780  0.71666485  0.33090637  1  0  -0.08117  0  3.843894  0  0  -0.063389  0  4.089035  0  0  -0.07416  0  4.116401  0  0  -0.036322  -0.056403  0  4.070318  0
C  C33  1  0.59379245  0.78332131  0.83090895  1  0  -0.080787  0  3.843894  0  0  -0.063103  0  4.0891  0  0  -0.073835  0  4.116422  0  0  -0.036262  -0.056133  0  4.070395  0
C  C34  1  0.09378398  0.28332715  0.66909483  1  0  -0.081018  0  3.843802  0  0  -0.063258  0  4.088962  0  0  -0.074025  0  4.116326  0  0  -0.036317  -0.056287  0  4.070265  0
C  C35  1  0.40620410  0.21667866  0.16909343  1  0  -0.080683  0  3.843783  0  0  -0.063025  0  4.089078  0  0  -0.073743  0  4.116385  0  0  -0.036214  -0.056054  0  4.070374  0
C  C36  1  0.03435998  0.67253585  0.33011791  1  0  0.003949  0  3.717455  0  0  -0.04395  0  3.981651  0  0  -0.03609  0  3.99811  0  0  0.013691  -0.048697  0  3.970061  0
C  C37  1  0.46566566  0.82747195  0.83011550  1  0  0.003802  0  3.717583  0  0  -0.044118  0  3.981769  0  0  -0.03627  0  3.998221  0  0  0.013617  -0.048846  0  3.970186  0
C  C38  1  0.96565872  0.32748011  0.66988979  1  0  0.003841  0  3.717487  0  0  -0.044081  0  3.981694  0  0  -0.03622  0  3.998152  0  0  0.013669  -0.04883  0  3.970104  0
C  C39  1  0.53432336  0.17252120  0.16988866  1  0  0.003732  0  3.717656  0  0  -0.044198  0  3.981844  0  0  -0.036355  0  3.998293  0  0  0.013572  -0.048941  0  3.970254  0
C  C40  1  0.83943128  0.76822119  0.26575163  1  0  0.135821  0  3.791388  0  0  0.144762  0  4.022511  0  0  0.153289  0  4.043564  0  0  0.017159  0.139339  0  4.00821  0
C  C41  1  0.66057360  0.73176716  0.76575707  1  0  0.135488  0  3.791322  0  0  0.144481  0  4.022417  0  0  0.153  0  4.043447  0  0  0.017103  0.139064  0  4.008124  0
C  C42  1  0.16056645  0.23175969  0.73424898  1  0  0.135784  0  3.791297  0  0  0.144736  0  4.022379  0  0  0.153264  0  4.043425  0  0  0.017157  0.139316  0  4.008087  0
C  C43  1  0.33942059  0.26823845  0.23424413  1  0  0.135535  0  3.791433  0  0  0.144456  0  4.022596  0  0  0.15297  0  4.043629  0  0  0.017077  0.139037  0  4.008304  0
C  C44  1  0.88816821  0.76853599  0.18650954  1  0  -0.161413  0  3.696081  0  0  -0.179625  0  3.946481  0  0  -0.188629  0  3.967529  0  0  -0.082415  -0.173963  0  3.932532  0
C  C45  1  0.61183972  0.73148559  0.68651644  1  0  -0.161328  0  3.695848  0  0  -0.179587  0  3.946255  0  0  -0.188591  0  3.967302  0  0  -0.082456  -0.173925  0  3.932309  0
C  C46  1  0.11182698  0.23145790  0.81348930  1  0  -0.161494  0  3.696154  0  0  -0.179715  0  3.946552  0  0  -0.188716  0  3.967586  0  0  -0.08243  -0.17405  0  3.932599  0
C  C47  1  0.38816474  0.26852570  0.31348417  1  0  -0.161344  0  3.695876  0  0  -0.179571  0  3.946294  0  0  -0.188573  0  3.967339  0  0  -0.082435  -0.173907  0  3.932343  0
C  C48  1  0.82310224  0.82277538  0.12681792  1  0  0.135247  0  3.706801  0  0  0.103783  0  3.954692  0  0  0.11198  0  3.972254  0  0  0.041996  0.098521  0  3.942817  0
C  C49  1  0.67691662  0.67723815  0.62682642  1  0  0.135141  0  3.706976  0  0  0.103648  0  3.954834  0  0  0.111841  0  3.972396  0  0  0.04197  0.098385  0  3.942961  0
C  C50  1  0.17690855  0.17722927  0.87318151  1  0  0.135322  0  3.70681  0  0  0.103795  0  3.954666  0  0  0.112031  0  3.972247  0  0  0.041997  0.098533  0  3.942791  0
C  C51  1  0.32309131  0.32276171  0.37317773  1  0  0.135276  0  3.707011  0  0  0.103793  0  3.954836  0  0  0.11201  0  3.972408  0  0  0.041993  0.098527  0  3.942964  0
C  C52  1  0.64939844  0.85855504  0.21602118  1  0  0.118454  0  3.740642  0  0  0.088122  0  3.990311  0  0  0.09549  0  4.009164  0  0  0.03494  0.082994  0  3.978146  0
C  C53  1  0.85058968  0.64141782  0.71602351  1  0  0.118516  0  3.740342  0  0  0.08807  0  3.99  0  0  0.095421  0  4.008865  0  0  0.03494  0.082954  0  3.977822  0
C  C54  1  0.35060539  0.14143989  0.78397470  1  0  0.118571  0  3.740624  0  0  0.088162  0  3.990267  0  0  0.095522  0  4.009125  0  0  0.035006  0.083036  0  3.978107  0
C  C55  1  0.14938225  0.35856588  0.28397355  1  0  0.118626  0  3.740363  0  0  0.088171  0  3.989987  0  0  0.095536  0  4.008843  0  0  0.03487  0.083056  0  3.97781  0
C  C56  1  0.71288331  0.81192168  0.27907577  1  0  -0.165711  0  3.702345  0  0  -0.182759  0  3.945764  0  0  -0.191988  0  3.968047  0  0  -0.090419  -0.176692  0  3.930867  0
C  C57  1  0.78712312  0.68806235  0.77908868  1  0  -0.165553  0  3.701993  0  0  -0.182523  0  3.945275  0  0  -0.191742  0  3.967564  0  0  -0.090368  -0.176476  0  3.930349  0
C  C58  1  0.28711043  0.18806020  0.72092011  1  0  -0.165824  0  3.702345  0  0  -0.182826  0  3.945757  0  0  -0.192051  0  3.968042  0  0  -0.090494  -0.176784  0  3.930837  0
C  C59  1  0.21286467  0.31193065  0.22090957  1  0  -0.16566  0  3.702051  0  0  -0.182537  0  3.945383  0  0  -0.191761  0  3.967676  0  0  -0.090324  -0.176512  0  3.930447  0
N  N60  1  0.92028776  0.61801880  0.45211131  1  0  -0.241578  0  3.26212  0  0  -0.165742  0  3.5514  0  0  -0.181044  0  3.566929  0  0  -0.266749  -0.155497  0  3.540725  0
N  N61  1  0.57969071  0.88198178  0.95211091  1  0  -0.241856  0  3.261845  0  0  -0.166084  0  3.551193  0  0  -0.181384  0  3.566721  0  0  -0.266726  -0.155843  0  3.540525  0
N  N62  1  0.07969986  0.38198158  0.54788635  1  0  -0.241753  0  3.26195  0  0  -0.165977  0  3.551313  0  0  -0.181275  0  3.566836  0  0  -0.266821  -0.155735  0  3.540644  0
N  N63  1  0.42032266  0.11802910  0.04788911  1  0  -0.241905  0  3.261912  0  0  -0.166169  0  3.551294  0  0  -0.181467  0  3.56682  0  0  -0.266737  -0.155927  0  3.540624  0
N  N64  1  0.04025445  0.61209725  0.40265928  1  0  -0.245213  0  3.279778  0  0  -0.169562  0  3.574826  0  0  -0.185297  0  3.590552  0  0  -0.26722  -0.159011  0  3.564001  0
N  N65  1  0.45975840  0.88792577  0.90265096  1  0  -0.244932  0  3.27938  0  0  -0.169212  0  3.574373  0  0  -0.184945  0  3.590099  0  0  -0.267147  -0.158658  0  3.563539  0
N  N66  1  0.95975247  0.38791434  0.59734724  1  0  -0.245019  0  3.279208  0  0  -0.169334  0  3.57423  0  0  -0.185073  0  3.58996  0  0  -0.267092  -0.158778  0  3.5634  0
N  N67  1  0.54024813  0.11208133  0.09735202  1  0  -0.244979  0  3.279351  0  0  -0.169234  0  3.574313  0  0  -0.184969  0  3.590044  0  0  -0.267075  -0.158682  0  3.563486  0
N  N68  1  0.70691083  0.87058467  0.14043115  1  0  -0.338181  0  3.310106  0  0  -0.249101  0  3.583601  0  0  -0.268063  0  3.597969  0  0  -0.34377  -0.236327  0  3.573648  0
N  N69  1  0.79308857  0.62942198  0.64043819  1  0  -0.338135  0  3.310406  0  0  -0.249012  0  3.583865  0  0  -0.267977  0  3.59825  0  0  -0.343731  -0.23624  0  3.573906  0
N  N70  1  0.29309682  0.12941664  0.85956355  1  0  -0.338175  0  3.310148  0  0  -0.249062  0  3.58364  0  0  -0.268023  0  3.597998  0  0  -0.34373  -0.236287  0  3.57368  0
N  N71  1  0.20691891  0.37058671  0.35956124  1  0  -0.33812  0  3.310037  0  0  -0.249029  0  3.583526  0  0  -0.267994  0  3.597894  0  0  -0.343642  -0.236256  0  3.573568  0
Cl  Cl72  1  0.46099749  0.17777572  0.53420212  1  0  -0.568904  0  0.929162  0  0  -0.50788  0  1.191621  0  0  -0.523772  0  1.169615  0  0  -0.325037  -0.496332  0  1.206523  0
Cl  Cl73  1  0.03900626  0.32223724  0.03419997  1  0  -0.568927  0  0.929117  0  0  -0.507901  0  1.191569  0  0  -0.523787  0  1.169551  0  0  -0.325044  -0.496354  0  1.206475  0
Cl  Cl74  1  0.53900960  0.82222848  0.46579671  1  0  -0.568901  0  0.92908  0  0  -0.507869  0  1.191531  0  0  -0.523764  0  1.169526  0  0  -0.325034  -0.496316  0  1.206427  0
Cl  Cl75  1  0.96099769  0.67776363  0.96579710  1  0  -0.568943  0  0.92905  0  0  -0.507909  0  1.191502  0  0  -0.523815  0  1.169512  0  0  -0.325048  -0.49636  0  1.206402  0
