# generated using pymatgen
data_Zn4H12C27O13
_symmetry_space_group_name_H-M   'P 1'
_cell_length_a   16.13675902
_cell_length_b   16.13420061
_cell_length_c   16.10454841
_cell_angle_alpha   89.80513150
_cell_angle_beta   83.89225645
_cell_angle_gamma   84.22914454
_symmetry_Int_Tables_number   1
_chemical_formula_structural   Zn4H12C27O13
_chemical_formula_sum   'Zn4 H12 C27 O13'
_cell_volume   4147.83651178
_cell_formula_units_Z   1
loop_
 _symmetry_equiv_pos_site_id
 _symmetry_equiv_pos_as_xyz
  1  'x, y, z'
loop_
 _atom_site_type_symbol
 _atom_site_label
 _atom_site_symmetry_multiplicity
 _atom_site_fract_x
 _atom_site_fract_y
 _atom_site_fract_z
 _atom_site_occupancy
 _atom_site_pbe_bader_charge
 _atom_site_pbe_bader_spin_density
 _atom_site_pbe_cm5_charge
 _atom_site_pbe_ddec_charge
 _atom_site_pbe_ddec_spin_density
 _atom_site_pbe_ddec_sum_bond_order
 _atom_site_pbe_magmom
Zn  Zn0  1  0.57004336  0.57105413  0.42869008  1  1.317708  0  0.674564  0.966548  0  2.365032  0
Zn  Zn1  1  0.57123477  0.42243096  0.56320339  1  1.316486  0  0.676366  0.968795  0  2.356005  0
Zn  Zn2  1  0.43576609  0.43702213  0.42845516  1  1.316304  0  0.674289  0.966996  0  2.362169  0
Zn  Zn3  1  0.42132092  0.57089654  0.57787564  1  1.313129  0  0.675718  0.967061  0  2.362538  0
H  H4  1  0.42793320  0.00818163  0.57227250  1  0.122082  0  0.124098  0.127802  0  0.954798  0
H  H5  1  0.67188572  0.58920827  0.07211290  1  0.011273  0  0.090268  0.081296  0  0.971303  0
H  H6  1  0.63027252  0.54806725  0.93217866  1  0.061975  0  0.10103  0.101752  0  0.965124  0
H  H7  1  0.54895980  0.62916834  0.94055580  1  0.058265  0  0.100894  0.102793  0  0.964449  0
H  H8  1  0.57157392  0.99186218  0.42822970  1  0.132292  0  0.130233  0.134207  0  0.945933  0
H  H9  1  0.43880445  0.43927335  0.01106253  1  0.129512  0  0.126596  0.139787  0  0.95856  0
H  H10  1  0.98462792  0.56508181  0.57223114  1  0.103895  0  0.123686  0.127412  0  0.954485  0
H  H11  1  0.01528371  0.43557920  0.42832177  1  0.12029  0  0.130071  0.13531  0  0.945133  0
H  H12  1  0.73835885  0.65390716  0.94093254  1  0.028126  0  0.084885  0.107775  0  1.006435  0
H  H13  1  0.65606458  0.73609185  0.94931710  1  0.028937  0  0.085019  0.10861  0  1.005463  0
H  H14  1  0.72655699  0.72418098  0.02694883  1  0.004597  0  0.089077  0.115708  0  1.000225  0
H  H15  1  0.59045181  0.67056433  0.08040381  1  0.027488  0  0.09095  0.081181  0  0.971244  0
C  C16  1  0.48919976  0.48907777  0.72469687  1  1.660516  0  0.234982  0.678843  0  4.242981  0
C  C17  1  0.51607705  0.51569189  0.18524886  1  -0.078612  0  -0.041151  -0.190571  0  3.956328  0
C  C18  1  0.81557245  0.48406502  0.48224246  1  0.208267  0  -0.027332  -0.176307  0  3.906392  0
C  C19  1  0.51127056  0.51088660  0.27449329  1  1.647261  0  0.229258  0.675393  0  4.243274  0
C  C20  1  0.97921402  0.47764942  0.47502345  1  0.046695  0  -0.050598  -0.043337  0  4.039008  0
C  C21  1  0.02053369  0.52298758  0.52550633  1  0.148655  0  -0.061563  -0.060578  0  4.05848  0
C  C22  1  0.10814538  0.51835198  0.52035811  1  -0.482297  0  -0.020739  0.016982  0  4.142915  0
C  C23  1  0.89170097  0.48143716  0.47927359  1  -0.465161  0  -0.010133  0.027466  0  4.112769  0
C  C24  1  0.18430172  0.51538090  0.51713531  1  0.208162  0  -0.038667  -0.193291  0  3.946972  0
C  C25  1  0.72541548  0.48873984  0.48755083  1  1.685419  0  0.235501  0.677887  0  4.241026  0
C  C26  1  0.27400248  0.51090615  0.51220379  1  1.652716  0  0.230079  0.676516  0  4.242204  0
C  C27  1  0.47981794  0.88975342  0.52037347  1  -0.238352  0  -0.020447  0.017691  0  4.144233  0
C  C28  1  0.51243428  0.27586903  0.48758786  1  1.64447  0  0.2362  0.675548  0  4.243381  0
C  C29  1  0.48810306  0.72467322  0.51226594  1  1.623783  0  0.231623  0.677723  0  4.241955  0
C  C30  1  0.51768489  0.18623699  0.48219308  1  0.352019  0  -0.024662  -0.172739  0  3.906462  0
C  C31  1  0.52492661  0.02327566  0.47499218  1  0.072679  0  -0.051152  -0.041291  0  4.039691  0
C  C32  1  0.47460551  0.97689268  0.52550266  1  0.130042  0  -0.062261  -0.061664  0  4.060127  0
C  C33  1  0.58618159  0.58522358  0.97813399  1  -0.043932  0  -0.14987  -0.190997  0  3.936869  0
C  C34  1  0.63473558  0.63335158  0.03494634  1  0.014377  0  -0.165203  -0.087656  0  3.975633  0
C  C35  1  0.69203295  0.68993999  0.98538675  1  -0.062016  0  -0.244204  -0.355946  0  3.992191  0
C  C36  1  0.52064568  0.11039532  0.47922601  1  -0.597716  0  -0.011683  0.024869  0  4.11299  0
C  C37  1  0.48320497  0.81389920  0.51707743  1  -0.024686  0  -0.039795  -0.194554  0  3.949459  0
C  C38  1  0.48514775  0.48541538  0.81442437  1  0.160624  0  -0.028773  -0.187396  0  3.903333  0
C  C39  1  0.48043376  0.48048113  0.97762510  1  0.120672  0  -0.06472  -0.131642  0  4.013932  0
C  C40  1  0.52752432  0.52708499  0.02165190  1  0.136873  0  0.015838  0.140254  0  4.011508  0
C  C41  1  0.52055760  0.52023985  0.10924561  1  -0.216568  0  -0.013228  -0.025951  0  4.103213  0
C  C42  1  0.48279158  0.48293544  0.89047314  1  -0.439578  0  -0.009987  0.046795  0  4.13036  0
O  O43  1  0.50013651  0.49964444  0.49985020  1  -1.23229  0  -0.5675  -1.036151  0  2.519754  0
O  O44  1  0.55846112  0.30544135  0.53752069  1  -1.142308  0  -0.303524  -0.528759  0  2.271685  0
O  O45  1  0.43697154  0.68933445  0.56352708  1  -1.138808  0  -0.310817  -0.538822  0  2.278103  0
O  O46  1  0.46228220  0.31579949  0.44221087  1  -1.140776  0  -0.302652  -0.528395  0  2.273544  0
O  O47  1  0.54324985  0.68951028  0.45714728  1  -1.142922  0  -0.310408  -0.539783  0  2.279888  0
O  O48  1  0.68998298  0.54332675  0.44208545  1  -1.141883  0  -0.30325  -0.529747  0  2.272115  0
O  O49  1  0.30434912  0.55697950  0.56334522  1  -1.146899  0  -0.309607  -0.537226  0  2.277748  0
O  O50  1  0.54435159  0.43775750  0.68450730  1  -1.151044  0  -0.306386  -0.534378  0  2.274756  0
O  O51  1  0.46162365  0.46115345  0.30974782  1  -1.14452  0  -0.312484  -0.54205  0  2.278913  0
O  O52  1  0.43766549  0.54330343  0.69483113  1  -1.142729  0  -0.304193  -0.530547  0  2.274784  0
O  O53  1  0.55729292  0.55695506  0.31011809  1  -1.147781  0  -0.311126  -0.539675  0  2.279368  0
O  O54  1  0.69084093  0.43780794  0.53753790  1  -1.1464  0  -0.302755  -0.529992  0  2.271322  0
O  O55  1  0.31452412  0.46119810  0.45705898  1  -1.138317  0  -0.310352  -0.539556  0  2.278311  0
