# generated using pymatgen
data_CoH12(C7N5)2
_symmetry_space_group_name_H-M   'P 1'
_cell_length_a   7.23012783
_cell_length_b   7.52828890
_cell_length_c   13.80758733
_cell_angle_alpha   90.00072690
_cell_angle_beta   90.00086955
_cell_angle_gamma   99.93277185
_symmetry_Int_Tables_number   1
_chemical_formula_structural   CoH12(C7N5)2
_chemical_formula_sum   'Co2 H24 C28 N20'
_cell_volume   740.28858795
_cell_formula_units_Z   2
loop_
 _symmetry_equiv_pos_site_id
 _symmetry_equiv_pos_as_xyz
  1  'x, y, z'
loop_
 _atom_site_type_symbol
 _atom_site_label
 _atom_site_symmetry_multiplicity
 _atom_site_fract_x
 _atom_site_fract_y
 _atom_site_fract_z
 _atom_site_occupancy
 _atom_site_hle17_ddec_charge
 _atom_site_hle17_ddec_spin_density
 _atom_site_hle17_ddec_sum_bond_order
 _atom_site_hle17_magmom
 _atom_site_hse06_10hf_ddec_charge
 _atom_site_hse06_10hf_ddec_spin_density
 _atom_site_hse06_10hf_ddec_sum_bond_order
 _atom_site_hse06_10hf_magmom
 _atom_site_hse06_ddec_charge
 _atom_site_hse06_ddec_spin_density
 _atom_site_hse06_ddec_sum_bond_order
 _atom_site_hse06_magmom
 _atom_site_pbe_cm5_charge
 _atom_site_pbe_ddec_charge
 _atom_site_pbe_ddec_spin_density
 _atom_site_pbe_ddec_sum_bond_order
 _atom_site_pbe_magmom
Co  Co0  1  0.99999806  0.50000232  0.50000004  1  0.762928  1.188587  2.694043  0.996  0.762081  1.0582  3.124578  0.935  0.814649  1.063641  3.058367  0.951  0.749958  0.733221  1.040734  3.164637  0.911
Co  Co1  1  0.50000462  0.49999547  0.00000035  1  0.762926  -1.188575  2.694181  -0.996  0.762122  -1.058193  3.124703  -0.935  0.814653  -1.063632  3.058521  -0.951  0.749995  0.733258  -1.040721  3.164773  -0.911
H  H2  1  0.99325524  0.87061486  0.44196300  1  0.094177  -7.1e-05  0.949482  0.0  0.102602  -5.9e-05  1.011366  0.0  0.10426  -5.6e-05  1.00978  0.0  0.118149  0.101348  -4.4e-05  1.012796  0.0
H  H3  1  0.50672428  0.12937357  0.94196444  1  0.094187  7.2e-05  0.949472  0.0  0.102611  5.9e-05  1.011334  0.0  0.104271  5.6e-05  1.009745  0.0  0.118164  0.101351  4.4e-05  1.012772  0.0
H  H4  1  0.00673629  0.12938715  0.55803718  1  0.094279  -7.2e-05  0.949435  0.0  0.102677  -5.9e-05  1.011337  0.0  0.104335  -5.6e-05  1.00975  0.0  0.118181  0.101424  -4.4e-05  1.012762  0.0
H  H5  1  0.49328555  0.87062284  0.05803429  1  0.094201  7e-05  0.949459  0.0  0.102562  5.9e-05  1.011375  0.0  0.104221  5.6e-05  1.009788  0.0  0.118152  0.101307  4.4e-05  1.012807  0.0
H  H6  1  0.07174993  0.40446558  0.29937996  1  0.084746  -5e-05  0.983917  0.0  0.088479  -6.8e-05  1.056532  0.0  0.090389  -5.8e-05  1.054945  0.0  0.113386  0.087043  -6.1e-05  1.057918  0.0
H  H7  1  0.42824470  0.59552018  0.79938119  1  0.084784  5e-05  0.983957  0.0  0.088561  6.8e-05  1.056491  0.0  0.090478  5.8e-05  1.054905  0.0  0.113386  0.08712  6.1e-05  1.057885  0.0
H  H8  1  0.92823945  0.59553240  0.70062239  1  0.084741  -4.9e-05  0.983811  0.0  0.088482  -6.8e-05  1.056425  0.0  0.090397  -5.8e-05  1.05484  0.0  0.113365  0.087043  -6.1e-05  1.057813  0.0
H  H9  1  0.57175485  0.40448039  0.20062261  1  0.084816  4.9e-05  0.983922  0.0  0.088599  6.8e-05  1.056464  0.0  0.090513  5.8e-05  1.054876  0.0  0.113404  0.087161  6.1e-05  1.057857  0.0
H  H10  1  0.08140023  0.55885472  0.13876815  1  0.091879  -7.9e-05  0.976817  0.0  0.101003  5e-05  1.038904  0.0  0.101515  4.1e-05  1.040574  0.0  0.101694  0.100575  6.3e-05  1.037933  0.0
H  H11  1  0.41860687  0.44113195  0.63876454  1  0.092017  8e-05  0.976747  0.0  0.101085  -5e-05  1.038893  0.0  0.101609  -4.1e-05  1.040548  0.0  0.101709  0.100651  -6.3e-05  1.037928  0.0
H  H12  1  0.91859897  0.44115127  0.86123709  1  0.091974  -8.2e-05  0.976789  0.0  0.101067  5e-05  1.038901  0.0  0.101589  4.1e-05  1.040562  0.0  0.101692  0.100635  6.3e-05  1.037931  0.0
H  H13  1  0.58138793  0.55887272  0.36123637  1  0.092032  7.9e-05  0.976749  0.0  0.101143  -5e-05  1.038828  0.0  0.101667  -4.1e-05  1.040482  0.0  0.101745  0.100713  -6.3e-05  1.037864  0.0
H  H14  1  0.02976713  0.87820464  0.12982187  1  0.104558  1.5e-05  0.95769  0.0  0.112396  -0.000102  1.023872  0.0  0.114898  -7.1e-05  1.02247  0.0  0.103052  0.110455  -0.000133  1.025181  0.0
H  H15  1  0.47024583  0.12177767  0.62981849  1  0.104517  -1.3e-05  0.957628  0.0  0.112359  0.000102  1.023802  0.0  0.114851  7.2e-05  1.022432  0.0  0.102999  0.110401  0.000133  1.025122  0.0
H  H16  1  0.97023847  0.12179857  0.87018049  1  0.104558  1.4e-05  0.957694  0.0  0.112382  -0.000102  1.023898  0.0  0.114887  -7.2e-05  1.022488  0.0  0.103032  0.11043  -0.000133  1.025219  0.0
H  H17  1  0.52975450  0.87822695  0.37017952  1  0.10452  -1.4e-05  0.957677  0.0  0.112354  0.000102  1.023861  0.0  0.114845  7.2e-05  1.022493  0.0  0.103004  0.110397  0.000133  1.02518  0.0
H  H18  1  0.92417837  0.12692826  0.34518417  1  0.310006  -0.000117  0.941285  0.0  0.296598  -5e-06  1.004011  0.0  0.301981  -5.9e-05  1.000728  0.0  0.28887  0.292731  5.3e-05  1.006346  0.0
H  H19  1  0.57581826  0.87305466  0.84518520  1  0.310177  0.000116  0.941059  0.0  0.296736  5e-06  1.003856  0.0  0.302119  5.9e-05  1.000568  0.0  0.28889  0.292867  -5.3e-05  1.006192  0.0
H  H20  1  0.07581731  0.87307371  0.65481745  1  0.310025  -0.000117  0.941281  0.0  0.296615  -5e-06  1.004008  0.0  0.301997  -5.9e-05  1.000724  0.0  0.288909  0.292749  5.3e-05  1.006339  0.0
H  H21  1  0.42419019  0.12694177  0.15480991  1  0.310183  0.000117  0.941016  0.0  0.296746  5e-06  1.003808  0.0  0.302129  5.9e-05  1.000521  0.0  0.288924  0.292876  -5.3e-05  1.006145  0.0
H  H22  1  0.93652940  0.12321773  0.22212216  1  0.296771  -2.9e-05  0.938497  0.0  0.282379  -7.3e-05  1.004507  0.0  0.287398  -5.3e-05  1.001875  0.0  0.290624  0.278818  -9e-05  1.006304  0.0
H  H23  1  0.56347287  0.87676853  0.72212311  1  0.296814  2.8e-05  0.938433  0.0  0.282453  7.3e-05  1.004412  0.0  0.287472  5.4e-05  1.001777  0.0  0.290623  0.278891  9e-05  1.006206  0.0
H  H24  1  0.06347559  0.87678954  0.77787584  1  0.296795  -3e-05  0.938445  0.0  0.282373  -7.3e-05  1.004495  0.0  0.287393  -5.3e-05  1.001862  0.0  0.29063  0.278811  -9e-05  1.006285  0.0
H  H25  1  0.43652643  0.12323069  0.27787345  1  0.296873  2.9e-05  0.938361  0.0  0.282512  7.3e-05  1.00434  0.0  0.287532  5.3e-05  1.001705  0.0  0.290677  0.278951  9e-05  1.006135  0.0
C  C26  1  0.31979091  0.30180030  0.45138257  1  0.485959  -0.011169  3.949048  -0.014  0.455228  -0.003518  4.233816  -0.004  0.484457  -0.002991  4.23984  -0.003  0.314849  0.435381  -0.003589  4.229654  -0.004
C  C27  1  0.18021216  0.69820842  0.95137594  1  0.485921  0.01118  3.949017  0.014  0.455154  0.00352  4.233795  0.004  0.484388  0.002993  4.239817  0.003  0.314845  0.4353  0.003591  4.229636  0.004
C  C28  1  0.68019208  0.69820045  0.54861761  1  0.485634  -0.011183  3.949307  -0.014  0.454905  -0.003523  4.234044  -0.004  0.484134  -0.002994  4.240068  -0.003  0.314765  0.435059  -0.003593  4.22989  -0.004
C  C29  1  0.81979645  0.30179611  0.04862062  1  0.485907  0.01118  3.949051  0.014  0.455196  0.003521  4.233784  0.004  0.484428  0.002992  4.239808  0.003  0.314857  0.435348  0.003591  4.229618  0.004
C  C30  1  0.62183609  0.24426069  0.43622023  1  0.482762  0.016753  3.960268  0.022  0.448094  0.015625  4.255948  0.022  0.472559  0.013622  4.265009  0.019  0.304291  0.431728  0.017754  4.249313  0.024
C  C31  1  0.87816877  0.75573812  0.93622150  1  0.482513  -0.016751  3.960279  -0.022  0.447816  -0.015631  4.255958  -0.022  0.472284  -0.013625  4.265015  -0.019  0.304218  0.431455  -0.017756  4.2493  -0.024
C  C32  1  0.37815381  0.75573998  0.56377415  1  0.482793  0.016748  3.959914  0.022  0.448098  0.015627  4.255609  0.022  0.472559  0.013623  4.264665  0.019  0.304336  0.431743  0.017752  4.248962  0.024
C  C33  1  0.12183881  0.24426102  0.06377940  1  0.482803  -0.016752  3.959906  -0.022  0.448121  -0.01563  4.255619  -0.022  0.472586  -0.013625  4.264685  -0.019  0.304386  0.43176  -0.017757  4.248973  -0.024
C  C34  1  0.00638467  0.90142860  0.28570426  1  0.272083  0.001435  3.864872  0.002  0.27101  0.000163  4.112652  0.0  0.277315  0.000247  4.133176  0.0  0.100011  0.266432  0.00013  4.09903  0.0
C  C35  1  0.49361383  0.09856486  0.78570164  1  0.272217  -0.001437  3.865005  -0.002  0.271237  -0.000163  4.112643  0.0  0.277544  -0.000246  4.133158  0.0  0.100136  0.26666  -0.000131  4.099011  0.0
C  C36  1  0.99361652  0.09857331  0.71429809  1  0.272066  0.001438  3.865105  0.002  0.271142  0.000164  4.112653  0.0  0.277448  0.000246  4.133171  0.0  0.100095  0.266561  0.00013  4.099028  0.0
C  C37  1  0.50638987  0.90143567  0.21429782  1  0.272212  -0.001439  3.865022  -0.002  0.271199  -0.000163  4.112673  0.0  0.277506  -0.000246  4.133194  0.0  0.100146  0.26662  -0.00013  4.099048  0.0
C  C38  1  0.00918050  0.80542778  0.37297188  1  -0.006877  -0.005568  3.632386  -0.007  -0.039449  -0.002121  3.890402  -0.003  -0.034469  -0.001584  3.907984  -0.002  0.030999  -0.043278  -0.002587  3.879353  -0.003
C  C39  1  0.49080544  0.19456007  0.87297211  1  -0.007093  0.005571  3.632292  0.007  -0.039637  0.002124  3.890295  0.003  -0.034658  0.001585  3.907868  0.002  0.030896  -0.043477  0.002587  3.879273  0.003
C  C40  1  0.99082044  0.19457278  0.62703047  1  -0.007079  -0.005573  3.632471  -0.007  -0.039646  -0.002125  3.890445  -0.003  -0.034667  -0.001585  3.908025  -0.002  0.030955  -0.043475  -0.002586  3.879389  -0.003
C  C41  1  0.50920189  0.80543772  0.12702806  1  -0.007183  0.005577  3.632451  0.007  -0.039629  0.002124  3.890409  0.003  -0.03465  0.001585  3.907985  0.002  0.030907  -0.043464  0.002586  3.879379  0.003
C  C42  1  0.05277913  0.54385131  0.29323450  1  0.069546  -0.004766  3.693111  -0.006  0.033331  -0.001841  3.962785  -0.002  0.0408  -0.001515  3.980224  -0.002  0.020855  0.02809  -0.00208  3.951471  -0.003
C  C43  1  0.44722169  0.45613151  0.79323558  1  0.069681  0.004771  3.69303  0.006  0.033494  0.001844  3.962628  0.002  0.040961  0.001516  3.980063  0.002  0.020959  0.028254  0.00208  3.951309  0.003
C  C44  1  0.94721577  0.45614661  0.70676495  1  0.06969  -0.004777  3.692825  -0.006  0.033485  -0.001843  3.962497  -0.002  0.040949  -0.001515  3.979939  -0.002  0.020919  0.028246  -0.002079  3.951167  -0.003
C  C45  1  0.55278589  0.54386762  0.20676677  1  0.069606  0.00478  3.693046  0.006  0.033402  0.001842  3.962688  0.002  0.04087  0.001516  3.980125  0.002  0.020929  0.028163  0.002079  3.951374  0.003
C  C46  1  0.05642799  0.63135055  0.20428085  1  -0.089243  0.002003  3.787627  0.002  -0.102122  0.000365  4.043725  0.0  -0.106419  0.000439  4.06638  0.001  -0.089035  -0.099276  0.000329  4.028631  0.0
C  C47  1  0.44357742  0.36863252  0.70427546  1  -0.089573  -0.002011  3.78769  -0.002  -0.102418  -0.000366  4.043813  0.0  -0.106724  -0.000439  4.066462  -0.001  -0.089104  -0.099565  -0.000329  4.028711  0.0
C  C48  1  0.94356354  0.36865146  0.79572223  1  -0.089498  0.002017  3.78761  0.002  -0.10236  0.000366  4.043724  0.0  -0.106667  0.000439  4.066376  0.001  -0.089089  -0.099511  0.000329  4.028622  0.0
C  C49  1  0.55642137  0.63136401  0.29572400  1  -0.089551  -0.00201  3.787767  -0.002  -0.102429  -0.000365  4.043893  0.0  -0.106735  -0.000439  4.066541  -0.001  -0.089105  -0.099581  -0.000329  4.028799  0.0
C  C50  1  0.03097353  0.80938527  0.19922621  1  -0.133439  -0.00455  3.684596  -0.005  -0.156934  -0.001742  3.935322  -0.002  -0.156802  -0.001287  3.952577  -0.001  -0.087481  -0.157224  -0.002215  3.924219  -0.002
C  C51  1  0.46902533  0.19060043  0.69922406  1  -0.133288  0.00455  3.684764  0.005  -0.156812  0.001742  3.935451  0.002  -0.15668  0.001286  3.952695  0.001  -0.087456  -0.157091  0.002214  3.924351  0.002
C  C52  1  0.96902491  0.19061667  0.80077614  1  -0.133405  -0.004556  3.684647  -0.005  -0.156927  -0.001742  3.935323  -0.002  -0.156793  -0.001286  3.952579  -0.001  -0.087479  -0.157206  -0.002214  3.924224  -0.002
C  C53  1  0.53097509  0.80939744  0.30077612  1  -0.133282  0.004553  3.684719  0.005  -0.156784  0.001741  3.935412  0.002  -0.156653  0.001286  3.95266  0.001  -0.087465  -0.157057  0.002214  3.92431  0.002
N  N54  1  0.19678676  0.38144511  0.46684485  1  -0.537711  0.003173  3.200711  0.006  -0.518318  0.000269  3.517146  0.0  -0.542274  -7.4e-05  3.51709  -0.001  -0.393568  -0.503763  0.001056  3.51699  0.001
N  N55  1  0.30322191  0.61855451  0.96684664  1  -0.537704  -0.003178  3.2003  -0.006  -0.518303  -0.000268  3.516732  0.0  -0.542258  7.6e-05  3.516683  0.001  -0.39358  -0.503734  -0.001057  3.516573  -0.001
N  N56  1  0.80321013  0.61854873  0.53315026  1  -0.537632  0.003181  3.200532  0.006  -0.51826  0.000271  3.517015  0.0  -0.542219  -7.4e-05  3.51696  -0.001  -0.393572  -0.503696  0.001058  3.516857  0.001
N  N57  1  0.69678464  0.38143923  0.03315571  1  -0.53775  -0.003179  3.200682  -0.006  -0.518374  -0.00027  3.517136  0.0  -0.542324  7.5e-05  3.517077  0.001  -0.393628  -0.503814  -0.001057  3.51698  -0.001
N  N58  1  0.44078665  0.19831238  0.43197090  1  -0.462327  0.001878  3.294592  0.003  -0.407425  0.002496  3.553256  0.003  -0.429361  0.001784  3.553034  0.002  -0.309679  -0.392  0.003218  3.552888  0.004
N  N59  1  0.05921814  0.80168633  0.93196619  1  -0.462133  -0.001884  3.294987  -0.003  -0.407163  -0.002499  3.553575  -0.003  -0.429104  -0.001792  3.553358  -0.002  -0.309544  -0.391748  -0.003217  3.553242  -0.004
N  N60  1  0.55921316  0.80168954  0.56802493  1  -0.462209  0.001878  3.294615  0.003  -0.407263  0.002496  3.553242  0.003  -0.429189  0.001786  3.553012  0.002  -0.30965  -0.391849  0.003215  3.552873  0.004
N  N61  1  0.94079133  0.19831549  0.06803399  1  -0.462268  -0.001884  3.294541  -0.003  -0.407371  -0.002498  3.55319  -0.003  -0.429314  -0.00179  3.552973  -0.002  -0.309657  -0.391952  -0.003218  3.552841  -0.004
N  N62  1  0.02686191  0.63066064  0.37628253  1  -0.22005  -0.010964  3.422503  -0.015  -0.17637  -0.005223  3.704429  -0.008  -0.203434  -0.00486  3.728974  -0.008  -0.325018  -0.158915  -0.004824  3.687785  -0.007
N  N63  1  0.47312653  0.36933268  0.87628753  1  -0.219959  0.010957  3.422546  0.015  -0.17638  0.00522  3.704563  0.008  -0.203434  0.004859  3.729105  0.008  -0.325025  -0.158926  0.004823  3.687912  0.007
N  N64  1  0.97312971  0.36933461  0.62371765  1  -0.219972  -0.010954  3.422359  -0.015  -0.17634  -0.005222  3.70434  -0.008  -0.203402  -0.00486  3.728886  -0.008  -0.325037  -0.158881  -0.004825  3.687681  -0.007
N  N65  1  0.52687389  0.63066518  0.12371627  1  -0.219882  0.010951  3.422369  0.015  -0.176319  0.005222  3.704368  0.008  -0.203374  0.00486  3.728909  0.008  -0.325006  -0.158863  0.004824  3.687723  0.007
N  N66  1  0.78791291  0.27180255  0.43594220  1  -0.567013  0.011797  2.829366  0.013  -0.547317  0.014528  3.106723  0.015  -0.5651  0.010633  3.109478  0.01  -0.358578  -0.53544  0.018668  3.104541  0.02
N  N67  1  0.71208825  0.72818414  0.93594621  1  -0.566981  -0.011796  2.829347  -0.013  -0.547266  -0.014523  3.106717  -0.015  -0.565042  -0.010628  3.109473  -0.01  -0.358644  -0.535389  -0.018669  3.104525  -0.02
N  N68  1  0.21208312  0.72819401  0.56405580  1  -0.567012  0.011797  2.82945  0.013  -0.547317  0.014525  3.106817  0.015  -0.56509  0.010631  3.109566  0.01  -0.35863  -0.53545  0.01867  3.104629  0.02
N  N69  1  0.28791985  0.27181770  0.06405252  1  -0.567086  -0.011799  2.829247  -0.013  -0.547375  -0.014527  3.10661  -0.015  -0.565158  -0.010631  3.109376  -0.01  -0.358688  -0.535493  -0.018671  3.104419  -0.02
N  N70  1  0.98430160  0.07919779  0.28567494  1  -0.657263  5.4e-05  3.125795  0.0  -0.6242  0.000106  3.3526  0.0  -0.645  9.1e-05  3.357521  0.0  -0.598374  -0.609286  0.000117  3.348904  0.0
N  N71  1  0.51569467  0.92079162  0.78567509  1  -0.657546  -5.3e-05  3.125512  0.0  -0.624547  -0.000107  3.352282  0.0  -0.645371  -9.3e-05  3.357243  0.0  -0.598471  -0.609627  -0.000117  3.348584  0.0
N  N72  1  0.01570062  0.92080952  0.71432524  1  -0.657259  5.9e-05  3.125924  0.0  -0.624225  0.000108  3.352706  0.0  -0.645042  9.3e-05  3.357662  0.0  -0.598437  -0.60931  0.000117  3.349001  0.0
N  N73  1  0.48430877  0.07920756  0.21432219  1  -0.65761  -5.7e-05  3.12553  0.0  -0.62461  -0.000107  3.352311  0.0  -0.645429  -9.3e-05  3.35726  0.0  -0.598564  -0.609687  -0.000117  3.348615  0.0
