# generated using pymatgen
data_Cu3H7(C5N4)2
_symmetry_space_group_name_H-M   'P 1'
_cell_length_a   7.82535943
_cell_length_b   8.66744340
_cell_length_c   10.37789217
_cell_angle_alpha   111.45535190
_cell_angle_beta   99.63772433
_cell_angle_gamma   103.68080908
_symmetry_Int_Tables_number   1
_chemical_formula_structural   Cu3H7(C5N4)2
_chemical_formula_sum   'Cu6 H14 C20 N16'
_cell_volume   610.91521279
_cell_formula_units_Z   2
loop_
 _symmetry_equiv_pos_site_id
 _symmetry_equiv_pos_as_xyz
  1  'x, y, z'
loop_
 _atom_site_type_symbol
 _atom_site_label
 _atom_site_symmetry_multiplicity
 _atom_site_fract_x
 _atom_site_fract_y
 _atom_site_fract_z
 _atom_site_occupancy
 _atom_site_hle17_bader_spin_density
 _atom_site_hle17_ddec_charge
 _atom_site_hle17_ddec_spin_density
 _atom_site_hle17_ddec_sum_bond_order
 _atom_site_hle17_magmom
 _atom_site_hse06_10hf_bader_spin_density
 _atom_site_hse06_10hf_ddec_charge
 _atom_site_hse06_10hf_ddec_spin_density
 _atom_site_hse06_10hf_ddec_sum_bond_order
 _atom_site_hse06_10hf_magmom
 _atom_site_hse06_bader_spin_density
 _atom_site_hse06_ddec_charge
 _atom_site_hse06_ddec_spin_density
 _atom_site_hse06_ddec_sum_bond_order
 _atom_site_hse06_magmom
 _atom_site_pbe_bader_spin_density
 _atom_site_pbe_cm5_charge
 _atom_site_pbe_ddec_charge
 _atom_site_pbe_ddec_spin_density
 _atom_site_pbe_ddec_sum_bond_order
 _atom_site_pbe_magmom
Cu  Cu0  1  0.38223445  0.17291672  0.38580220  1  0  0.407293  0  2.422002  0  0  0.345182  0  2.882249  0  0  0.322639  0  2.861054  0  0  0.514088  0.363035  0  2.89293  0
Cu  Cu1  1  0.61777965  0.82708162  0.61420181  1  0  0.407286  0  2.421989  0  0  0.34517  0  2.882243  0  0  0.322628  0  2.861041  0  0  0.514133  0.363017  0  2.892992  0
Cu  Cu2  1  0.53758410  0.95284723  0.23112142  1  0  0.430201  0  2.249526  0  0  0.344003  0  2.739437  0  0  0.331669  0  2.698726  0  0  0.537075  0.35525  0  2.763867  0
Cu  Cu3  1  0.46242097  0.04715527  0.76887710  1  0  0.430176  0  2.24963  0  0  0.343966  0  2.73954  0  0  0.33161  0  2.698849  0  0  0.537098  0.355222  0  2.763967  0
Cu  Cu4  1  0.68339548  0.68854107  0.98730749  1  0  0.401346  0  2.226795  0  0  0.315432  0  2.705113  0  0  0.305449  0  2.666026  0  0  0.523251  0.325909  0  2.728049  0
Cu  Cu5  1  0.31659092  0.31145904  0.01270072  1  0  0.401465  0  2.226811  0  0  0.315554  0  2.705118  0  0  0.305564  0  2.666019  0  0  0.523299  0.326015  0  2.728081  0
H  H6  1  0.28116416  0.28069691  0.61007228  1  0  0.124729  0  0.961501  0  0  0.126766  0  1.033004  0  0  0.132113  0  1.028968  0  0  0.108229  0.122689  0  1.036261  0
H  H7  1  0.71883351  0.71929511  0.38993079  1  0  0.124651  0  0.961588  0  0  0.126742  0  1.033034  0  0  0.132061  0  1.02907  0  0  0.108226  0.122667  0  1.036292  0
H  H8  1  0.73149599  0.28217614  0.44627152  1  0  0.101622  0  1.011608  0  0  0.099173  0  1.096437  0  0  0.105665  0  1.091318  0  0  0.097289  0.094325  0  1.100284  0
H  H9  1  0.26851451  0.71783416  0.55373199  1  0  0.101586  0  1.011373  0  0  0.09915  0  1.096203  0  0  0.105637  0  1.091109  0  0  0.097284  0.094306  0  1.100044  0
H  H10  1  0.31969282  0.54911812  0.82363345  1  0  0.106465  0  0.954799  0  0  0.112116  0  1.022536  0  0  0.115679  0  1.018761  0  0  0.126321  0.109318  0  1.025325  0
H  H11  1  0.68031550  0.45089356  0.17636735  1  0  0.106501  0  0.955039  0  0  0.112117  0  1.022794  0  0  0.115692  0  1.018982  0  0  0.126328  0.109317  0  1.025595  0
H  H12  1  0.78595472  0.54017199  0.66585485  1  0  0.120249  0  0.956585  0  0  0.125069  0  1.022246  0  0  0.128973  0  1.019733  0  0  0.123297  0.121942  0  1.024443  0
H  H13  1  0.21403553  0.45982153  0.33414112  1  0  0.120192  0  0.956704  0  0  0.125052  0  1.022309  0  0  0.128962  0  1.01979  0  0  0.1233  0.121933  0  1.02449  0
H  H14  1  0.09692792  0.68031930  0.97898479  1  0  0.124363  0  0.945376  0  0  0.138413  0  1.017664  0  0  0.139689  0  1.01673  0  0  0.112621  0.137208  0  1.018585  0
H  H15  1  0.90307437  0.31968330  0.02100478  1  0  0.124365  0  0.9453  0  0  0.138438  0  1.017564  0  0  0.139725  0  1.016594  0  0  0.112651  0.137231  0  1.018482  0
H  H16  1  0.97376009  0.76242372  0.87240694  1  0  0.11865  0  0.933919  0  0  0.134368  0  1.002544  0  0  0.137837  0  0.998613  0  0  0.110096  0.131503  0  1.005874  0
H  H17  1  0.02624495  0.23757878  0.12759061  1  0  0.118661  0  0.93366  0  0  0.134361  0  1.002349  0  0  0.137826  0  0.998403  0  0  0.110091  0.131491  0  1.005677  0
H  H18  1  0.21719366  0.80939292  0.90245529  1  0  0.130311  0  0.937759  0  0  0.148549  0  1.000533  0  0  0.148446  0  1.002814  0  0  0.112458  0.148451  0  0.998991  0
H  H19  1  0.78279535  0.19060859  0.09753535  1  0  0.1303  0  0.937792  0  0  0.148518  0  1.000587  0  0  0.148406  0  1.00288  0  0  0.112474  0.14842  0  0.999041  0
C  C20  1  0.47225965  0.41821414  0.47161932  1  0  -0.471747  0  3.797723  0  0  -0.44103  0  4.143718  0  0  -0.457677  0  4.185879  0  0  -0.328931  -0.42822  0  4.109689  0
C  C21  1  0.52774537  0.58178039  0.52838440  1  0  -0.471575  0  3.797622  0  0  -0.440838  0  4.143579  0  0  -0.457482  0  4.185741  0  0  -0.328766  -0.428031  0  4.10958  0
C  C22  1  0.97339084  0.09761118  0.37681657  1  0  0.252823  0  3.742016  0  0  0.235068  0  4.003407  0  0  0.241098  0  4.020627  0  0  0.213405  0.23121  0  3.99226  0
C  C23  1  0.02661158  0.90239791  0.62319047  1  0  0.252943  0  3.741828  0  0  0.235206  0  4.003202  0  0  0.241236  0  4.020423  0  0  0.213465  0.231351  0  3.99206  0
C  C24  1  0.99981258  0.25176810  0.50789074  1  0  0.064712  0  3.744794  0  0  0.07158  0  3.98582  0  0  0.078422  0  4.003477  0  0  0.019617  0.066452  0  3.974705  0
C  C25  1  0.00019347  0.74823301  0.49211420  1  0  0.064435  0  3.744503  0  0  0.071231  0  3.985709  0  0  0.078078  0  4.003365  0  0  0.01953  0.066103  0  3.974598  0
C  C26  1  0.44291851  0.10268129  0.17086771  1  0  -0.129175  0  3.628389  0  0  -0.134823  0  4.026105  0  0  -0.110199  0  4.005935  0  0  -0.079697  -0.152929  0  4.039255  0
C  C27  1  0.55708721  0.89732246  0.82913898  1  0  -0.129039  0  3.62844  0  0  -0.134687  0  4.026149  0  0  -0.110061  0  4.005974  0  0  -0.079624  -0.152793  0  4.039319  0
C  C28  1  0.16708407  0.33139681  0.61731520  1  0  -0.09778  0  3.665855  0  0  -0.121105  0  3.918969  0  0  -0.125907  0  3.934559  0  0  -0.065489  -0.118776  0  3.909933  0
C  C29  1  0.83290428  0.66860199  0.38268607  1  0  -0.097453  0  3.665122  0  0  -0.120864  0  3.918331  0  0  -0.125668  0  3.933899  0  0  -0.065476  -0.118537  0  3.909301  0
C  C30  1  0.86283412  0.33023954  0.52719074  1  0  -0.11951  0  3.69098  0  0  -0.140172  0  3.941749  0  0  -0.149927  0  3.96182  0  0  -0.075282  -0.134144  0  3.929668  0
C  C31  1  0.13715551  0.66974220  0.47278989  1  0  -0.119352  0  3.691218  0  0  -0.140063  0  3.942177  0  0  -0.149827  0  3.962254  0  0  -0.075263  -0.134034  0  3.930096  0
C  C32  1  0.62950737  0.44866077  0.89483914  1  0  -0.118041  0  3.522462  0  0  -0.115613  0  3.89475  0  0  -0.098591  0  3.886594  0  0  -0.056243  -0.127722  0  3.899335  0
C  C33  1  0.37048192  0.55134066  0.10516306  1  0  -0.118054  0  3.522538  0  0  -0.115644  0  3.894829  0  0  -0.098614  0  3.886666  0  0  -0.056236  -0.127752  0  3.899408  0
C  C34  1  0.19141341  0.48126120  0.73794155  1  0  0.106763  0  3.556807  0  0  0.069256  0  3.797887  0  0  0.077546  0  3.811511  0  0  0.072744  0.063682  0  3.789306  0
C  C35  1  0.80857659  0.51872840  0.26204738  1  0  0.10667  0  3.556605  0  0  0.069253  0  3.797629  0  0  0.077561  0  3.811236  0  0  0.072797  0.063672  0  3.789047  0
C  C36  1  0.89223378  0.47838080  0.65096482  1  0  0.089731  0  3.568148  0  0  0.055225  0  3.802982  0  0  0.063553  0  3.819245  0  0  0.062902  0.049338  0  3.793176  0
C  C37  1  0.10775979  0.52162188  0.34903633  1  0  0.089717  0  3.569097  0  0  0.055189  0  3.8039  0  0  0.06352  0  3.820164  0  0  0.062881  0.049292  0  3.794111  0
C  C38  1  0.08774852  0.71160610  0.88541811  1  0  -0.194406  0  3.567098  0  0  -0.300819  0  3.816805  0  0  -0.298323  0  3.824042  0  0  -0.128121  -0.302077  0  3.812414  0
C  C39  1  0.91225080  0.28841625  0.11459083  1  0  -0.194498  0  3.567245  0  0  -0.300911  0  3.81705  0  0  -0.298453  0  3.824405  0  0  -0.128205  -0.302156  0  3.812636  0
N  N40  1  0.11115165  0.04289500  0.33269295  1  0  -0.266198  0  3.245924  0  0  -0.221799  0  3.56116  0  0  -0.229467  0  3.571021  0  0  -0.249644  -0.217506  0  3.555037  0
N  N41  1  0.88884473  0.95709705  0.66730998  1  0  -0.266241  0  3.246111  0  0  -0.221864  0  3.561411  0  0  -0.229527  0  3.571258  0  0  -0.249716  -0.217583  0  3.555315  0
N  N42  1  0.48722200  0.02838349  0.45868765  1  0  -0.057183  0  3.099108  0  0  -0.035321  0  3.450955  0  0  -0.005515  0  3.415873  0  0  -0.17817  -0.055381  0  3.473753  0
N  N43  1  0.51277763  0.97161774  0.54131757  1  0  -0.056945  0  3.099111  0  0  -0.035073  0  3.450932  0  0  -0.005253  0  3.415842  0  0  -0.177959  -0.055146  0  3.47376  0
N  N44  1  0.03371168  0.89884370  0.20847677  1  0  -0.063382  0  2.912208  0  0  -0.054418  0  3.198469  0  0  -0.054349  0  3.208681  0  0  -0.087345  -0.054465  0  3.192727  0
N  N45  1  0.96629702  0.10114682  0.79152322  1  0  -0.063317  0  2.912075  0  0  -0.054328  0  3.198285  0  0  -0.054255  0  3.208487  0  0  -0.087312  -0.054369  0  3.192542  0
N  N46  1  0.85504567  0.86649002  0.17714883  1  0  -0.061147  0  3.289968  0  0  -0.020362  0  3.615355  0  0  -0.017716  0  3.616331  0  0  -0.146102  -0.023093  0  3.615573  0
N  N47  1  0.14496797  0.13351100  0.82285115  1  0  -0.061182  0  3.289606  0  0  -0.020409  0  3.614974  0  0  -0.01776  0  3.615942  0  0  -0.146113  -0.023138  0  3.615191  0
N  N48  1  0.81141758  0.98804337  0.27928080  1  0  -0.27107  0  3.180217  0  0  -0.223643  0  3.484202  0  0  -0.23181  0  3.491098  0  0  -0.254052  -0.218996  0  3.480049  0
N  N49  1  0.18860077  0.01196022  0.72071665  1  0  -0.271209  0  3.180053  0  0  -0.223731  0  3.484001  0  0  -0.231895  0  3.490898  0  0  -0.25412  -0.219084  0  3.479848  0
N  N50  1  0.42544169  0.70560560  0.16480680  1  0  -0.392225  0  3.300421  0  0  -0.333108  0  3.627826  0  0  -0.347955  0  3.632441  0  0  -0.440598  -0.323667  0  3.624265  0
N  N51  1  0.57454968  0.29439447  0.83519424  1  0  -0.392231  0  3.300462  0  0  -0.333098  0  3.6278  0  0  -0.347944  0  3.632418  0  0  -0.44059  -0.32366  0  3.624238  0
N  N52  1  0.39578815  0.17152784  0.09847118  1  0  -0.373853  0  3.286367  0  0  -0.317519  0  3.626993  0  0  -0.328767  0  3.62162  0  0  -0.436575  -0.310375  0  3.62968  0
N  N53  1  0.60419549  0.82847237  0.90152904  1  0  -0.373899  0  3.286583  0  0  -0.317574  0  3.627214  0  0  -0.328818  0  3.621832  0  0  -0.4366  -0.310428  0  3.629909  0
N  N54  1  0.05536199  0.55247205  0.75402811  1  0  0.036225  0  3.544146  0  0  0.139305  0  3.745423  0  0  0.127209  0  3.770608  0  0  -0.207366  0.146828  0  3.728748  0
N  N55  1  0.94464165  0.44752652  0.24596806  1  0  0.036279  0  3.544824  0  0  0.139364  0  3.746051  0  0  0.127266  0  3.771227  0  0  -0.207353  0.146884  0  3.729374  0
