# generated using pymatgen
data_RbH8C13SN2(OF)3
_symmetry_space_group_name_H-M   'P 1'
_cell_length_a   10.38113405
_cell_length_b   13.39198633
_cell_length_c   13.38980000
_cell_angle_alpha   116.01643590
_cell_angle_beta   102.04430800
_cell_angle_gamma   102.05341953
_symmetry_Int_Tables_number   1
_chemical_formula_structural   RbH8C13SN2(OF)3
_chemical_formula_sum   'Rb4 H32 C52 S4 N8 O12 F12'
_cell_volume   1537.54864318
_cell_formula_units_Z   4
loop_
 _symmetry_equiv_pos_site_id
 _symmetry_equiv_pos_as_xyz
  1  'x, y, z'
loop_
 _atom_site_type_symbol
 _atom_site_label
 _atom_site_symmetry_multiplicity
 _atom_site_fract_x
 _atom_site_fract_y
 _atom_site_fract_z
 _atom_site_occupancy
 _atom_site_hle17_bader_spin_density
 _atom_site_hle17_ddec_charge
 _atom_site_hle17_ddec_spin_density
 _atom_site_hle17_ddec_sum_bond_order
 _atom_site_hle17_magmom
 _atom_site_hse06_10hf_bader_spin_density
 _atom_site_hse06_10hf_ddec_charge
 _atom_site_hse06_10hf_ddec_spin_density
 _atom_site_hse06_10hf_ddec_sum_bond_order
 _atom_site_hse06_10hf_magmom
 _atom_site_hse06_bader_spin_density
 _atom_site_hse06_ddec_charge
 _atom_site_hse06_ddec_spin_density
 _atom_site_hse06_ddec_sum_bond_order
 _atom_site_hse06_magmom
 _atom_site_pbe_bader_charge
 _atom_site_pbe_bader_spin_density
 _atom_site_pbe_cm5_charge
 _atom_site_pbe_ddec_charge
 _atom_site_pbe_ddec_spin_density
 _atom_site_pbe_ddec_sum_bond_order
 _atom_site_pbe_magmom
Rb  Rb0  1  0.47081121  0.98313871  0.13043617  1  0  0.921017  0  0.522278  0  0  0.857725  0  0.746038  0  0  0.872681  0  0.725302  0  0.890266  0  0.833931  0.846669  0  0.76086  0
Rb  Rb1  1  0.02918941  0.86956425  0.01686277  1  0  0.921027  0  0.522271  0  0  0.857774  0  0.745966  0  0  0.872736  0  0.725235  0  0.890246  0  0.83394  0.846723  0  0.760789  0
Rb  Rb2  1  0.52918860  0.01686062  0.86956305  1  0  0.921022  0  0.522276  0  0  0.857726  0  0.74604  0  0  0.87268  0  0.725307  0  0.890281  0  0.83394  0.84667  0  0.760863  0
Rb  Rb3  1  0.97081174  0.13043596  0.98313706  1  0  0.921019  0  0.522276  0  0  0.85778  0  0.745962  0  0  0.872738  0  0.725234  0  0.890251  0  0.833946  0.846727  0  0.760786  0
H  H4  1  0.15670532  0.01281301  0.54674094  1  0  0.098008  0  0.929455  0  0  0.11433  0  0.982743  0  0  0.116642  0  0.981772  0  0.078897  0  0.108439  0.11263  0  0.983534  0
H  H5  1  0.34328898  0.45327046  0.98718638  1  0  0.098058  0  0.929293  0  0  0.114368  0  0.982599  0  0  0.116677  0  0.981635  0  0.079176  0  0.108462  0.112666  0  0.98339  0
H  H6  1  0.84329485  0.98718720  0.45325948  1  0  0.098017  0  0.929443  0  0  0.114351  0  0.982719  0  0  0.116651  0  0.981763  0  0.078898  0  0.108441  0.112651  0  0.98351  0
H  H7  1  0.65671181  0.54672887  0.01281375  1  0  0.098066  0  0.929314  0  0  0.114375  0  0.982616  0  0  0.116686  0  0.981652  0  0.079191  0  0.10846  0.112674  0  0.983408  0
H  H8  1  0.12172094  0.12596043  0.43927908  1  0  0.096107  0  0.964817  0  0  0.10546  0  1.027378  0  0  0.108513  0  1.025972  0  0.073836  0  0.098082  0.103268  0  1.028502  0
H  H9  1  0.37828546  0.56072310  0.87403225  1  0  0.096215  0  0.964982  0  0  0.105558  0  1.027523  0  0  0.108606  0  1.026122  0  0.07384  0  0.09811  0.103369  0  1.028643  0
H  H10  1  0.87827923  0.87403979  0.56072134  1  0  0.096086  0  0.964826  0  0  0.105425  0  1.027403  0  0  0.108476  0  1.025999  0  0.073834  0  0.098072  0.103235  0  1.028525  0
H  H11  1  0.62171569  0.43927711  0.12596833  1  0  0.096197  0  0.965009  0  0  0.105548  0  1.027544  0  0  0.108598  0  1.026139  0  0.073841  0  0.098103  0.103359  0  1.028666  0
H  H12  1  0.23507358  0.10495671  0.28837223  1  0  0.077569  0  0.953414  0  0  0.08651  0  1.017628  0  0  0.08922  0  1.01497  0  0.08847  0  0.113171  0.084499  0  1.019661  0
H  H13  1  0.26493492  0.71162523  0.89503816  1  0  0.077531  0  0.953487  0  0  0.086497  0  1.017651  0  0  0.089206  0  1.014996  0  0.088554  0  0.113203  0.084487  0  1.019678  0
H  H14  1  0.76492659  0.89504351  0.71162819  1  0  0.077566  0  0.953409  0  0  0.086508  0  1.017627  0  0  0.089218  0  1.014967  0  0.088462  0  0.113174  0.084498  0  1.019657  0
H  H15  1  0.73506525  0.28837499  0.10496226  1  0  0.077511  0  0.95349  0  0  0.086474  0  1.017657  0  0  0.089184  0  1.015002  0  0.088556  0  0.113194  0.084464  0  1.019685  0
H  H16  1  0.25823039  0.87389302  0.57430416  1  0  0.099794  0  0.985478  0  0  0.109341  0  1.051839  0  0  0.112179  0  1.050265  0  0.122093  0  0.099662  0.107278  0  1.053064  0
H  H17  1  0.24176369  0.42570639  0.12610783  1  0  0.099843  0  0.985211  0  0  0.109361  0  1.051657  0  0  0.112192  0  1.050104  0  0.122292  0  0.099661  0.107304  0  1.052864  0
H  H18  1  0.74176978  0.12610720  0.42569626  1  0  0.099799  0  0.98547  0  0  0.109346  0  1.051831  0  0  0.112184  0  1.050257  0  0.122086  0  0.099669  0.107287  0  1.053059  0
H  H19  1  0.75823648  0.57429382  0.87389259  1  0  0.099833  0  0.985226  0  0  0.109351  0  1.051673  0  0  0.112182  0  1.05012  0  0.122355  0  0.099656  0.107295  0  1.052882  0
H  H20  1  0.52414700  0.64495813  0.38882731  1  0  0.096561  0  0.936187  0  0  0.107345  0  0.995015  0  0  0.11052  0  0.99232  0  0.077733  0  0.103355  0.10517  0  0.996884  0
H  H21  1  0.97584619  0.61117500  0.35504860  1  0  0.096436  0  0.936261  0  0  0.107296  0  0.99501  0  0  0.110473  0  0.992313  0  0.077658  0  0.103366  0.105123  0  0.996879  0
H  H22  1  0.47585317  0.35504208  0.61117236  1  0  0.096533  0  0.936198  0  0  0.107316  0  0.995022  0  0  0.110493  0  0.992326  0  0.077728  0  0.103343  0.105142  0  0.996891  0
H  H23  1  0.02415362  0.38882433  0.64495063  1  0  0.096419  0  0.936296  0  0  0.107278  0  0.995047  0  0  0.110456  0  0.992348  0  0.077655  0  0.103346  0.105106  0  0.996915  0
H  H24  1  0.63223057  0.63512557  0.23493810  1  0  0.093899  0  0.972046  0  0  0.105338  0  1.032094  0  0  0.107756  0  1.032323  0  0.060313  0  0.101146  0.103454  0  1.032523  0
H  H25  1  0.86776514  0.76506022  0.36488242  1  0  0.094004  0  0.971817  0  0  0.105358  0  1.031968  0  0  0.107804  0  1.032163  0  0.059801  0  0.10114  0.103475  0  1.032397  0
H  H26  1  0.36776862  0.36487464  0.76506141  1  0  0.0939  0  0.972054  0  0  0.105324  0  1.032117  0  0  0.107768  0  1.032315  0  0.06032  0  0.101141  0.103441  0  1.032543  0
H  H27  1  0.13223539  0.23494087  0.63511845  1  0  0.094016  0  0.971821  0  0  0.105373  0  1.031967  0  0  0.107819  0  1.032163  0  0.059805  0  0.101148  0.10349  0  1.032396  0
H  H28  1  0.60732344  0.76822281  0.15227847  1  0  0.073009  0  0.931071  0  0  0.083564  0  0.993114  0  0  0.086037  0  0.991007  0  0.08837  0  0.11523  0.08174  0  0.994774  0
H  H29  1  0.89268598  0.84770910  0.23177831  1  0  0.072911  0  0.93097  0  0  0.083407  0  0.993089  0  0  0.085882  0  0.990982  0  0.088811  0  0.115169  0.081586  0  0.994741  0
H  H30  1  0.39267673  0.23177741  0.84772045  1  0  0.072924  0  0.931101  0  0  0.083446  0  0.99319  0  0  0.085918  0  0.991084  0  0.088385  0  0.115191  0.081624  0  0.994847  0
H  H31  1  0.10731517  0.15229111  0.76822152  1  0  0.072901  0  0.930977  0  0  0.083396  0  0.993101  0  0  0.085872  0  0.990988  0  0.088812  0  0.115169  0.081575  0  0.994755  0
H  H32  1  0.38949058  0.73463241  0.51376440  1  0  0.097124  0  0.954603  0  0  0.10832  0  1.014875  0  0  0.110923  0  1.013627  0  0.071486  0  0.099481  0.106466  0  1.015853  0
H  H33  1  0.11050271  0.48623841  0.26537450  1  0  0.097133  0  0.954602  0  0  0.108323  0  1.014845  0  0  0.110927  0  1.013596  0  0.07174  0  0.099467  0.106468  0  1.015826  0
H  H34  1  0.61050959  0.26536780  0.48623452  1  0  0.097112  0  0.954558  0  0  0.108307  0  1.014829  0  0  0.11091  0  1.013581  0  0.071481  0  0.09947  0.106453  0  1.015807  0
H  H35  1  0.88949710  0.51376092  0.73462472  1  0  0.09714  0  0.954595  0  0  0.108329  0  1.014841  0  0  0.110932  0  1.013594  0  0.071744  0  0.099472  0.106474  0  1.015822  0
C  C36  1  0.57989337  0.67080431  0.74081328  1  0  0.589255  0  3.671942  0  0  0.524902  0  4.033501  0  0  0.553441  0  4.004902  0  1.634751  0  0.288596  0.50445  0  4.05411  0
C  C37  1  0.92010570  0.25918675  0.32919501  1  0  0.589225  0  3.671933  0  0  0.52508  0  4.033198  0  0  0.553626  0  4.004591  0  1.634829  0  0.288733  0.504628  0  4.053804  0
C  C38  1  0.42010715  0.32919679  0.25918758  1  0  0.589306  0  3.671805  0  0  0.524927  0  4.03341  0  0  0.553432  0  4.004873  0  1.634757  0  0.288644  0.504476  0  4.054018  0
C  C39  1  0.07989446  0.74081346  0.67080466  1  0  0.589225  0  3.672052  0  0  0.525056  0  4.033367  0  0  0.553595  0  4.004775  0  1.634826  0  0.288716  0.504605  0  4.053972  0
C  C40  1  0.34366428  0.92483031  0.36124192  1  0  0.140961  0  3.717795  0  0  0.137049  0  3.962554  0  0  0.14116  0  3.982366  0  0.483715  0  0.120302  0.13388  0  3.94963  0
C  C41  1  0.15633811  0.63875321  0.07517064  1  0  0.141046  0  3.717791  0  0  0.137215  0  3.962319  0  0  0.14132  0  3.982134  0  0.483989  0  0.12029  0.134046  0  3.949395  0
C  C42  1  0.65633589  0.07516990  0.63875850  1  0  0.140943  0  3.717879  0  0  0.137057  0  3.962557  0  0  0.141169  0  3.982368  0  0.483557  0  0.120293  0.133889  0  3.949632  0
C  C43  1  0.84366169  0.36124612  0.92482858  1  0  0.141055  0  3.717792  0  0  0.137222  0  3.962345  0  0  0.141328  0  3.982159  0  0.483736  0  0.120295  0.134053  0  3.94942  0
C  C44  1  0.28410420  0.93212450  0.45005260  1  0  0.025083  0  3.77116  0  0  0.041747  0  4.001271  0  0  0.039614  0  4.02586  0  0.015619  0  -0.004164  0.043013  0  3.985021  0
C  C45  1  0.21589096  0.54995246  0.06787542  1  0  0.024889  0  3.771646  0  0  0.041635  0  4.001557  0  0  0.039504  0  4.026147  0  0.015861  0  -0.0042  0.042902  0  3.985304  0
C  C46  1  0.71589561  0.06787483  0.54994812  1  0  0.024938  0  3.771348  0  0  0.041658  0  4.001351  0  0  0.039527  0  4.025936  0  0.015593  0  -0.0042  0.042926  0  3.9851  0
C  C47  1  0.78410787  0.45004687  0.93212365  1  0  0.024887  0  3.771626  0  0  0.041622  0  4.001555  0  0  0.039491  0  4.026146  0  0.015809  0  -0.004229  0.042889  0  3.985302  0
C  C48  1  0.20349590  0.00679199  0.47931425  1  0  -0.050995  0  3.701729  0  0  -0.075288  0  3.949208  0  0  -0.074094  0  3.969285  0  -0.056293  0  -0.06616  -0.075714  0  3.935554  0
C  C49  1  0.29650282  0.52068819  0.99320370  1  0  -0.050986  0  3.701748  0  0  -0.075298  0  3.949199  0  0  -0.074092  0  3.969252  0  -0.056782  0  -0.066173  -0.075726  0  3.935551  0
C  C50  1  0.79650391  0.99320734  0.52068497  1  0  -0.050935  0  3.701694  0  0  -0.075254  0  3.949141  0  0  -0.074049  0  3.969217  0  -0.056269  0  -0.066121  -0.075681  0  3.935487  0
C  C51  1  0.70349699  0.47931114  0.00679553  1  0  -0.051016  0  3.701779  0  0  -0.075323  0  3.949242  0  0  -0.07412  0  3.969297  0  -0.056787  0  -0.066151  -0.075753  0  3.935599  0
C  C52  1  0.18500136  0.06903660  0.42144997  1  0  -0.123991  0  3.762054  0  0  -0.137062  0  4.016872  0  0  -0.143559  0  4.039239  0  -0.08729  0  -0.088992  -0.13277  0  4.001531  0
C  C53  1  0.31500012  0.57855717  0.93095915  1  0  -0.124235  0  3.762164  0  0  -0.13733  0  4.017055  0  0  -0.143827  0  4.039427  0  -0.087231  0  -0.089082  -0.133038  0  4.001712  0
C  C54  1  0.81499979  0.93096361  0.57855061  1  0  -0.123968  0  3.762022  0  0  -0.137033  0  4.016857  0  0  -0.143529  0  4.039219  0  -0.087294  0  -0.088993  -0.132742  0  4.001517  0
C  C55  1  0.68500005  0.42144305  0.06904127  1  0  -0.124177  0  3.76216  0  0  -0.137283  0  4.017041  0  0  -0.143779  0  4.039412  0  -0.087246  0  -0.089071  -0.132991  0  4.001696  0
C  C56  1  0.24883567  0.05693179  0.33572378  1  0  0.12021  0  3.744186  0  0  0.095407  0  4.004409  0  0  0.101307  0  4.021407  0  0.577195  0  0.044092  0.091555  0  3.992641  0
C  C57  1  0.25117565  0.66427048  0.94306034  1  0  0.120307  0  3.743954  0  0  0.095503  0  4.004196  0  0  0.1014  0  4.021193  0  0.576895  0  0.044109  0.091651  0  3.992433  0
C  C58  1  0.75116450  0.94306843  0.66427664  1  0  0.120203  0  3.74421  0  0  0.0954  0  4.004428  0  0  0.101303  0  4.021425  0  0.577161  0  0.044089  0.091548  0  3.992662  0
C  C59  1  0.74882451  0.33572973  0.05693933  1  0  0.120304  0  3.743996  0  0  0.095508  0  4.00423  0  0  0.101407  0  4.021226  0  0.576907  0  0.044123  0.091657  0  3.992467  0
C  C60  1  0.30338387  0.86357064  0.50538133  1  0  -0.100024  0  3.749754  0  0  -0.124558  0  4.007526  0  0  -0.127703  0  4.03069  0  -0.044104  0  -0.087379  -0.122298  0  3.992044  0
C  C61  1  0.19661418  0.49462098  0.13642902  1  0  -0.099892  0  3.750004  0  0  -0.124453  0  4.007686  0  0  -0.127601  0  4.030845  0  -0.044057  0  -0.087274  -0.122191  0  3.992205  0
C  C62  1  0.69661692  0.13642869  0.49461880  1  0  -0.099981  0  3.749759  0  0  -0.124536  0  4.007509  0  0  -0.127681  0  4.030671  0  -0.044082  0  -0.087391  -0.122283  0  3.992033  0
C  C63  1  0.80338598  0.50537924  0.86357065  1  0  -0.099885  0  3.74998  0  0  -0.124446  0  4.007669  0  0  -0.127594  0  4.030828  0  -0.044068  0  -0.087264  -0.122186  0  3.992192  0
C  C64  1  0.42528236  0.84691249  0.32911104  1  0  0.134404  0  3.725473  0  0  0.131395  0  3.968566  0  0  0.135583  0  3.988577  0  0.511386  0  0.119767  0.129204  0  3.954934  0
C  C65  1  0.07471603  0.67088742  0.15308811  1  0  0.134233  0  3.725695  0  0  0.131281  0  3.968654  0  0  0.135471  0  3.988663  0  0.51165  0  0.119692  0.129091  0  3.955023  0
C  C66  1  0.57471682  0.15308773  0.67088922  1  0  0.134471  0  3.725423  0  0  0.131456  0  3.968502  0  0  0.135644  0  3.988511  0  0.511395  0  0.119815  0.129265  0  3.95487  0
C  C67  1  0.92528315  0.32911280  0.84691140  1  0  0.1342  0  3.725744  0  0  0.13122  0  3.968722  0  0  0.135409  0  3.988731  0  0.511642  0  0.11965  0.12903  0  3.95509  0
C  C68  1  0.43849785  0.77787058  0.38450900  1  0  0.026708  0  3.793121  0  0  0.043578  0  4.022865  0  0  0.041158  0  4.04843  0  0.031694  0  -0.004029  0.045174  0  4.005783  0
C  C69  1  0.06149950  0.61548962  0.22213151  1  0  0.02694  0  3.792806  0  0  0.0437  0  4.02267  0  0  0.041279  0  4.048236  0  0.031354  0  -0.003973  0.045294  0  4.005588  0
C  C70  1  0.56150232  0.22212963  0.61549068  1  0  0.02669  0  3.793087  0  0  0.043544  0  4.022851  0  0  0.041126  0  4.048414  0  0.031869  0  -0.00406  0.045141  0  4.005768  0
C  C71  1  0.93850067  0.38451059  0.77786816  1  0  0.0269  0  3.792877  0  0  0.043705  0  4.022686  0  0  0.041286  0  4.048251  0  0.031337  0  -0.003979  0.045301  0  4.005605  0
C  C72  1  0.51412678  0.69996602  0.34905276  1  0  -0.056071  0  3.720763  0  0  -0.080715  0  3.971385  0  0  -0.079588  0  3.991258  0  -0.046908  0  -0.07208  -0.081674  0  3.958079  0
C  C73  1  0.98586483  0.65095174  0.30004147  1  0  -0.055891  0  3.720521  0  0  -0.080565  0  3.971139  0  0  -0.079437  0  3.991023  0  -0.046997  0  -0.072059  -0.081525  0  3.957833  0
C  C74  1  0.48587240  0.30003419  0.65094750  1  0  -0.056033  0  3.720692  0  0  -0.080664  0  3.971297  0  0  -0.079539  0  3.991178  0  -0.0469  0  -0.072068  -0.081622  0  3.957991  0
C  C75  1  0.01413533  0.34904847  0.69995894  1  0  -0.055863  0  3.72056  0  0  -0.080547  0  3.971156  0  0  -0.079421  0  3.99104  0  -0.046997  0  -0.07204  -0.081509  0  3.957851  0
C  C76  1  0.57374237  0.69453031  0.26467360  1  0  -0.13329  0  3.778323  0  0  -0.146855  0  4.032255  0  0  -0.153508  0  4.055139  0  -0.053032  0  -0.09306  -0.142658  0  4.017938  0
C  C77  1  0.92625756  0.73531939  0.30547421  1  0  -0.133529  0  3.777955  0  0  -0.147033  0  4.031925  0  0  -0.15371  0  4.054794  0  -0.053121  0  -0.093174  -0.142836  0  4.017611  0
C  C78  1  0.42625780  0.30546991  0.73532682  1  0  -0.133322  0  3.778302  0  0  -0.146873  0  4.032228  0  0  -0.153548  0  4.055101  0  -0.05305  0  -0.093044  -0.142677  0  4.017911  0
C  C79  1  0.07374126  0.26467993  0.69452486  1  0  -0.133577  0  3.77792  0  0  -0.147084  0  4.031905  0  0  -0.153763  0  4.054776  0  -0.053122  0  -0.093202  -0.142887  0  4.017591  0
C  C80  1  0.55891420  0.76883552  0.21769427  1  0  0.128648  0  3.747971  0  0  0.104374  0  4.006536  0  0  0.110421  0  4.024139  0  0.532625  0  0.048177  0.10112  0  3.994667  0
C  C81  1  0.94109429  0.78230191  0.23116467  1  0  0.128777  0  3.747664  0  0  0.104536  0  4.006185  0  0  0.110584  0  4.023794  0  0.53272  0  0.048319  0.101283  0  3.994315  0
C  C82  1  0.44108560  0.23116381  0.78230495  1  0  0.128821  0  3.747899  0  0  0.104569  0  4.006466  0  0  0.110617  0  4.024073  0  0.532626  0  0.048222  0.101315  0  3.994598  0
C  C83  1  0.05890587  0.21769830  0.76883575  1  0  0.128781  0  3.747675  0  0  0.104533  0  4.006209  0  0  0.110583  0  4.023818  0  0.532727  0  0.048313  0.10128  0  3.994339  0
C  C84  1  0.37651599  0.78819738  0.47280046  1  0  -0.097165  0  3.756758  0  0  -0.120906  0  4.014139  0  0  -0.124228  0  4.037611  0  -0.047764  0  -0.085213  -0.118785  0  3.998275  0
C  C85  1  0.12347446  0.52720698  0.21180937  1  0  -0.097295  0  3.756473  0  0  -0.120966  0  4.013877  0  0  -0.124287  0  4.037345  0  -0.048101  0  -0.085195  -0.118843  0  3.998015  0
C  C86  1  0.62348283  0.21180195  0.52719861  1  0  -0.097154  0  3.75672  0  0  -0.120886  0  4.014106  0  0  -0.124211  0  4.037582  0  -0.047854  0  -0.085191  -0.118765  0  3.998243  0
C  C87  1  0.87652535  0.47279235  0.78819060  1  0  -0.097292  0  3.756525  0  0  -0.120974  0  4.013914  0  0  -0.124294  0  4.037379  0  -0.048164  0  -0.085196  -0.118853  0  3.998053  0
S  S88  1  0.65278414  0.79593718  0.89729967  1  0  1.118622  0  5.892501  0  0  1.023444  0  6.424432  0  0  1.067097  0  6.403992  0  3.2851  0  0.459831  0.993405  0  6.437752  0
S  S89  1  0.84721779  0.10270303  0.20406217  1  0  1.118774  0  5.892416  0  0  1.023555  0  6.424322  0  0  1.067204  0  6.403886  0  3.284595  0  0.45993  0.993519  0  6.43764  0
S  S90  1  0.34721603  0.20406304  0.10270075  1  0  1.118728  0  5.892526  0  0  1.023558  0  6.424458  0  0  1.067222  0  6.40402  0  3.285101  0  0.459847  0.993521  0  6.437777  0
S  S91  1  0.15278104  0.89729630  0.79593690  1  0  1.118801  0  5.892358  0  0  1.023587  0  6.424279  0  0  1.067237  0  6.40384  0  3.284574  0  0.459925  0.993549  0  6.437596  0
N  N92  1  0.48685069  0.84201787  0.24774003  1  0  -0.370689  0  3.131602  0  0  -0.333909  0  3.403244  0  0  -0.345786  0  3.420423  0  -1.221181  0  -0.396874  -0.325894  0  3.391029  0
N  N93  1  0.01316309  0.75224898  0.15797245  1  0  -0.370658  0  3.131138  0  0  -0.333978  0  3.402974  0  0  -0.345857  0  3.420151  0  -1.221202  0  -0.396919  -0.325965  0  3.39076  0
N  N94  1  0.51314813  0.15798146  0.75225979  1  0  -0.370753  0  3.131516  0  0  -0.333981  0  3.403171  0  0  -0.34586  0  3.420348  0  -1.221209  0  -0.39689  -0.325967  0  3.390957  0
N  N95  1  0.98683708  0.24775123  0.84202797  1  0  -0.370585  0  3.131183  0  0  -0.333896  0  3.403022  0  0  -0.345775  0  3.420201  0  -1.221195  0  -0.396871  -0.325882  0  3.390807  0
N  N96  1  0.32562550  0.98761159  0.30582426  1  0  -0.385298  0  3.137504  0  0  -0.351211  0  3.415257  0  0  -0.362671  0  3.431696  0  -1.211864  0  -0.382161  -0.3432  0  3.404091  0
N  N97  1  0.17437857  0.69416692  0.01238597  1  0  -0.385263  0  3.137224  0  0  -0.351213  0  3.414922  0  0  -0.362668  0  3.431357  0  -1.211893  0  -0.382067  -0.343206  0  3.403761  0
N  N98  1  0.67437332  0.01238774  0.69417556  1  0  -0.385294  0  3.137527  0  0  -0.351212  0  3.415252  0  0  -0.362674  0  3.431693  0  -1.211661  0  -0.38217  -0.343202  0  3.404087  0
N  N99  1  0.82562124  0.30583241  0.98761400  1  0  -0.385235  0  3.137249  0  0  -0.35119  0  3.41495  0  0  -0.362644  0  3.431384  0  -1.211628  0  -0.382065  -0.343182  0  3.403788  0
O  O100  1  0.52844918  0.82072680  0.92055777  1  0  -0.655847  0  2.037946  0  0  -0.619403  0  2.296806  0  0  -0.638904  0  2.285497  0  -1.334175  0  -0.421149  -0.60569  0  2.304189  0
O  O101  1  0.97155194  0.07944562  0.17926773  1  0  -0.65584  0  2.037951  0  0  -0.619393  0  2.296801  0  0  -0.638906  0  2.285523  0  -1.333847  0  -0.421182  -0.605681  0  2.304183  0
O  O102  1  0.47155098  0.17927341  0.07944190  1  0  -0.655872  0  2.037941  0  0  -0.619421  0  2.296777  0  0  -0.638921  0  2.285458  0  -1.334176  0  -0.421152  -0.605708  0  2.304158  0
O  O103  1  0.02844957  0.92055547  0.82073255  1  0  -0.655885  0  2.037997  0  0  -0.619435  0  2.296828  0  0  -0.638959  0  2.285581  0  -1.333845  0  -0.421212  -0.605722  0  2.304211  0
O  O104  1  0.72086725  0.74834018  0.96384601  1  0  -0.611265  0  1.989628  0  0  -0.580559  0  2.241216  0  0  -0.598409  0  2.228642  0  -1.328482  0  -0.363763  -0.567986  0  2.249386  0
O  O105  1  0.77912985  0.03615529  0.25166395  1  0  -0.611312  0  1.989737  0  0  -0.580619  0  2.241351  0  0  -0.598468  0  2.228778  0  -1.32839  0  -0.363843  -0.568049  0  2.249522  0
O  O106  1  0.27913391  0.25166003  0.03615457  1  0  -0.611341  0  1.989688  0  0  -0.580645  0  2.241294  0  0  -0.598495  0  2.228714  0  -1.328476  0  -0.363796  -0.568071  0  2.249464  0
O  O107  1  0.22086996  0.96384404  0.74833528  1  0  -0.611317  0  1.989688  0  0  -0.580605  0  2.241277  0  0  -0.598453  0  2.228704  0  -1.328392  0  -0.36383  -0.568032  0  2.249447  0
O  O108  1  0.74848220  0.88710655  0.88927202  1  0  -0.672114  0  2.045379  0  0  -0.636829  0  2.308301  0  0  -0.65625  0  2.296985  0  -1.338472  0  -0.410786  -0.623171  0  2.315834  0
O  O109  1  0.75152056  0.11072751  0.11288802  1  0  -0.672162  0  2.045268  0  0  -0.636951  0  2.308364  0  0  -0.656379  0  2.297055  0  -1.338742  0  -0.410882  -0.623273  0  2.315864  0
O  O110  1  0.25151796  0.11289367  0.11072840  1  0  -0.672114  0  2.045354  0  0  -0.636819  0  2.308251  0  0  -0.656238  0  2.296931  0  -1.338476  0  -0.410767  -0.623162  0  2.315786  0
O  O111  1  0.24847898  0.88927358  0.88711194  1  0  -0.672155  0  2.045227  0  0  -0.636931  0  2.308286  0  0  -0.656357  0  2.296975  0  -1.33873  0  -0.41088  -0.623259  0  2.315801  0
F  F112  1  0.48523975  0.57496754  0.72826076  1  0  -0.226422  0  1.175603  0  0  -0.189817  0  1.341772  0  0  -0.199134  0  1.324901  0  -0.621789  0  -0.093367  -0.183118  0  1.353653  0
F  F113  1  0.01476071  0.27174159  0.42503813  1  0  -0.226431  0  1.175517  0  0  -0.189882  0  1.341625  0  0  -0.199202  0  1.324752  0  -0.621803  0  -0.093387  -0.183182  0  1.353505  0
F  F114  1  0.51476078  0.42503356  0.27174010  1  0  -0.226429  0  1.175544  0  0  -0.189817  0  1.341723  0  0  -0.199126  0  1.324865  0  -0.621804  0  -0.09336  -0.183119  0  1.353603  0
F  F115  1  0.98524143  0.72825862  0.57496111  1  0  -0.226418  0  1.17559  0  0  -0.189862  0  1.341716  0  0  -0.199181  0  1.324848  0  -0.621817  0  -0.093344  -0.183163  0  1.353595  0
F  F116  1  0.68313561  0.63619273  0.70301900  1  0  -0.222525  0  1.163459  0  0  -0.186582  0  1.322897  0  0  -0.195385  0  1.306211  0  -0.613002  0  -0.092405  -0.180298  0  1.334726  0
F  F117  1  0.81686533  0.29697594  0.36381148  1  0  -0.222508  0  1.163538  0  0  -0.186612  0  1.322915  0  0  -0.195418  0  1.306229  0  -0.612899  0  -0.09245  -0.180329  0  1.334743  0
F  F118  1  0.31686455  0.36380748  0.29698141  1  0  -0.22255  0  1.16341  0  0  -0.186601  0  1.322858  0  0  -0.195399  0  1.306187  0  -0.613003  0  -0.092441  -0.180319  0  1.334686  0
F  F119  1  0.18313447  0.70302339  0.63618924  1  0  -0.222517  0  1.163572  0  0  -0.186618  0  1.322956  0  0  -0.195425  0  1.306271  0  -0.612887  0  -0.092463  -0.180336  0  1.334784  0
F  F120  1  0.51350875  0.70368738  0.66755870  1  0  -0.231321  0  1.183138  0  0  -0.196131  0  1.350367  0  0  -0.205025  0  1.332942  0  -0.61909  0  -0.091685  -0.189731  0  1.36265  0
F  F121  1  0.98649491  0.33243629  0.29630573  1  0  -0.231307  0  1.183107  0  0  -0.196175  0  1.350277  0  0  -0.205067  0  1.332852  0  -0.619063  0  -0.09173  -0.189777  0  1.362559  0
F  F122  1  0.48649240  0.29631283  0.33244113  1  0  -0.23134  0  1.183113  0  0  -0.196147  0  1.350353  0  0  -0.205031  0  1.332942  0  -0.619093  0  -0.091696  -0.189747  0  1.362636  0
F  F123  1  0.01350526  0.66756392  0.70369469  1  0  -0.231305  0  1.183104  0  0  -0.196168  0  1.350283  0  0  -0.205058  0  1.332861  0  -0.619062  0  -0.091728  -0.189769  0  1.362565  0
