# generated using pymatgen
data_Sm2H10C14N4O15
_symmetry_space_group_name_H-M   'P 1'
_cell_length_a   10.98768543
_cell_length_b   11.91251070
_cell_length_c   19.17392845
_cell_angle_alpha   89.99994590
_cell_angle_beta   89.99993825
_cell_angle_gamma   89.99996755
_symmetry_Int_Tables_number   1
_chemical_formula_structural   Sm2H10C14N4O15
_chemical_formula_sum   'Sm8 H40 C56 N16 O60'
_cell_volume   2509.69313960
_cell_formula_units_Z   4
loop_
 _symmetry_equiv_pos_site_id
 _symmetry_equiv_pos_as_xyz
  1  'x, y, z'
loop_
 _atom_site_type_symbol
 _atom_site_label
 _atom_site_symmetry_multiplicity
 _atom_site_fract_x
 _atom_site_fract_y
 _atom_site_fract_z
 _atom_site_occupancy
 _atom_site_pbe_bader_charge
 _atom_site_pbe_bader_spin_density
 _atom_site_pbe_cm5_charge
 _atom_site_pbe_ddec_charge
 _atom_site_pbe_ddec_spin_density
 _atom_site_pbe_ddec_sum_bond_order
 _atom_site_pbe_magmom
Sm  Sm0  1  0.36116447  0.66191197  0.59923892  1  2.201373  0  1.482827  1.994374  0  2.193665  0
Sm  Sm1  1  0.63883589  0.33808634  0.09923967  1  2.201295  0  1.482807  1.994394  0  2.193623  0
Sm  Sm2  1  0.86116464  0.83808835  0.09923841  1  2.201298  0  1.482839  1.994442  0  2.193596  0
Sm  Sm3  1  0.13883572  0.16191416  0.59923861  1  2.201316  0  1.482836  1.994399  0  2.193642  0
Sm  Sm4  1  0.88234506  0.47840543  0.81951031  1  2.22393  0  1.474849  2.016792  0  2.158269  0
Sm  Sm5  1  0.11765489  0.52159590  0.31950815  1  2.223954  0  1.474813  2.016773  0  2.15824  0
Sm  Sm6  1  0.38234500  0.02159460  0.31950821  1  2.22395  0  1.474864  2.016848  0  2.158221  0
Sm  Sm7  1  0.61765312  0.97840421  0.81950868  1  2.223939  0  1.474801  2.016765  0  2.158302  0
H  H8  1  0.14112536  0.50567956  0.70056934  1  0.16663  0  0.142572  0.086696  0  1.000465  0
H  H9  1  0.85886844  0.49431775  0.20056882  1  0.166665  0  0.142596  0.086734  0  1.000447  0
H  H10  1  0.64112725  0.99432072  0.20056926  1  0.166631  0  0.14256  0.086678  0  1.000495  0
H  H11  1  0.35886473  0.00567995  0.70056785  1  0.166879  0  0.142582  0.086701  0  1.000443  0
H  H12  1  0.28936925  0.75579710  0.88238277  1  0.158898  0  0.13331  0.161667  0  0.965882  0
H  H13  1  0.71063422  0.24419238  0.38238196  1  0.15959  0  0.133305  0.161701  0  0.965768  0
H  H14  1  0.78937039  0.74420198  0.38238232  1  0.15889  0  0.133308  0.161669  0  0.96588  0
H  H15  1  0.21063217  0.25580345  0.88238190  1  0.159586  0  0.133291  0.161662  0  0.965871  0
H  H16  1  0.64257124  0.61517104  0.70456207  1  0.14879  0  0.142701  0.09105  0  0.987524  0
H  H17  1  0.35742801  0.38483382  0.20455984  1  0.148949  0  0.142706  0.091034  0  0.987477  0
H  H18  1  0.14257551  0.88483175  0.20456080  1  0.148942  0  0.142692  0.091004  0  0.98752  0
H  H19  1  0.85742829  0.11516975  0.70456163  1  0.148934  0  0.142704  0.091024  0  0.987482  0
H  H20  1  0.48884471  0.23245327  0.70325786  1  0.124443  0  0.126832  0.147532  0  0.999909  0
H  H21  1  0.51115636  0.76754991  0.20325687  1  0.124364  0  0.12689  0.147654  0  0.999991  0
H  H22  1  0.98884584  0.26754856  0.20325739  1  0.124398  0  0.126828  0.147526  0  0.999913  0
H  H23  1  0.01115524  0.73245295  0.70325786  1  0.124414  0  0.126826  0.147518  0  0.999937  0
H  H24  1  0.59594920  0.60499616  0.54053206  1  0.606976  0  0.329694  0.412221  0  0.869077  0
H  H25  1  0.40404854  0.39500476  0.04053397  1  0.606326  0  0.329685  0.412217  0  0.869086  0
H  H26  1  0.09595074  0.89500607  0.04053287  1  0.606394  0  0.329718  0.412267  0  0.869123  0
H  H27  1  0.90404973  0.10499569  0.54053263  1  0.606389  0  0.329688  0.412237  0  0.869065  0
H  H28  1  0.59245435  0.73453729  0.53121312  1  0.672719  0  0.295261  0.40756  0  0.927723  0
H  H29  1  0.40754705  0.26546364  0.03121249  1  0.672726  0  0.295222  0.407488  0  0.927814  0
H  H30  1  0.09245415  0.76546411  0.03121297  1  0.672724  0  0.29526  0.40759  0  0.92768  0
H  H31  1  0.90754725  0.23453766  0.53121317  1  0.672721  0  0.295231  0.407486  0  0.927822  0
H  H32  1  0.41043967  0.85922897  0.49350360  1  0.671628  0  0.301276  0.408007  0  0.921446  0
H  H33  1  0.58955995  0.14076958  0.99350406  1  0.671646  0  0.301283  0.408027  0  0.921413  0
H  H34  1  0.91044084  0.64077073  0.99350486  1  0.671639  0  0.301299  0.408039  0  0.921399  0
H  H35  1  0.08956060  0.35922950  0.49350385  1  0.671638  0  0.301296  0.408055  0  0.921373  0
H  H36  1  0.32724919  0.89900561  0.55860921  1  0.624758  0  0.302466  0.400464  0  0.930393  0
H  H37  1  0.67274942  0.10099360  0.05861008  1  0.624762  0  0.302454  0.400433  0  0.930441  0
H  H38  1  0.82725224  0.60099479  0.05861093  1  0.624771  0  0.302478  0.400439  0  0.930435  0
H  H39  1  0.17274911  0.39900610  0.55861045  1  0.624763  0  0.302456  0.400438  0  0.930432  0
H  H40  1  0.96392017  0.37853068  0.68275326  1  0.637777  0  0.30315  0.39977  0  0.937012  0
H  H41  1  0.03607639  0.62147337  0.18275265  1  0.637697  0  0.303154  0.399745  0  0.937066  0
H  H42  1  0.46392097  0.12147119  0.18275267  1  0.637722  0  0.303161  0.399775  0  0.937012  0
H  H43  1  0.53607650  0.87852783  0.68275273  1  0.637716  0  0.303149  0.39975  0  0.93704  0
H  H44  1  0.88959060  0.48197240  0.64988831  1  0.623033  0  0.341253  0.433385  0  0.840078  0
H  H45  1  0.11040512  0.51803171  0.14988720  1  0.623349  0  0.341275  0.433433  0  0.840005  0
H  H46  1  0.38959328  0.01803041  0.14988622  1  0.623382  0  0.341227  0.433337  0  0.840134  0
H  H47  1  0.61040608  0.98197034  0.64988773  1  0.62331  0  0.34126  0.433397  0  0.840055  0
C  C48  1  0.17384739  0.56243162  0.74097418  1  1.051616  0  0.198778  0.274201  0  3.945711  0
C  C49  1  0.82614997  0.43756479  0.24097319  1  1.051232  0  0.198806  0.274195  0  3.945605  0
C  C50  1  0.67384932  0.93756858  0.24097361  1  1.051594  0  0.198812  0.27416  0  3.945886  0
C  C51  1  0.32614623  0.06243287  0.74097219  1  1.051002  0  0.198812  0.274236  0  3.945717  0
C  C52  1  0.14825225  0.63984344  0.84917682  1  0.542152  0  0.145846  0.164372  0  3.940323  0
C  C53  1  0.85175037  0.36014777  0.34917429  1  0.542164  0  0.145846  0.16457  0  3.940202  0
C  C54  1  0.64825422  0.86015577  0.34917578  1  0.542167  0  0.145832  0.164451  0  3.940177  0
C  C55  1  0.35174658  0.13984719  0.84917377  1  0.542226  0  0.145833  0.164483  0  3.940324  0
C  C56  1  0.25576441  0.70085658  0.84137138  1  0.020246  0  -0.049246  -0.158192  0  3.828665  0
C  C57  1  0.74423822  0.29913464  0.34137000  1  0.019713  0  -0.04921  -0.158277  0  3.828722  0
C  C58  1  0.75576552  0.79914342  0.34137089  1  0.020214  0  -0.04926  -0.158236  0  3.828705  0
C  C59  1  0.24423621  0.20086207  0.84136892  1  0.019546  0  -0.049173  -0.158202  0  3.828757  0
C  C60  1  0.31457941  0.69218926  0.77749921  1  0.498028  0  0.141876  0.164092  0  3.925424  0
C  C61  1  0.68542061  0.30780374  0.27749839  1  0.498264  0  0.141854  0.163957  0  3.925595  0
C  C62  1  0.81457960  0.80781081  0.27749924  1  0.498041  0  0.141892  0.164061  0  3.925453  0
C  C63  1  0.18541952  0.19219646  0.77749731  1  0.498398  0  0.141851  0.163995  0  3.925605  0
C  C64  1  0.41826366  0.77017281  0.75870228  1  1.633184  0  0.240508  0.590844  0  4.155077  0
C  C65  1  0.58173640  0.22982022  0.25870052  1  1.633085  0  0.240514  0.591042  0  4.155032  0
C  C66  1  0.91826572  0.72982556  0.25870079  1  1.633257  0  0.240512  0.590905  0  4.155015  0
C  C67  1  0.08173525  0.27018258  0.75869992  1  1.633101  0  0.240434  0.590916  0  4.155149  0
C  C68  1  0.07318087  0.65005368  0.91488742  1  1.631247  0  0.227533  0.564297  0  4.221494  0
C  C69  1  0.92681981  0.34994162  0.41488694  1  1.631196  0  0.227489  0.564061  0  4.221641  0
C  C70  1  0.57318376  0.84994463  0.41488795  1  1.631251  0  0.227566  0.564268  0  4.221526  0
C  C71  1  0.42681692  0.15005572  0.91488589  1  1.631236  0  0.227526  0.564237  0  4.221444  0
C  C72  1  0.60853771  0.52936630  0.70439834  1  1.088091  0  0.205724  0.289027  0  3.905966  0
C  C73  1  0.39146154  0.47063856  0.20439552  1  1.087883  0  0.205729  0.289111  0  3.905862  0
C  C74  1  0.10854102  0.97063651  0.20439598  1  1.087272  0  0.20577  0.289183  0  3.90576  0
C  C75  1  0.89146187  0.02936500  0.70439684  1  1.087963  0  0.20573  0.289101  0  3.905892  0
C  C76  1  0.63070346  0.34570138  0.73776401  1  0.476144  0  0.144828  0.157281  0  3.922036  0
C  C77  1  0.36929573  0.65430344  0.23776005  1  0.476343  0  0.144767  0.157209  0  3.921968  0
C  C78  1  0.13070788  0.15430227  0.23776131  1  0.476095  0  0.144757  0.157091  0  3.922072  0
C  C79  1  0.86929587  0.84570003  0.73776223  1  0.476082  0  0.144798  0.157295  0  3.921995  0
C  C80  1  0.52281453  0.31805822  0.70397598  1  0.07869  0  -0.054352  -0.156851  0  3.840141  0
C  C81  1  0.47718654  0.68194664  0.20397402  1  0.078635  0  -0.054412  -0.15701  0  3.840304  0
C  C82  1  0.02281529  0.18194469  0.20397431  1  0.078728  0  -0.054356  -0.156831  0  3.840063  0
C  C83  1  0.97718578  0.81805598  0.70397517  1  0.078705  0  -0.054374  -0.156923  0  3.840166  0
C  C84  1  0.46058123  0.40484014  0.67112564  1  0.497833  0  0.141538  0.156213  0  3.947895  0
C  C85  1  0.53942172  0.59516394  0.17112526  1  0.497814  0  0.141518  0.156207  0  3.948053  0
C  C86  1  0.96058064  0.09516176  0.17112528  1  0.498013  0  0.141562  0.156233  0  3.947952  0
C  C87  1  0.03941868  0.90483812  0.67112510  1  0.497774  0  0.141595  0.156365  0  3.947842  0
C  C88  1  0.33868754  0.38494095  0.63710866  1  1.626761  0  0.241403  0.597668  0  4.171964  0
C  C89  1  0.66131184  0.61506318  0.13710819  1  1.626963  0  0.241363  0.597567  0  4.17218  0
C  C90  1  0.83868784  0.11505854  0.13710933  1  1.626546  0  0.241425  0.597667  0  4.171923  0
C  C91  1  0.16130881  0.88493803  0.63710752  1  1.62692  0  0.241333  0.597495  0  4.172131  0
C  C92  1  0.70556908  0.25713562  0.77516376  1  1.647671  0  0.240894  0.611209  0  4.183216  0
C  C93  1  0.29442822  0.74286746  0.27516031  1  1.648138  0  0.240837  0.611068  0  4.183564  0
C  C94  1  0.20556889  0.24287129  0.27515944  1  1.648056  0  0.240896  0.611296  0  4.183235  0
C  C95  1  0.79443569  0.75713179  0.77516097  1  1.648109  0  0.240922  0.611218  0  4.18318  0
C  C96  1  0.82277735  0.38483983  0.97217547  1  1.593093  0  0.211931  0.505982  0  4.228014  0
C  C97  1  0.17722413  0.61515287  0.47217739  1  1.593152  0  0.211926  0.505866  0  4.228568  0
C  C98  1  0.32277451  0.11515664  0.47217749  1  1.593114  0  0.211916  0.505861  0  4.22863  0
C  C99  1  0.67722333  0.88484278  0.97217642  1  1.593121  0  0.21194  0.50587  0  4.228676  0
C  C100  1  0.69897239  0.43326628  0.94587103  1  1.585555  0  0.214177  0.517713  0  4.214713  0
C  C101  1  0.30103187  0.56673318  0.44586925  1  1.585543  0  0.214258  0.517692  0  4.214653  0
C  C102  1  0.19896867  0.06673701  0.44586995  1  1.585532  0  0.214273  0.517802  0  4.214487  0
C  C103  1  0.80102649  0.93326497  0.94586981  1  1.585535  0  0.214245  0.517787  0  4.214616  0
N  N104  1  0.27565864  0.62014320  0.72802477  1  -1.2326  0  -0.350508  -0.373423  0  3.462174  0
N  N105  1  0.72433875  0.37985155  0.22802440  1  -1.232615  0  -0.350523  -0.37336  0  3.462022  0
N  N106  1  0.77565969  0.87985781  0.22802476  1  -1.23264  0  -0.350494  -0.373355  0  3.462196  0
N  N107  1  0.22433679  0.12014786  0.72802389  1  -1.232686  0  -0.350522  -0.373384  0  3.46215  0
N  N108  1  0.10545167  0.57269392  0.79849501  1  -1.236416  0  -0.336918  -0.364872  0  3.423854  0
N  N109  1  0.89454831  0.42730241  0.29849294  1  -1.236312  0  -0.336967  -0.36498  0  3.423869  0
N  N110  1  0.60545270  0.92730539  0.29849393  1  -1.236365  0  -0.336967  -0.364916  0  3.423934  0
N  N111  1  0.39454456  0.07269345  0.79849194  1  -1.236287  0  -0.336969  -0.364991  0  3.424101  0
N  N112  1  0.50413359  0.51025283  0.66995004  1  -1.233431  0  -0.334293  -0.369999  0  3.415373  0
N  N113  1  0.49586845  0.48975124  0.16994923  1  -1.233434  0  -0.334237  -0.369932  0  3.415317  0
N  N114  1  0.00413507  0.98974924  0.16994975  1  -1.233345  0  -0.334305  -0.370046  0  3.415342  0
N  N115  1  0.99586606  0.01025148  0.66995004  1  -1.233383  0  -0.334315  -0.370073  0  3.415372  0
N  N116  1  0.67319645  0.45180158  0.73879975  1  -1.199073  0  -0.319138  -0.346649  0  3.400127  0
N  N117  1  0.32680092  0.54820407  0.23879640  1  -1.199101  0  -0.319135  -0.346678  0  3.399959  0
N  N118  1  0.17320093  0.04820288  0.23879711  1  -1.198383  0  -0.319099  -0.346616  0  3.399985  0
N  N119  1  0.82680281  0.95179942  0.73879799  1  -1.199035  0  -0.31912  -0.346674  0  3.400052  0
O  O120  1  0.46087597  0.76146351  0.69659971  1  -1.188235  0  -0.360376  -0.629625  0  2.326813  0
O  O121  1  0.53912147  0.23853465  0.19660006  1  -1.188281  0  -0.360414  -0.629766  0  2.326832  0
O  O122  1  0.96087802  0.73853912  0.19659926  1  -1.188314  0  -0.360358  -0.629624  0  2.326901  0
O  O123  1  0.03912306  0.26146743  0.69659894  1  -1.188338  0  -0.360358  -0.62966  0  2.326798  0
O  O124  1  0.45051789  0.84039642  0.80371911  1  -1.168887  0  -0.341464  -0.573453  0  2.285805  0
O  O125  1  0.54948482  0.15959319  0.30371689  1  -1.168872  0  -0.34149  -0.573537  0  2.285879  0
O  O126  1  0.95051635  0.65959935  0.30371557  1  -1.168921  0  -0.341511  -0.573538  0  2.285796  0
O  O127  1  0.04948545  0.34040536  0.80371625  1  -1.168869  0  -0.341481  -0.573521  0  2.28595  0
O  O128  1  0.96269579  0.61696219  0.91096308  1  -1.171882  0  -0.338467  -0.608801  0  2.262015  0
O  O129  1  0.03730581  0.38303396  0.41096052  1  -1.171867  0  -0.338447  -0.608755  0  2.262061  0
O  O130  1  0.46269552  0.88303592  0.41096181  1  -1.17183  0  -0.338438  -0.60878  0  2.261968  0
O  O131  1  0.53730517  0.11696443  0.91095866  1  -1.17183  0  -0.338425  -0.608793  0  2.261945  0
O  O132  1  0.12778557  0.69009305  0.96671819  1  -1.170716  0  -0.303979  -0.526592  0  2.163577  0
O  O133  1  0.87221592  0.30990470  0.46671620  1  -1.170712  0  -0.303939  -0.526441  0  2.16372  0
O  O134  1  0.62778485  0.80990767  0.46671613  1  -1.170736  0  -0.304023  -0.52659  0  2.163744  0
O  O135  1  0.37221482  0.19009259  0.96671617  1  -1.17073  0  -0.30398  -0.526509  0  2.163633  0
O  O136  1  0.29123442  0.46640408  0.60358135  1  -1.193646  0  -0.3566  -0.631497  0  2.339105  0
O  O137  1  0.70876775  0.53360178  0.10358142  1  -1.193654  0  -0.356543  -0.631409  0  2.339019  0
O  O138  1  0.79123569  0.03359633  0.10358102  1  -1.193576  0  -0.356612  -0.631503  0  2.339104  0
O  O139  1  0.20876558  0.96639778  0.60357967  1  -1.193692  0  -0.356542  -0.631396  0  2.33906  0
O  O140  1  0.29157845  0.29019938  0.64652253  1  -1.181113  0  -0.360008  -0.598691  0  2.356409  0
O  O141  1  0.70842182  0.70980389  0.14652145  1  -1.18123  0  -0.360013  -0.598668  0  2.356512  0
O  O142  1  0.79157688  0.20979928  0.14652366  1  -1.181175  0  -0.360016  -0.598665  0  2.356355  0
O  O143  1  0.20841884  0.79019560  0.64652032  1  -1.181168  0  -0.359972  -0.598623  0  2.356456  0
O  O144  1  0.80189779  0.28918759  0.80445818  1  -1.158542  0  -0.35572  -0.594988  0  2.271544  0
O  O145  1  0.19810127  0.71082132  0.30445534  1  -1.158978  0  -0.355666  -0.594919  0  2.271703  0
O  O146  1  0.30190400  0.21081503  0.30445545  1  -1.158887  0  -0.355764  -0.595074  0  2.271259  0
O  O147  1  0.69809962  0.78918129  0.80445650  1  -1.158908  0  -0.355729  -0.595003  0  2.271213  0
O  O148  1  0.66523305  0.15736741  0.77225464  1  -1.202255  0  -0.397745  -0.665251  0  2.323864  0
O  O149  1  0.33476972  0.84263651  0.27225163  1  -1.202323  0  -0.397768  -0.665196  0  2.323946  0
O  O150  1  0.16523644  0.34263281  0.27225287  1  -1.202391  0  -0.397728  -0.665243  0  2.324134  0
O  O151  1  0.83477088  0.65736775  0.77225340  1  -1.20232  0  -0.397773  -0.665252  0  2.324112  0
O  O152  1  0.82423169  0.34549787  0.03359579  1  -1.17063  0  -0.396603  -0.600741  0  2.260859  0
O  O153  1  0.17577153  0.65449214  0.53359359  1  -1.170676  0  -0.396568  -0.600624  0  2.261465  0
O  O154  1  0.32423061  0.15449255  0.53359160  1  -1.170689  0  -0.396544  -0.600627  0  2.261523  0
O  O155  1  0.67576714  0.84550586  0.03359308  1  -1.170702  0  -0.396595  -0.600679  0  2.261456  0
O  O156  1  0.91165506  0.39015274  0.93060337  1  -1.156137  0  -0.383356  -0.579201  0  2.264878  0
O  O157  1  0.08834558  0.60984170  0.43059961  1  -1.156094  0  -0.383338  -0.579163  0  2.264822  0
O  O158  1  0.41165587  0.10984291  0.43059913  1  -1.156087  0  -0.383359  -0.579197  0  2.264739  0
O  O159  1  0.58834387  0.89015322  0.93060019  1  -1.156143  0  -0.383334  -0.57915  0  2.264817  0
O  O160  1  0.60656709  0.41683481  0.98415847  1  -1.18976  0  -0.392836  -0.620436  0  2.257291  0
O  O161  1  0.39343345  0.58315367  0.48415819  1  -1.1898  0  -0.392872  -0.620431  0  2.257294  0
O  O162  1  0.10656700  0.08316763  0.48415477  1  -1.189814  0  -0.392858  -0.620474  0  2.257348  0
O  O163  1  0.89343081  0.91683933  0.98415615  1  -1.189761  0  -0.392846  -0.620418  0  2.257282  0
O  O164  1  0.70091642  0.48569020  0.88843052  1  -1.174415  0  -0.388954  -0.602898  0  2.255635  0
O  O165  1  0.29908612  0.51431018  0.38842511  1  -1.174477  0  -0.389057  -0.602867  0  2.255576  0
O  O166  1  0.20091274  0.01431234  0.38842477  1  -1.174418  0  -0.3891  -0.602961  0  2.255374  0
O  O167  1  0.79908162  0.98568973  0.88842617  1  -1.174419  0  -0.389072  -0.60297  0  2.25547  0
O  O168  1  0.57911213  0.67306660  0.56703366  1  -1.255041  0  -0.634193  -0.831921  0  2.019462  0
O  O169  1  0.42088830  0.32693428  0.06703455  1  -1.254446  0  -0.634134  -0.831855  0  2.019559  0
O  O170  1  0.07911189  0.82693476  0.06703347  1  -1.254498  0  -0.634214  -0.832003  0  2.019537  0
O  O171  1  0.92088854  0.17306612  0.56703474  1  -1.254506  0  -0.634153  -0.83188  0  2.019561  0
O  O172  1  0.38686142  0.84197397  0.54274913  1  -1.297537  0  -0.657325  -0.864149  0  2.044935  0
O  O173  1  0.61313632  0.15802443  0.04275000  1  -1.297462  0  -0.6573  -0.864118  0  2.044938  0
O  O174  1  0.88686625  0.65802475  0.04275081  1  -1.297484  0  -0.657361  -0.864154  0  2.044931  0
O  O175  1  0.11313695  0.34197533  0.54275040  1  -1.297463  0  -0.657316  -0.864142  0  2.044943  0
O  O176  1  0.93082582  0.45603324  0.69159442  1  -1.25089  0  -0.619076  -0.854171  0  2.067006  0
O  O177  1  0.06916891  0.54397081  0.19159332  1  -1.251071  0  -0.619113  -0.854208  0  2.066974  0
O  O178  1  0.43082758  0.04396780  0.19159283  1  -1.251156  0  -0.619088  -0.854145  0  2.067021  0
O  O179  1  0.56916988  0.95603204  0.69159386  1  -1.251096  0  -0.619106  -0.854193  0  2.066989  0
