# generated using pymatgen
data_ZnH2(CO2)2
_symmetry_space_group_name_H-M   'P 1'
_cell_length_a   9.99904017
_cell_length_b   11.44396481
_cell_length_c   14.66981143
_cell_angle_alpha   91.39194059
_cell_angle_beta   90.00018547
_cell_angle_gamma   90.00001295
_symmetry_Int_Tables_number   1
_chemical_formula_structural   ZnH2(CO2)2
_chemical_formula_sum   'Zn12 H24 C24 O48'
_cell_volume   1678.15157901
_cell_formula_units_Z   12
loop_
 _symmetry_equiv_pos_site_id
 _symmetry_equiv_pos_as_xyz
  1  'x, y, z'
loop_
 _atom_site_type_symbol
 _atom_site_label
 _atom_site_symmetry_multiplicity
 _atom_site_fract_x
 _atom_site_fract_y
 _atom_site_fract_z
 _atom_site_occupancy
 _atom_site_hle17_bader_spin_density
 _atom_site_hle17_ddec_charge
 _atom_site_hle17_ddec_spin_density
 _atom_site_hle17_ddec_sum_bond_order
 _atom_site_hle17_magmom
 _atom_site_hse06_10hf_bader_spin_density
 _atom_site_hse06_10hf_ddec_charge
 _atom_site_hse06_10hf_ddec_spin_density
 _atom_site_hse06_10hf_ddec_sum_bond_order
 _atom_site_hse06_10hf_magmom
 _atom_site_hse06_bader_spin_density
 _atom_site_hse06_ddec_charge
 _atom_site_hse06_ddec_spin_density
 _atom_site_hse06_ddec_sum_bond_order
 _atom_site_hse06_magmom
 _atom_site_pbe_bader_spin_density
 _atom_site_pbe_cm5_charge
 _atom_site_pbe_ddec_charge
 _atom_site_pbe_ddec_spin_density
 _atom_site_pbe_ddec_sum_bond_order
 _atom_site_pbe_magmom
Zn  Zn0  1  0.88328055  0.24212362  0.31078291  1  0  1.146506  0  1.796168  0  0  0.983968  0  2.248644  0  0  1.033675  0  2.189763  0  0  0.674709  0.948705  0  2.289144  0
Zn  Zn1  1  0.38327727  0.25787474  0.18921916  1  0  1.146448  0  1.796265  0  0  0.983992  0  2.248703  0  0  1.033702  0  2.189821  0  0  0.674705  0.948728  0  2.289203  0
Zn  Zn2  1  0.11672094  0.75787552  0.68921891  1  0  1.1464  0  1.796315  0  0  0.983957  0  2.248745  0  0  1.033666  0  2.189862  0  0  0.674727  0.948695  0  2.289247  0
Zn  Zn3  1  0.61671821  0.74212440  0.81078266  1  0  1.146482  0  1.796191  0  0  0.98396  0  2.24866  0  0  1.033669  0  2.18978  0  0  0.674721  0.948698  0  2.289161  0
Zn  Zn4  1  0.57164477  0.24301232  0.36798835  1  0  1.173302  0  1.771369  0  0  1.003729  0  2.226565  0  0  1.054697  0  2.164872  0  0  0.679354  0.967459  0  2.269084  0
Zn  Zn5  1  0.07164222  0.25698770  0.13201171  1  0  1.173327  0  1.771324  0  0  1.003768  0  2.226496  0  0  1.054728  0  2.164819  0  0  0.679376  0.967501  0  2.269018  0
Zn  Zn6  1  0.42835871  0.75698769  0.63201349  1  0  1.173308  0  1.771346  0  0  1.003786  0  2.226525  0  0  1.054752  0  2.164839  0  0  0.679406  0.967515  0  2.269043  0
Zn  Zn7  1  0.92835526  0.74301143  0.86798602  1  0  1.173344  0  1.771361  0  0  1.003757  0  2.226572  0  0  1.054724  0  2.16489  0  0  0.679355  0.967483  0  2.269088  0
Zn  Zn8  1  0.50000724  0.50000088  0.49999991  1  0  1.166372  0  1.728144  0  0  1.002931  0  2.183406  0  0  1.054364  0  2.121601  0  0  0.677401  0.966272  0  2.226233  0
Zn  Zn9  1  0.99999535  0.00000095  0.99999873  1  0  1.166413  0  1.728125  0  0  1.002951  0  2.183389  0  0  1.054386  0  2.121582  0  0  0.677412  0.966293  0  2.226213  0
Zn  Zn10  1  0.50000018  0.00000179  0.50000041  1  0  1.171954  0  1.749448  0  0  1.009111  0  2.20763  0  0  1.059714  0  2.145236  0  0  0.680603  0.973053  0  2.250791  0
Zn  Zn11  1  0.99999842  0.50000004  0.99999891  1  0  1.171945  0  1.749496  0  0  1.009096  0  2.207694  0  0  1.059701  0  2.145296  0  0  0.6806  0.973035  0  2.250856  0
H  H12  1  0.79125123  0.99136801  0.48548502  1  0  0.031999  0  0.90858  0  0  0.041192  0  0.971687  0  0  0.040932  0  0.967282  0  0  0.122648  0.041103  0  0.975072  0
H  H13  1  0.29125006  0.50863289  0.01451934  1  0  0.031999  0  0.908535  0  0  0.041195  0  0.971645  0  0  0.040937  0  0.967235  0  0  0.122644  0.041103  0  0.97503  0
H  H14  1  0.20875026  0.00863551  0.51452029  1  0  0.032019  0  0.908611  0  0  0.041211  0  0.971721  0  0  0.040954  0  0.967312  0  0  0.122648  0.04112  0  0.975107  0
H  H15  1  0.70874843  0.49136712  0.98548249  1  0  0.032006  0  0.908522  0  0  0.041186  0  0.971655  0  0  0.040928  0  0.967245  0  0  0.122624  0.041094  0  0.97504  0
H  H16  1  0.74574389  0.14002089  0.12467798  1  0  0.030405  0  0.930289  0  0  0.037629  0  1.000265  0  0  0.037366  0  0.996345  0  0  0.116338  0.037627  0  1.003087  0
H  H17  1  0.24575253  0.35997481  0.37532238  1  0  0.030462  0  0.930175  0  0  0.037665  0  1.000173  0  0  0.037405  0  0.996249  0  0  0.116375  0.037663  0  1.002997  0
H  H18  1  0.25424959  0.85997389  0.87532444  1  0  0.030462  0  0.930171  0  0  0.037661  0  1.000168  0  0  0.0374  0  0.996246  0  0  0.116385  0.037659  0  1.002992  0
H  H19  1  0.75424896  0.64002520  0.62467605  1  0  0.030482  0  0.93013  0  0  0.037682  0  1.000143  0  0  0.037421  0  0.99622  0  0  0.116373  0.037679  0  1.002966  0
H  H20  1  0.89350489  0.44198841  0.45352449  1  0  0.028329  0  0.907426  0  0  0.03779  0  0.972253  0  0  0.038081  0  0.967023  0  0  0.119929  0.037354  0  0.976186  0
H  H21  1  0.39349789  0.05800733  0.04647483  1  0  0.028336  0  0.907363  0  0  0.03778  0  0.972216  0  0  0.038077  0  0.966981  0  0  0.119889  0.037344  0  0.976148  0
H  H22  1  0.10650259  0.55800811  0.54647455  1  0  0.028357  0  0.907405  0  0  0.037803  0  0.972255  0  0  0.038097  0  0.967023  0  0  0.119914  0.037367  0  0.976187  0
H  H23  1  0.60649560  0.94198744  0.95352486  1  0  0.02831  0  0.907434  0  0  0.037771  0  0.972268  0  0  0.038063  0  0.967038  0  0  0.119926  0.037336  0  0.976201  0
H  H24  1  0.34021308  0.31241820  0.58358387  1  0  0.02518  0  0.903692  0  0  0.035981  0  0.964939  0  0  0.035597  0  0.960773  0  0  0.120329  0.035941  0  0.968189  0
H  H25  1  0.84020784  0.18758184  0.91641574  1  0  0.025159  0  0.903642  0  0  0.035927  0  0.964938  0  0  0.035543  0  0.960771  0  0  0.120317  0.035891  0  0.968181  0
H  H26  1  0.65979341  0.68758706  0.41641601  1  0  0.025279  0  0.903575  0  0  0.035979  0  0.964921  0  0  0.035594  0  0.960756  0  0  0.120342  0.035947  0  0.968165  0
H  H27  1  0.15978264  0.81241818  0.08358337  1  0  0.025246  0  0.903643  0  0  0.035978  0  0.964959  0  0  0.035594  0  0.960792  0  0  0.120348  0.035942  0  0.968208  0
H  H28  1  0.27657319  0.02279063  0.27013095  1  0  0.01785  0  0.896497  0  0  0.029498  0  0.958371  0  0  0.029071  0  0.954275  0  0  0.115349  0.029534  0  0.961401  0
H  H29  1  0.77657014  0.47720770  0.22986816  1  0  0.017988  0  0.896407  0  0  0.029546  0  0.958366  0  0  0.029119  0  0.95427  0  0  0.115353  0.02958  0  0.961399  0
H  H30  1  0.72342830  0.97721113  0.72987160  1  0  0.017973  0  0.896391  0  0  0.029583  0  0.958311  0  0  0.029158  0  0.954208  0  0  0.115356  0.029616  0  0.961345  0
H  H31  1  0.22342834  0.52278707  0.77013153  1  0  0.017936  0  0.896451  0  0  0.029552  0  0.958359  0  0  0.029125  0  0.95426  0  0  0.115364  0.029587  0  0.96139  0
H  H32  1  0.44251908  0.52591475  0.22767169  1  0  0.028882  0  0.891586  0  0  0.040145  0  0.951029  0  0  0.040221  0  0.946656  0  0  0.122301  0.03973  0  0.95447  0
H  H33  1  0.94251124  0.97408357  0.27232614  1  0  0.028947  0  0.891463  0  0  0.04015  0  0.950959  0  0  0.040273  0  0.946537  0  0  0.12227  0.039736  0  0.954396  0
H  H34  1  0.55748740  0.47408177  0.77232804  1  0  0.028964  0  0.891395  0  0  0.040119  0  0.950939  0  0  0.040281  0  0.946476  0  0  0.122285  0.039706  0  0.954376  0
H  H35  1  0.05748425  0.02591557  0.72767091  1  0  0.028952  0  0.891445  0  0  0.04019  0  0.950917  0  0  0.040284  0  0.946525  0  0  0.122306  0.039773  0  0.954359  0
C  C36  1  0.77436638  0.06694601  0.44174636  1  0  0.631476  0  3.811373  0  0  0.556359  0  4.11316  0  0  0.592193  0  4.103795  0  0  0.165835  0.531941  0  4.118827  0
C  C37  1  0.27436453  0.43305407  0.05825551  1  0  0.631519  0  3.811326  0  0  0.556395  0  4.113115  0  0  0.592233  0  4.103741  0  0  0.165836  0.531976  0  4.11878  0
C  C38  1  0.22563210  0.93305488  0.55825618  1  0  0.631424  0  3.811433  0  0  0.556302  0  4.113225  0  0  0.592136  0  4.103858  0  0  0.165805  0.531878  0  4.118893  0
C  C39  1  0.72563296  0.56694594  0.94174428  1  0  0.631443  0  3.811343  0  0  0.556316  0  4.113135  0  0  0.592155  0  4.103766  0  0  0.165842  0.531896  0  4.118799  0
C  C40  1  0.66303506  0.17231345  0.16836726  1  0  0.622684  0  3.818091  0  0  0.55011  0  4.117762  0  0  0.585388  0  4.109184  0  0  0.159934  0.526094  0  4.122982  0
C  C41  1  0.16304548  0.32768223  0.33163360  1  0  0.622436  0  3.817937  0  0  0.549917  0  4.117605  0  0  0.585191  0  4.109028  0  0  0.159715  0.525899  0  4.122828  0
C  C42  1  0.33695742  0.82768133  0.83163584  1  0  0.622468  0  3.817903  0  0  0.549988  0  4.117546  0  0  0.585261  0  4.108971  0  0  0.159761  0.525972  0  4.122769  0
C  C43  1  0.83695701  0.67231778  0.66836483  1  0  0.622481  0  3.817873  0  0  0.549911  0  4.117568  0  0  0.585186  0  4.108993  0  0  0.159784  0.525895  0  4.122789  0
C  C44  1  0.78452542  0.42646306  0.44816293  1  0  0.617441  0  3.837392  0  0  0.545789  0  4.136025  0  0  0.58046  0  4.128172  0  0  0.164765  0.522078  0  4.140859  0
C  C45  1  0.28451544  0.07353615  0.05183758  1  0  0.617477  0  3.837544  0  0  0.545839  0  4.136128  0  0  0.580507  0  4.128282  0  0  0.164829  0.522129  0  4.140959  0
C  C46  1  0.21548307  0.57353783  0.55183892  1  0  0.617458  0  3.837498  0  0  0.545814  0  4.136094  0  0  0.580481  0  4.128249  0  0  0.164818  0.522103  0  4.140927  0
C  C47  1  0.71547904  0.92646561  0.94816157  1  0  0.617506  0  3.837423  0  0  0.545855  0  4.136019  0  0  0.580524  0  4.128166  0  0  0.164782  0.522143  0  4.140855  0
C  C48  1  0.40018372  0.25686034  0.53661226  1  0  0.638082  0  3.819655  0  0  0.562474  0  4.123507  0  0  0.598332  0  4.113673  0  0  0.166215  0.537976  0  4.129738  0
C  C49  1  0.90018372  0.24314059  0.96338819  1  0  0.638217  0  3.81976  0  0  0.562606  0  4.123615  0  0  0.598463  0  4.113773  0  0  0.166264  0.538112  0  4.129849  0
C  C50  1  0.59981677  0.74314230  0.46338826  1  0  0.638015  0  3.819814  0  0  0.562475  0  4.123637  0  0  0.598334  0  4.113802  0  0  0.166191  0.537972  0  4.129878  0
C  C51  1  0.09981377  0.75685942  0.03661092  1  0  0.638066  0  3.819624  0  0  0.562512  0  4.123449  0  0  0.598371  0  4.113612  0  0  0.166233  0.538007  0  4.129687  0
C  C52  1  0.35526686  0.04877534  0.31989366  1  0  0.620378  0  3.857445  0  0  0.549941  0  4.157159  0  0  0.584482  0  4.149429  0  0  0.161403  0.526404  0  4.161791  0
C  C53  1  0.85526458  0.45122564  0.18011045  1  0  0.62017  0  3.857401  0  0  0.549793  0  4.157038  0  0  0.584333  0  4.149308  0  0  0.161388  0.526258  0  4.161669  0
C  C54  1  0.64473462  0.95122818  0.68011302  1  0  0.620242  0  3.857296  0  0  0.549839  0  4.156955  0  0  0.584382  0  4.149224  0  0  0.161425  0.526302  0  4.161588  0
C  C55  1  0.14473191  0.54877000  0.81988790  1  0  0.620327  0  3.857311  0  0  0.549936  0  4.156971  0  0  0.584479  0  4.149237  0  0  0.161434  0.5264  0  4.161605  0
C  C56  1  0.47286014  0.48130564  0.29048661  1  0  0.618893  0  3.848269  0  0  0.543504  0  4.156883  0  0  0.578378  0  4.148032  0  0  0.16313  0.519835  0  4.162061  0
C  C57  1  0.97285188  0.01869711  0.20951097  1  0  0.618845  0  3.848002  0  0  0.543478  0  4.156603  0  0  0.57832  0  4.14776  0  0  0.163205  0.519813  0  4.161777  0
C  C58  1  0.52715335  0.51869262  0.70950974  1  0  0.618777  0  3.848113  0  0  0.543473  0  4.156672  0  0  0.578285  0  4.147844  0  0  0.163173  0.519806  0  4.161849  0
C  C59  1  0.02714761  0.98130552  0.79048819  1  0  0.618798  0  3.848198  0  0  0.543406  0  4.15683  0  0  0.578267  0  4.147984  0  0  0.163122  0.519741  0  4.162004  0
O  O60  1  0.87433289  0.11063973  0.40371073  1  0  -0.579876  0  2.084115  0  0  -0.517337  0  2.344848  0  0  -0.545453  0  2.330689  0  0  -0.309487  -0.497741  0  2.353943  0
O  O61  1  0.37433221  0.38935863  0.09628997  1  0  -0.579836  0  2.084096  0  0  -0.517297  0  2.344819  0  0  -0.545409  0  2.330655  0  0  -0.309466  -0.4977  0  2.353915  0
O  O62  1  0.12566759  0.88936116  0.59629181  1  0  -0.579808  0  2.084155  0  0  -0.517282  0  2.34489  0  0  -0.545394  0  2.330729  0  0  -0.309466  -0.497686  0  2.353987  0
O  O63  1  0.62566628  0.61063876  0.90371046  1  0  -0.579816  0  2.084154  0  0  -0.517252  0  2.344869  0  0  -0.54537  0  2.330716  0  0  -0.309467  -0.497656  0  2.353965  0
O  O64  1  0.65200063  0.10077878  0.43479769  1  0  -0.646473  0  2.21082  0  0  -0.559338  0  2.498251  0  0  -0.592016  0  2.480888  0  0  -0.311188  -0.536355  0  2.509303  0
O  O65  1  0.15199680  0.39922390  0.06520532  1  0  -0.646574  0  2.210836  0  0  -0.559441  0  2.498281  0  0  -0.592125  0  2.480926  0  0  -0.3112  -0.536447  0  2.509327  0
O  O66  1  0.34799986  0.89922211  0.56520484  1  0  -0.646545  0  2.21081  0  0  -0.559384  0  2.498207  0  0  -0.592075  0  2.480861  0  0  -0.311193  -0.536383  0  2.509248  0
O  O67  1  0.84799969  0.60077787  0.93479451  1  0  -0.646529  0  2.210839  0  0  -0.559368  0  2.498256  0  0  -0.592062  0  2.480911  0  0  -0.311185  -0.536366  0  2.509296  0
O  O68  1  0.69124797  0.19577229  0.25211500  1  0  -0.654866  0  2.230315  0  0  -0.569404  0  2.509583  0  0  -0.602185  0  2.496466  0  0  -0.318545  -0.546533  0  2.517827  0
O  O69  1  0.19124998  0.30422863  0.24788261  1  0  -0.654673  0  2.230083  0  0  -0.569378  0  2.509473  0  0  -0.602161  0  2.496362  0  0  -0.318471  -0.546504  0  2.517717  0
O  O70  1  0.30875051  0.80422510  0.74788610  1  0  -0.654625  0  2.230071  0  0  -0.569372  0  2.509462  0  0  -0.602153  0  2.496351  0  0  -0.31849  -0.546501  0  2.517707  0
O  O71  1  0.80874850  0.69577312  0.75211381  1  0  -0.654844  0  2.230287  0  0  -0.569367  0  2.509544  0  0  -0.602146  0  2.496429  0  0  -0.318491  -0.546496  0  2.517788  0
O  O72  1  0.55006713  0.18165257  0.13142576  1  0  -0.580951  0  2.078037  0  0  -0.517721  0  2.339842  0  0  -0.546061  0  2.32544  0  0  -0.309938  -0.498186  0  2.34922  0
O  O73  1  0.05007672  0.31833871  0.36857614  1  0  -0.580853  0  2.078091  0  0  -0.517546  0  2.339816  0  0  -0.545883  0  2.325413  0  0  -0.309806  -0.498012  0  2.349193  0
O  O74  1  0.44992435  0.81833958  0.86857798  1  0  -0.580904  0  2.078065  0  0  -0.517619  0  2.339787  0  0  -0.545956  0  2.325384  0  0  -0.309863  -0.498085  0  2.349166  0
O  O75  1  0.94992776  0.68166218  0.63142367  1  0  -0.580846  0  2.077978  0  0  -0.517598  0  2.339773  0  0  -0.545937  0  2.325372  0  0  -0.309891  -0.498064  0  2.349151  0
O  O76  1  0.74869783  0.34809033  0.38861433  1  0  -0.651871  0  2.209951  0  0  -0.569999  0  2.501567  0  0  -0.601446  0  2.485193  0  0  -0.315502  -0.547801  0  2.511631  0
O  O77  1  0.24869415  0.15190712  0.11138538  1  0  -0.651935  0  2.210012  0  0  -0.570055  0  2.501641  0  0  -0.601502  0  2.485268  0  0  -0.315547  -0.547868  0  2.511735  0
O  O78  1  0.25130566  0.65190881  0.61138544  1  0  -0.651903  0  2.210052  0  0  -0.570014  0  2.501663  0  0  -0.601456  0  2.485287  0  0  -0.31555  -0.547825  0  2.511749  0
O  O79  1  0.75130233  0.84809289  0.88861373  1  0  -0.651967  0  2.209973  0  0  -0.570084  0  2.501623  0  0  -0.601537  0  2.485262  0  0  -0.315547  -0.547891  0  2.511704  0
O  O80  1  0.70851025  0.48585031  0.49891876  1  0  -0.576979  0  2.107645  0  0  -0.515447  0  2.372943  0  0  -0.544029  0  2.360794  0  0  -0.30091  -0.49556  0  2.380772  0
O  O81  1  0.20850102  0.01415150  0.00108163  1  0  -0.57701  0  2.107758  0  0  -0.515492  0  2.373073  0  0  -0.544071  0  2.360924  0  0  -0.300941  -0.495603  0  2.380902  0
O  O82  1  0.29150223  0.51415407  0.50108179  1  0  -0.577042  0  2.107626  0  0  -0.515528  0  2.372946  0  0  -0.544109  0  2.3608  0  0  -0.300959  -0.495638  0  2.380773  0
O  O83  1  0.79149047  0.98585551  0.99891624  1  0  -0.57696  0  2.107611  0  0  -0.515434  0  2.372926  0  0  -0.544012  0  2.360778  0  0  -0.300889  -0.495545  0  2.380754  0
O  O84  1  0.47263454  0.31290608  0.47928410  1  0  -0.655581  0  2.208868  0  0  -0.569912  0  2.505318  0  0  -0.602598  0  2.487245  0  0  -0.315191  -0.54702  0  2.516792  0
O  O85  1  0.97262843  0.18709579  0.02071347  1  0  -0.655678  0  2.209039  0  0  -0.569943  0  2.505421  0  0  -0.602634  0  2.487373  0  0  -0.31521  -0.547062  0  2.516903  0
O  O86  1  0.52737094  0.68709568  0.52071709  1  0  -0.655591  0  2.20895  0  0  -0.569903  0  2.505346  0  0  -0.602583  0  2.487262  0  0  -0.315166  -0.547009  0  2.516821  0
O  O87  1  0.02736205  0.81290597  0.97928295  1  0  -0.655594  0  2.208829  0  0  -0.569933  0  2.505268  0  0  -0.602618  0  2.48719  0  0  -0.315173  -0.547029  0  2.516734  0
O  O88  1  0.39136987  0.14854182  0.54286981  1  0  -0.585088  0  2.105891  0  0  -0.523033  0  2.370899  0  0  -0.550777  0  2.356742  0  0  -0.304213  -0.503793  0  2.380165  0
O  O89  1  0.89136687  0.35145823  0.95712787  1  0  -0.585155  0  2.105903  0  0  -0.5231  0  2.370913  0  0  -0.550842  0  2.356753  0  0  -0.304241  -0.503861  0  2.380179  0
O  O90  1  0.60863261  0.85145907  0.45713000  1  0  -0.58511  0  2.10603  0  0  -0.523044  0  2.370983  0  0  -0.550788  0  2.356827  0  0  -0.304221  -0.503806  0  2.380253  0
O  O91  1  0.10862661  0.64854090  0.04286917  1  0  -0.585113  0  2.105901  0  0  -0.523051  0  2.370872  0  0  -0.550793  0  2.356713  0  0  -0.304266  -0.503813  0  2.380142  0
O  O92  1  0.41077317  0.14808229  0.30628299  1  0  -0.657056  0  2.227309  0  0  -0.574081  0  2.51525  0  0  -0.606388  0  2.500962  0  0  -0.317193  -0.551464  0  2.524242  0
O  O93  1  0.91077392  0.35191696  0.19371984  1  0  -0.657009  0  2.227078  0  0  -0.574025  0  2.514999  0  0  -0.60633  0  2.500711  0  0  -0.317211  -0.551407  0  2.52399  0
O  O94  1  0.58922431  0.85192035  0.69372230  1  0  -0.657015  0  2.227103  0  0  -0.574054  0  2.515044  0  0  -0.606359  0  2.500751  0  0  -0.317233  -0.551435  0  2.524035  0
O  O95  1  0.08922856  0.64808131  0.80627991  1  0  -0.657079  0  2.227221  0  0  -0.574122  0  2.51514  0  0  -0.606432  0  2.500858  0  0  -0.317225  -0.551504  0  2.524132  0
O  O96  1  0.38038955  0.98025013  0.38273795  1  0  -0.573322  0  2.09023  0  0  -0.513179  0  2.347655  0  0  -0.54063  0  2.334857  0  0  -0.304625  -0.494198  0  2.356162  0
O  O97  1  0.88037685  0.51974467  0.11725968  1  0  -0.573294  0  2.09033  0  0  -0.513132  0  2.347692  0  0  -0.540581  0  2.334894  0  0  -0.304626  -0.494151  0  2.356199  0
O  O98  1  0.61961494  0.01974901  0.61726319  1  0  -0.573366  0  2.09027  0  0  -0.513217  0  2.347659  0  0  -0.540669  0  2.33486  0  0  -0.304656  -0.494236  0  2.356167  0
O  O99  1  0.11961164  0.48025184  0.88273800  1  0  -0.573332  0  2.090214  0  0  -0.513194  0  2.347612  0  0  -0.540644  0  2.334811  0  0  -0.304649  -0.494213  0  2.356121  0
O  O100  1  0.48241102  0.36944382  0.28362625  1  0  -0.656844  0  2.257483  0  0  -0.574104  0  2.554826  0  0  -0.60606  0  2.539219  0  0  -0.320029  -0.551492  0  2.564196  0
O  O101  1  0.98240983  0.13055981  0.21637409  1  0  -0.656852  0  2.257439  0  0  -0.574063  0  2.554731  0  0  -0.606024  0  2.539147  0  0  -0.319969  -0.551458  0  2.564115  0
O  O102  1  0.51759146  0.63055183  0.71637482  1  0  -0.656731  0  2.257489  0  0  -0.574024  0  2.554864  0  0  -0.605988  0  2.539298  0  0  -0.319968  -0.551418  0  2.564246  0
O  O103  1  0.01759066  0.86944370  0.78362508  1  0  -0.656799  0  2.257502  0  0  -0.574034  0  2.554816  0  0  -0.605992  0  2.539221  0  0  -0.319999  -0.551425  0  2.564187  0
O  O104  1  0.49491943  0.54235934  0.36075784  1  0  -0.581663  0  2.105241  0  0  -0.52059  0  2.371076  0  0  -0.54829  0  2.357724  0  0  -0.304404  -0.501319  0  2.379705  0
O  O105  1  0.99489495  0.95764685  0.13923821  1  0  -0.581659  0  2.105213  0  0  -0.520585  0  2.371052  0  0  -0.548288  0  2.357718  0  0  -0.304501  -0.501315  0  2.379682  0
O  O106  1  0.50511306  0.45764241  0.63923653  1  0  -0.58167  0  2.105197  0  0  -0.520596  0  2.370994  0  0  -0.548305  0  2.357687  0  0  -0.304497  -0.501325  0  2.379622  0
O  O107  1  0.00509054  0.04235840  0.86075827  1  0  -0.581659  0  2.105294  0  0  -0.520575  0  2.371131  0  0  -0.548275  0  2.357791  0  0  -0.304413  -0.501303  0  2.379755  0
