# generated using pymatgen
data_LiBH14C6O3F4
_symmetry_space_group_name_H-M   'P 1'
_cell_length_a   7.16864371
_cell_length_b   10.94326398
_cell_length_c   13.48417320
_cell_angle_alpha   91.28475215
_cell_angle_beta   90.00005698
_cell_angle_gamma   89.99999400
_symmetry_Int_Tables_number   1
_chemical_formula_structural   LiBH14C6O3F4
_chemical_formula_sum   'Li4 B4 H56 C24 O12 F16'
_cell_volume   1057.54535873
_cell_formula_units_Z   4
loop_
 _symmetry_equiv_pos_site_id
 _symmetry_equiv_pos_as_xyz
  1  'x, y, z'
loop_
 _atom_site_type_symbol
 _atom_site_label
 _atom_site_symmetry_multiplicity
 _atom_site_fract_x
 _atom_site_fract_y
 _atom_site_fract_z
 _atom_site_occupancy
 _atom_site_hle17_bader_spin_density
 _atom_site_hle17_ddec_charge
 _atom_site_hle17_ddec_spin_density
 _atom_site_hle17_ddec_sum_bond_order
 _atom_site_hle17_magmom
 _atom_site_hse06_10hf_bader_spin_density
 _atom_site_hse06_10hf_ddec_charge
 _atom_site_hse06_10hf_ddec_spin_density
 _atom_site_hse06_10hf_ddec_sum_bond_order
 _atom_site_hse06_10hf_magmom
 _atom_site_hse06_bader_spin_density
 _atom_site_hse06_ddec_charge
 _atom_site_hse06_ddec_spin_density
 _atom_site_hse06_ddec_sum_bond_order
 _atom_site_hse06_magmom
 _atom_site_pbe_bader_spin_density
 _atom_site_pbe_cm5_charge
 _atom_site_pbe_ddec_charge
 _atom_site_pbe_ddec_spin_density
 _atom_site_pbe_ddec_sum_bond_order
 _atom_site_pbe_magmom
Li  Li0  1  0.96647908  0.50868322  0.66574559  1  0  0.850711  0  0.401369  0  0  0.797214  0  0.519762  0  0  0.808624  0  0.500686  0  0  0.506712  0.789027  0  0.533406  0
Li  Li1  1  0.46648085  0.99131634  0.83425439  1  0  0.850735  0  0.40135  0  0  0.797238  0  0.51974  0  0  0.808645  0  0.500666  0  0  0.506727  0.789049  0  0.533387  0
Li  Li2  1  0.03352126  0.49131679  0.33425442  1  0  0.850712  0  0.401364  0  0  0.797222  0  0.519751  0  0  0.808631  0  0.500677  0  0  0.50672  0.789035  0  0.533396  0
Li  Li3  1  0.53351949  0.00868458  0.16574563  1  0  0.85073  0  0.401384  0  0  0.797227  0  0.519779  0  0  0.808636  0  0.500702  0  0  0.506725  0.789038  0  0.533426  0
B  B4  1  0.12363328  0.69372778  0.49564020  1  0  1.262852  0  2.811093  0  0  1.092361  0  3.198154  0  0  1.131493  0  3.148697  0  0  0.049525  1.064836  0  3.232769  0
B  B5  1  0.62363116  0.80627197  0.00436514  1  0  1.262768  0  2.811115  0  0  1.092217  0  3.198367  0  0  1.131357  0  3.148899  0  0  0.04955  1.064711  0  3.232943  0
B  B6  1  0.87636706  0.30627223  0.50436203  1  0  1.262818  0  2.811185  0  0  1.092337  0  3.198217  0  0  1.131479  0  3.148739  0  0  0.049561  1.064814  0  3.232829  0
B  B7  1  0.37636918  0.19372714  0.99563781  1  0  1.262853  0  2.811068  0  0  1.092363  0  3.198117  0  0  1.131491  0  3.148669  0  0  0.049569  1.06484  0  3.23273  0
H  H8  1  0.49711551  0.39454605  0.62049604  1  0  0.081052  0  0.95502  0  0  0.095141  0  1.026451  0  0  0.096403  0  1.025515  0  0  0.09546  0.09415  0  1.02718  0
H  H9  1  0.99711551  0.10545423  0.87950388  1  0  0.081046  0  0.955011  0  0  0.095156  0  1.02642  0  0  0.096417  0  1.025485  0  0  0.095463  0.094162  0  1.027153  0
H  H10  1  0.50288623  0.60545396  0.37950397  1  0  0.081061  0  0.955016  0  0  0.095151  0  1.026437  0  0  0.096416  0  1.025497  0  0  0.095465  0.094158  0  1.027172  0
H  H11  1  0.00288483  0.89454578  0.12049612  1  0  0.081042  0  0.955019  0  0  0.095127  0  1.026451  0  0  0.096391  0  1.02551  0  0  0.095456  0.094134  0  1.027186  0
H  H12  1  0.33872424  0.47489138  0.54223692  1  0  0.096803  0  0.945907  0  0  0.113613  0  1.011252  0  0  0.114621  0  1.010484  0  0  0.112245  0.112761  0  1.011925  0
H  H13  1  0.83872440  0.02510891  0.95776291  1  0  0.096765  0  0.94589  0  0  0.113563  0  1.011261  0  0  0.11457  0  1.010494  0  0  0.112237  0.11271  0  1.011934  0
H  H14  1  0.66127610  0.52510955  0.45776310  1  0  0.096811  0  0.94589  0  0  0.11362  0  1.011239  0  0  0.114628  0  1.010471  0  0  0.112254  0.112769  0  1.011911  0
H  H15  1  0.16127454  0.97489018  0.04223634  1  0  0.096759  0  0.94588  0  0  0.113585  0  1.011212  0  0  0.114593  0  1.010445  0  0  0.112261  0.112735  0  1.011884  0
H  H16  1  0.30285835  0.31571359  0.56430221  1  0  0.080642  0  0.943562  0  0  0.095965  0  1.013086  0  0  0.09728  0  1.011939  0  0  0.097171  0.094859  0  1.014081  0
H  H17  1  0.80285705  0.18428669  0.93569686  1  0  0.080633  0  0.943541  0  0  0.095945  0  1.013079  0  0  0.097262  0  1.011931  0  0  0.097165  0.094839  0  1.014073  0
H  H18  1  0.69714199  0.68428733  0.43569706  1  0  0.080647  0  0.943527  0  0  0.095965  0  1.013057  0  0  0.09728  0  1.011911  0  0  0.097169  0.094858  0  1.014053  0
H  H19  1  0.19714050  0.81571240  0.06430239  1  0  0.080633  0  0.94353  0  0  0.095944  0  1.013068  0  0  0.09726  0  1.01192  0  0  0.097157  0.094838  0  1.014065  0
H  H20  1  0.37767605  0.32886483  0.78043531  1  0  0.061762  0  0.937672  0  0  0.072584  0  1.008934  0  0  0.073393  0  1.007503  0  0  0.104258  0.071903  0  1.010086  0
H  H21  1  0.87767575  0.17113546  0.71956454  1  0  0.061733  0  0.937667  0  0  0.072548  0  1.008931  0  0  0.073364  0  1.007497  0  0  0.10425  0.071868  0  1.010082  0
H  H22  1  0.62232429  0.67113518  0.21956395  1  0  0.061763  0  0.937653  0  0  0.072575  0  1.008926  0  0  0.073391  0  1.007489  0  0  0.104253  0.071894  0  1.010079  0
H  H23  1  0.12232459  0.82886455  0.28043472  1  0  0.061761  0  0.937682  0  0  0.072585  0  1.008942  0  0  0.073394  0  1.007511  0  0  0.104259  0.071905  0  1.010094  0
H  H24  1  0.17464318  0.26269106  0.72527665  1  0  0.062856  0  0.920464  0  0  0.073713  0  0.989464  0  0  0.075057  0  0.987651  0  0  0.105438  0.072577  0  0.99103  0
H  H25  1  0.67464436  0.23730833  0.77472308  1  0  0.062854  0  0.920449  0  0  0.073713  0  0.989428  0  0  0.07506  0  0.987621  0  0  0.105435  0.072578  0  0.990995  0
H  H26  1  0.82535716  0.73730895  0.27472262  1  0  0.062857  0  0.920455  0  0  0.073711  0  0.989454  0  0  0.075056  0  0.987646  0  0  0.10544  0.072576  0  0.991021  0
H  H27  1  0.32535598  0.76269077  0.22527691  1  0  0.062839  0  0.920495  0  0  0.073699  0  0.989488  0  0  0.075043  0  0.987675  0  0  0.105429  0.072563  0  0.991056  0
H  H28  1  0.11031597  0.33115937  0.89996100  1  0  0.067631  0  0.949818  0  0  0.080038  0  1.016603  0  0  0.080726  0  1.016107  0  0  0.10408  0.079406  0  1.01711  0
H  H29  1  0.61031683  0.16884093  0.60003871  1  0  0.067593  0  0.949821  0  0  0.080002  0  1.016612  0  0  0.080691  0  1.016111  0  0  0.104054  0.079369  0  1.017121  0
H  H30  1  0.88968298  0.66884064  0.10003900  1  0  0.067606  0  0.949818  0  0  0.080022  0  1.016596  0  0  0.08071  0  1.016097  0  0  0.104061  0.079387  0  1.017106  0
H  H31  1  0.38968351  0.83115908  0.39996055  1  0  0.067632  0  0.94981  0  0  0.080041  0  1.016595  0  0  0.080729  0  1.016096  0  0  0.104087  0.079407  0  1.017104  0
H  H32  1  0.18937133  0.48201460  0.87314317  1  0  0.053857  0  0.914845  0  0  0.068817  0  0.978378  0  0  0.06965  0  0.977281  0  0  0.104843  0.068123  0  0.979253  0
H  H33  1  0.68937088  0.01798570  0.62685584  1  0  0.053851  0  0.914838  0  0  0.068817  0  0.978373  0  0  0.069651  0  0.977274  0  0  0.10485  0.068124  0  0.979246  0
H  H34  1  0.81062901  0.51798450  0.12685608  1  0  0.053845  0  0.914825  0  0  0.068808  0  0.97836  0  0  0.069643  0  0.977259  0  0  0.10484  0.068117  0  0.979232  0
H  H35  1  0.31062807  0.98201522  0.37314343  1  0  0.053857  0  0.91483  0  0  0.068821  0  0.978365  0  0  0.069654  0  0.977269  0  0  0.104849  0.068127  0  0.979241  0
H  H36  1  0.91102111  0.57182619  0.90704276  1  0  0.061905  0  0.931045  0  0  0.07441  0  0.998926  0  0  0.075111  0  0.998261  0  0  0.103829  0.073781  0  0.999536  0
H  H37  1  0.41102105  0.92817337  0.59295645  1  0  0.061919  0  0.931077  0  0  0.074463  0  0.998901  0  0  0.075164  0  0.998236  0  0  0.103863  0.073834  0  0.999513  0
H  H38  1  0.08898062  0.42817291  0.09295723  1  0  0.061909  0  0.931047  0  0  0.074424  0  0.998916  0  0  0.075126  0  0.99825  0  0  0.103833  0.073797  0  0.999524  0
H  H39  1  0.58897929  0.07182572  0.40704206  1  0  0.061909  0  0.931057  0  0  0.074421  0  0.998927  0  0  0.075121  0  0.998262  0  0  0.103835  0.073793  0  0.999536  0
H  H40  1  0.76905426  0.43930867  0.92847711  1  0  0.064726  0  0.915758  0  0  0.080609  0  0.977663  0  0  0.081329  0  0.976452  0  0  0.102354  0.07994  0  0.97871  0
H  H41  1  0.26905282  0.06069253  0.57152270  1  0  0.064713  0  0.915763  0  0  0.080596  0  0.977675  0  0  0.081321  0  0.976461  0  0  0.102339  0.079931  0  0.978718  0
H  H42  1  0.23094608  0.56069134  0.07152289  1  0  0.064709  0  0.915774  0  0  0.08059  0  0.977684  0  0  0.081315  0  0.976466  0  0  0.102343  0.079921  0  0.978731  0
H  H43  1  0.73094613  0.93930747  0.42847657  1  0  0.064709  0  0.915772  0  0  0.08059  0  0.977681  0  0  0.081309  0  0.976471  0  0  0.102347  0.079922  0  0.978725  0
H  H44  1  0.57980074  0.48335874  0.77935117  1  0  0.052262  0  0.938299  0  0  0.06594  0  1.004551  0  0  0.066385  0  1.004111  0  0  0.102356  0.06546  0  1.005073  0
H  H45  1  0.07980098  0.01664248  0.72064780  1  0  0.052254  0  0.938274  0  0  0.065951  0  1.004533  0  0  0.066403  0  1.004084  0  0  0.102372  0.065469  0  1.005059  0
H  H46  1  0.42019960  0.51664219  0.22064885  1  0  0.052244  0  0.938287  0  0  0.065934  0  1.004541  0  0  0.066386  0  1.004094  0  0  0.102357  0.065455  0  1.005063  0
H  H47  1  0.92019935  0.98335753  0.27935072  1  0  0.052252  0  0.938331  0  0  0.065942  0  1.004593  0  0  0.066396  0  1.004144  0  0  0.102362  0.065461  0  1.005121  0
H  H48  1  0.59219925  0.61785217  0.85713658  1  0  0.068989  0  0.930311  0  0  0.083634  0  0.991858  0  0  0.084293  0  0.990705  0  0  0.110006  0.083051  0  0.992783  0
H  H49  1  0.09220068  0.88214923  0.64286249  1  0  0.06898  0  0.930359  0  0  0.083635  0  0.991923  0  0  0.084288  0  0.990778  0  0  0.110019  0.083053  0  0.992847  0
H  H50  1  0.40780109  0.38214875  0.14286343  1  0  0.068986  0  0.930348  0  0  0.083637  0  0.991902  0  0  0.08429  0  0.990758  0  0  0.110017  0.083056  0  0.992826  0
H  H51  1  0.90779966  0.11785077  0.35713603  1  0  0.068973  0  0.930341  0  0  0.083653  0  0.991877  0  0  0.084311  0  0.990724  0  0  0.110005  0.083067  0  0.9928  0
H  H52  1  0.59423019  0.77173449  0.73484752  1  0  0.080141  0  0.9495  0  0  0.091669  0  1.022527  0  0  0.093914  0  1.020263  0  0  0.102549  0.08996  0  1.024231  0
H  H53  1  0.09422908  0.72826600  0.76515154  1  0  0.080153  0  0.949482  0  0  0.091677  0  1.022521  0  0  0.093924  0  1.020256  0  0  0.102545  0.089968  0  1.024225  0
H  H54  1  0.40577015  0.22826644  0.26515250  1  0  0.08015  0  0.949496  0  0  0.091676  0  1.022526  0  0  0.093922  0  1.020261  0  0  0.102554  0.089968  0  1.024229  0
H  H55  1  0.90576986  0.27173309  0.23484771  1  0  0.080175  0  0.949503  0  0  0.0917  0  1.022535  0  0  0.093944  0  1.020271  0  0  0.102561  0.089992  0  1.024238  0
H  H56  1  0.51887137  0.65218960  0.65139069  1  0  0.092064  0  0.946476  0  0  0.108735  0  1.009637  0  0  0.109991  0  1.009097  0  0  0.098286  0.107744  0  1.010088  0
H  H57  1  0.01887180  0.84781090  0.84860832  1  0  0.092052  0  0.946486  0  0  0.108736  0  1.009623  0  0  0.109994  0  1.009083  0  0  0.098286  0.107746  0  1.010074  0
H  H58  1  0.48112897  0.34781041  0.34860857  1  0  0.092065  0  0.946487  0  0  0.108734  0  1.009647  0  0  0.109992  0  1.009107  0  0  0.098287  0.107746  0  1.010096  0
H  H59  1  0.98112714  0.15218911  0.15139094  1  0  0.092063  0  0.946496  0  0  0.108727  0  1.009657  0  0  0.109984  0  1.009115  0  0  0.09829  0.10774  0  1.010105  0
H  H60  1  0.72203250  0.73991896  0.62225792  1  0  0.089624  0  0.941798  0  0  0.105742  0  1.00935  0  0  0.106822  0  1.008046  0  0  0.104338  0.104827  0  1.010427  0
H  H61  1  0.22203300  0.76008153  0.87774195  1  0  0.089623  0  0.941817  0  0  0.105742  0  1.009364  0  0  0.106821  0  1.008061  0  0  0.104342  0.104826  0  1.010441  0
H  H62  1  0.27796784  0.26008196  0.37774210  1  0  0.089635  0  0.941799  0  0  0.105757  0  1.009346  0  0  0.106835  0  1.008045  0  0  0.104349  0.104843  0  1.010422  0
H  H63  1  0.77796734  0.23991848  0.12225806  1  0  0.089634  0  0.941818  0  0  0.105752  0  1.009366  0  0  0.106829  0  1.008066  0  0  0.10434  0.104838  0  1.010442  0
C  C64  1  0.35062334  0.40326248  0.59727074  1  0  -0.076821  0  3.639687  0  0  -0.16923  0  3.909784  0  0  -0.163996  0  3.913554  0  0  -0.136664  -0.172524  0  3.907214  0
C  C65  1  0.85062339  0.09673781  0.90272836  1  0  -0.076742  0  3.639621  0  0  -0.169146  0  3.909699  0  0  -0.163916  0  3.913469  0  0  -0.136642  -0.17244  0  3.90713  0
C  C66  1  0.64937700  0.59673753  0.40272853  1  0  -0.076826  0  3.639673  0  0  -0.169229  0  3.909771  0  0  -0.163999  0  3.913541  0  0  -0.136667  -0.172523  0  3.907201  0
C  C67  1  0.14937556  0.90326128  0.09727089  1  0  -0.076761  0  3.639603  0  0  -0.169154  0  3.909669  0  0  -0.163921  0  3.913443  0  0  -0.136667  -0.172448  0  3.907095  0
C  C68  1  0.23483171  0.34865112  0.75538413  1  0  0.052985  0  3.657391  0  0  -0.00549  0  3.934573  0  0  0.000925  0  3.939028  0  0  -0.069087  -0.009785  0  3.931525  0
C  C69  1  0.73483146  0.15134917  0.74461491  1  0  0.053006  0  3.657321  0  0  -0.005434  0  3.934476  0  0  0.00096  0  3.938955  0  0  -0.069084  -0.00973  0  3.931427  0
C  C70  1  0.76516723  0.65134889  0.24461514  1  0  0.052997  0  3.657301  0  0  -0.005466  0  3.934476  0  0  0.000938  0  3.938942  0  0  -0.06908  -0.009761  0  3.931428  0
C  C71  1  0.26516749  0.84864992  0.25538360  1  0  0.052959  0  3.657422  0  0  -0.005521  0  3.934621  0  0  0.000895  0  3.939073  0  0  -0.069101  -0.009816  0  3.931573  0
C  C72  1  0.12210614  0.39904612  0.84131126  1  0  0.055329  0  3.665486  0  0  -0.006627  0  3.940754  0  0  -0.000669  0  3.946764  0  0  -0.068947  -0.010561  0  3.936569  0
C  C73  1  0.62210573  0.10095418  0.65868771  1  0  0.055376  0  3.66547  0  0  -0.00662  0  3.940764  0  0  -0.000649  0  3.946768  0  0  -0.06895  -0.010553  0  3.93658  0
C  C74  1  0.87789420  0.60095388  0.15868800  1  0  0.055379  0  3.665393  0  0  -0.006585  0  3.940656  0  0  -0.00062  0  3.946659  0  0  -0.068927  -0.010519  0  3.93648  0
C  C75  1  0.37789321  0.89904492  0.34131153  1  0  0.055361  0  3.665426  0  0  -0.006601  0  3.9407  0  0  -0.000643  0  3.946709  0  0  -0.068955  -0.010535  0  3.936519  0
C  C76  1  0.82780730  0.49855844  0.87111698  1  0  0.059282  0  3.648906  0  0  -0.005531  0  3.929748  0  0  0.000802  0  3.935088  0  0  -0.068196  -0.00975  0  3.926027  0
C  C77  1  0.32780597  0.00144276  0.62888212  1  0  0.05927  0  3.648859  0  0  -0.005569  0  3.929752  0  0  0.000765  0  3.935098  0  0  -0.068186  -0.009789  0  3.926032  0
C  C78  1  0.17219444  0.50144248  0.12888304  1  0  0.059259  0  3.648919  0  0  -0.005559  0  3.929779  0  0  0.000777  0  3.935118  0  0  -0.068204  -0.009777  0  3.926058  0
C  C79  1  0.67219297  0.99855725  0.37111714  1  0  0.059309  0  3.648836  0  0  -0.005499  0  3.929699  0  0  0.000835  0  3.935042  0  0  -0.068165  -0.009716  0  3.925976  0
C  C80  1  0.67426215  0.55414268  0.81034601  1  0  0.062301  0  3.642874  0  0  0.006807  0  3.910201  0  0  0.012918  0  3.915819  0  0  -0.064791  0.002755  0  3.906351  0
C  C81  1  0.17426227  0.94585781  0.68965235  1  0  0.062363  0  3.642781  0  0  0.006795  0  3.91023  0  0  0.012901  0  3.915854  0  0  -0.06483  0.002742  0  3.906379  0
C  C82  1  0.32573819  0.44585824  0.18965252  1  0  0.06236  0  3.642853  0  0  0.006815  0  3.910237  0  0  0.01292  0  3.915861  0  0  -0.064808  0.002762  0  3.906388  0
C  C83  1  0.82573807  0.05414129  0.31034690  1  0  0.062356  0  3.642796  0  0  0.006786  0  3.910209  0  0  0.012892  0  3.915832  0  0  -0.064795  0.002742  0  3.906346  0
C  C84  1  0.64148036  0.69969917  0.68240550  1  0  -0.073876  0  3.640918  0  0  -0.162782  0  3.905111  0  0  -0.158002  0  3.909379  0  0  -0.13711  -0.165802  0  3.902217  0
C  C85  1  0.14148074  0.80030132  0.81759433  1  0  -0.073868  0  3.640895  0  0  -0.162781  0  3.905107  0  0  -0.157991  0  3.909355  0  0  -0.137094  -0.165802  0  3.902211  0
C  C86  1  0.35851997  0.30030175  0.31759452  1  0  -0.073888  0  3.640925  0  0  -0.162803  0  3.905136  0  0  -0.158012  0  3.909384  0  0  -0.137111  -0.165823  0  3.902239  0
C  C87  1  0.85851960  0.19969869  0.18240568  1  0  -0.07393  0  3.640968  0  0  -0.162826  0  3.905166  0  0  -0.158043  0  3.909438  0  0  -0.137116  -0.165846  0  3.902269  0
O  O88  1  0.23548169  0.43910888  0.67994953  1  0  -0.351192  0  2.322522  0  0  -0.280221  0  2.585917  0  0  -0.294544  0  2.584891  0  0  -0.276597  -0.270156  0  2.586289  0
O  O89  1  0.73548019  0.06089141  0.82004951  1  0  -0.351222  0  2.322515  0  0  -0.280263  0  2.585902  0  0  -0.294581  0  2.584884  0  0  -0.276613  -0.270197  0  2.586272  0
O  O90  1  0.76451865  0.56089113  0.32005048  1  0  -0.351222  0  2.322528  0  0  -0.280254  0  2.585921  0  0  -0.294575  0  2.584901  0  0  -0.276611  -0.270189  0  2.586294  0
O  O91  1  0.26451875  0.93910859  0.17994901  1  0  -0.351183  0  2.322465  0  0  -0.280217  0  2.585857  0  0  -0.29454  0  2.58483  0  0  -0.276582  -0.270151  0  2.58623  0
O  O92  1  0.94231425  0.42978281  0.80292569  1  0  -0.372725  0  2.338885  0  0  -0.30218  0  2.598625  0  0  -0.317961  0  2.60028  0  0  -0.271437  -0.2911  0  2.597098  0
O  O93  1  0.44231444  0.07021838  0.69707347  1  0  -0.372723  0  2.338862  0  0  -0.302151  0  2.598599  0  0  -0.317939  0  2.600259  0  0  -0.271402  -0.291071  0  2.597074  0
O  O94  1  0.05768609  0.57021719  0.19707358  1  0  -0.372723  0  2.338871  0  0  -0.302171  0  2.598607  0  0  -0.317953  0  2.60026  0  0  -0.271424  -0.291093  0  2.597083  0
O  O95  1  0.55768590  0.92978254  0.30292580  1  0  -0.37274  0  2.338892  0  0  -0.302191  0  2.598631  0  0  -0.317974  0  2.600287  0  0  -0.271429  -0.291113  0  2.597107  0
O  O96  1  0.76363184  0.61678256  0.73111590  1  0  -0.348442  0  2.34665  0  0  -0.275826  0  2.607113  0  0  -0.290754  0  2.607636  0  0  -0.280172  -0.265355  0  2.606408  0
O  O97  1  0.26363211  0.88321793  0.76888325  1  0  -0.348491  0  2.346646  0  0  -0.275868  0  2.607144  0  0  -0.290796  0  2.607669  0  0  -0.280204  -0.265396  0  2.606438  0
O  O98  1  0.23636850  0.38321837  0.26888412  1  0  -0.348472  0  2.346656  0  0  -0.27584  0  2.607129  0  0  -0.290768  0  2.607654  0  0  -0.280182  -0.265368  0  2.606425  0
O  O99  1  0.73636823  0.11678208  0.23111602  1  0  -0.348469  0  2.346661  0  0  -0.275856  0  2.607158  0  0  -0.290787  0  2.607683  0  0  -0.280214  -0.265384  0  2.606452  0
F  F100  1  0.01761051  0.62743253  0.56619943  1  0  -0.554458  0  1.058607  0  0  -0.498388  0  1.254178  0  0  -0.511001  0  1.22994  0  0  -0.171573  -0.48937  0  1.27098  0
F  F101  1  0.51761755  0.87256798  0.93380181  1  0  -0.55439  0  1.058613  0  0  -0.498324  0  1.254208  0  0  -0.510924  0  1.229959  0  0  -0.17156  -0.489308  0  1.271003  0
F  F102  1  0.98239123  0.37256841  0.43380281  1  0  -0.554446  0  1.058624  0  0  -0.498393  0  1.25421  0  0  -0.510998  0  1.229964  0  0  -0.171586  -0.489372  0  1.271011  0
F  F103  1  0.48239116  0.12743203  0.06619745  1  0  -0.554434  0  1.058599  0  0  -0.498372  0  1.254169  0  0  -0.510983  0  1.229931  0  0  -0.171575  -0.489352  0  1.270969  0
F  F104  1  0.15702306  0.61559366  0.41074592  1  0  -0.552574  0  1.048759  0  0  -0.494902  0  1.240182  0  0  -0.507732  0  1.216796  0  0  -0.180411  -0.485902  0  1.256521  0
F  F105  1  0.65702248  0.88440701  0.08925946  1  0  -0.552615  0  1.048781  0  0  -0.494888  0  1.240195  0  0  -0.507706  0  1.216795  0  0  -0.180437  -0.485892  0  1.25653  0
F  F106  1  0.84297309  0.38440545  0.58925704  1  0  -0.552592  0  1.048756  0  0  -0.494918  0  1.240196  0  0  -0.507738  0  1.216798  0  0  -0.180427  -0.485917  0  1.256534  0
F  F107  1  0.34297646  0.11559393  0.91074278  1  0  -0.552627  0  1.048742  0  0  -0.494939  0  1.240156  0  0  -0.507758  0  1.216761  0  0  -0.18045  -0.485937  0  1.256494  0
F  F108  1  0.29622384  0.72689870  0.53718546  1  0  -0.510955  0  1.042185  0  0  -0.44843  0  1.22059  0  0  -0.463899  0  1.200524  0  0  -0.130226  -0.437369  0  1.234407  0
F  F109  1  0.79622119  0.77309907  0.96282404  1  0  -0.510876  0  1.042169  0  0  -0.448368  0  1.220625  0  0  -0.463836  0  1.200561  0  0  -0.130207  -0.437316  0  1.234439  0
F  F110  1  0.70377789  0.27310223  0.46281530  1  0  -0.51093  0  1.0422  0  0  -0.448383  0  1.220576  0  0  -0.463851  0  1.200506  0  0  -0.130213  -0.437345  0  1.234427  0
F  F111  1  0.20377915  0.22689731  0.03718332  1  0  -0.51093  0  1.042186  0  0  -0.448395  0  1.220572  0  0  -0.463865  0  1.200508  0  0  -0.130207  -0.437356  0  1.234418  0
F  F112  1  0.02172833  0.79684657  0.46697459  1  0  -0.516727  0  0.988343  0  0  -0.45737  0  1.160622  0  0  -0.471166  0  1.139198  0  0  -0.148242  -0.44747  0  1.175426  0
F  F113  1  0.52171791  0.70315592  0.03303001  1  0  -0.516756  0  0.988382  0  0  -0.457394  0  1.160686  0  0  -0.47124  0  1.139306  0  0  -0.148284  -0.447492  0  1.175473  0
F  F114  1  0.97827480  0.20315436  0.53302766  1  0  -0.516708  0  0.98834  0  0  -0.457373  0  1.160629  0  0  -0.471209  0  1.139239  0  0  -0.148266  -0.447468  0  1.175429  0
F  F115  1  0.47827685  0.29684501  0.96697149  1  0  -0.516742  0  0.98834  0  0  -0.457397  0  1.160626  0  0  -0.471193  0  1.139205  0  0  -0.148276  -0.447492  0  1.175423  0
