# generated using pymatgen
data_CdH10C6(SN6)2
_symmetry_space_group_name_H-M   'P 1'
_cell_length_a   9.54179186
_cell_length_b   9.47566334
_cell_length_c   15.72946509
_cell_angle_alpha   90.00017083
_cell_angle_beta   90.00016125
_cell_angle_gamma   89.99994723
_symmetry_Int_Tables_number   1
_chemical_formula_structural   CdH10C6(SN6)2
_chemical_formula_sum   'Cd4 H40 C24 S8 N48'
_cell_volume   1422.17655559
_cell_formula_units_Z   4
loop_
 _symmetry_equiv_pos_site_id
 _symmetry_equiv_pos_as_xyz
  1  'x, y, z'
loop_
 _atom_site_type_symbol
 _atom_site_label
 _atom_site_symmetry_multiplicity
 _atom_site_fract_x
 _atom_site_fract_y
 _atom_site_fract_z
 _atom_site_occupancy
 _atom_site_hle17_bader_spin_density
 _atom_site_hle17_ddec_charge
 _atom_site_hle17_ddec_spin_density
 _atom_site_hle17_ddec_sum_bond_order
 _atom_site_hle17_magmom
 _atom_site_hse06_10hf_bader_spin_density
 _atom_site_hse06_10hf_ddec_charge
 _atom_site_hse06_10hf_ddec_spin_density
 _atom_site_hse06_10hf_ddec_sum_bond_order
 _atom_site_hse06_10hf_magmom
 _atom_site_hse06_bader_spin_density
 _atom_site_hse06_ddec_charge
 _atom_site_hse06_ddec_spin_density
 _atom_site_hse06_ddec_sum_bond_order
 _atom_site_hse06_magmom
 _atom_site_pbe_bader_spin_density
 _atom_site_pbe_cm5_charge
 _atom_site_pbe_ddec_charge
 _atom_site_pbe_ddec_spin_density
 _atom_site_pbe_ddec_sum_bond_order
 _atom_site_pbe_magmom
Cd  Cd0  1  0.28604319  0.50000049  0.75000013  1  0  1.06649  0  1.862479  0  0  0.871834  0  2.324104  0  0  0.917  0  2.28379  0  0  0.814753  0.837747  0  2.3527  0
Cd  Cd1  1  0.78604279  0.00000044  0.74999947  1  0  1.06645  0  1.862454  0  0  0.871783  0  2.324072  0  0  0.916949  0  2.28376  0  0  0.81473  0.837696  0  2.352667  0
Cd  Cd2  1  0.71395640  0.50000011  0.25000193  1  0  1.066441  0  1.86251  0  0  0.871774  0  2.324136  0  0  0.916938  0  2.283826  0  0  0.814744  0.837687  0  2.352736  0
Cd  Cd3  1  0.21395725  0.00000052  0.24999915  1  0  1.066451  0  1.862495  0  0  0.871817  0  2.324123  0  0  0.916981  0  2.283811  0  0  0.814764  0.837729  0  2.352721  0
H  H4  1  0.14920134  0.99938781  0.55815033  1  0  0.331147  0  0.893193  0  0  0.31542  0  0.956028  0  0  0.321281  0  0.951994  0  0  0.305211  0.311498  0  0.958568  0
H  H5  1  0.64920199  0.50061089  0.55814967  1  0  0.331117  0  0.89318  0  0  0.3154  0  0.955992  0  0  0.321262  0  0.951958  0  0  0.305197  0.311478  0  0.958534  0
H  H6  1  0.85079690  0.99938519  0.05815108  1  0  0.33113  0  0.893135  0  0  0.31541  0  0.955957  0  0  0.321271  0  0.951922  0  0  0.30518  0.311488  0  0.958498  0
H  H7  1  0.35079775  0.50061401  0.05815085  1  0  0.331138  0  0.893122  0  0  0.315412  0  0.95596  0  0  0.321274  0  0.951925  0  0  0.305188  0.31149  0  0.958501  0
H  H8  1  0.85079930  0.00061068  0.44185046  1  0  0.331135  0  0.893148  0  0  0.315419  0  0.955975  0  0  0.32128  0  0.951941  0  0  0.305217  0.311496  0  0.958517  0
H  H9  1  0.35079865  0.49938866  0.44185048  1  0  0.331095  0  0.893191  0  0  0.315377  0  0.956015  0  0  0.321239  0  0.951982  0  0  0.3052  0.311456  0  0.958557  0
H  H10  1  0.14920164  0.00061541  0.94184970  1  0  0.331154  0  0.893133  0  0  0.315404  0  0.955972  0  0  0.321266  0  0.951936  0  0  0.305183  0.311481  0  0.958513  0
H  H11  1  0.64920184  0.49938659  0.94184930  1  0  0.331146  0  0.893124  0  0  0.315425  0  0.955948  0  0  0.321287  0  0.951913  0  0  0.305188  0.311503  0  0.95849  0
H  H12  1  0.99099554  0.05439722  0.60039893  1  0  0.335032  0  0.928486  0  0  0.312291  0  1.004153  0  0  0.319418  0  0.998273  0  0  0.293273  0.307286  0  1.008312  0
H  H13  1  0.49099598  0.44560278  0.60039886  1  0  0.334994  0  0.928458  0  0  0.312237  0  1.004137  0  0  0.319365  0  0.998257  0  0  0.293264  0.307235  0  1.008287  0
H  H14  1  0.00900376  0.05439433  0.10039953  1  0  0.334988  0  0.928482  0  0  0.312234  0  1.004149  0  0  0.319361  0  0.998269  0  0  0.293276  0.307229  0  1.008305  0
H  H15  1  0.50900401  0.44560470  0.10040030  1  0  0.334997  0  0.92851  0  0  0.312251  0  1.004148  0  0  0.319379  0  0.998268  0  0  0.293288  0.307247  0  1.008301  0
H  H16  1  0.00900510  0.94560233  0.39960059  1  0  0.335021  0  0.928496  0  0  0.312291  0  1.004141  0  0  0.319419  0  0.998259  0  0  0.293271  0.307286  0  1.008297  0
H  H17  1  0.50900466  0.55439677  0.39960129  1  0  0.33497  0  0.928477  0  0  0.312216  0  1.004159  0  0  0.319342  0  0.998282  0  0  0.293257  0.307213  0  1.008312  0
H  H18  1  0.99099373  0.94560628  0.89960062  1  0  0.335026  0  0.928498  0  0  0.312268  0  1.004167  0  0  0.319396  0  0.998287  0  0  0.293283  0.307264  0  1.008322  0
H  H19  1  0.49099453  0.55439485  0.89959985  1  0  0.33504  0  0.928455  0  0  0.312296  0  1.004099  0  0  0.319423  0  0.998218  0  0  0.293308  0.307291  0  1.008253  0
H  H20  1  0.86424287  0.71425879  0.83883409  1  0  0.329653  0  0.922617  0  0  0.312145  0  0.987988  0  0  0.318377  0  0.983358  0  0  0.295399  0.307856  0  0.991037  0
H  H21  1  0.36424241  0.78574215  0.83883437  1  0  0.329688  0  0.922549  0  0  0.312134  0  0.987984  0  0  0.318366  0  0.983355  0  0  0.295394  0.307845  0  0.991031  0
H  H22  1  0.13575903  0.71425684  0.33883491  1  0  0.329626  0  0.922645  0  0  0.312119  0  0.988009  0  0  0.318351  0  0.983381  0  0  0.295388  0.30783  0  0.991058  0
H  H23  1  0.63576048  0.78574395  0.33883476  1  0  0.329628  0  0.922627  0  0  0.312119  0  0.987997  0  0  0.31835  0  0.983371  0  0  0.295391  0.307829  0  0.991048  0
H  H24  1  0.13575672  0.28574181  0.16116606  1  0  0.329682  0  0.922567  0  0  0.312127  0  0.988  0  0  0.318359  0  0.983371  0  0  0.295392  0.307837  0  0.99105  0
H  H25  1  0.63575718  0.21425845  0.16116578  1  0  0.329687  0  0.922553  0  0  0.312137  0  0.987985  0  0  0.318369  0  0.983355  0  0  0.295393  0.307847  0  0.991033  0
H  H26  1  0.86424056  0.28574376  0.66116460  1  0  0.32963  0  0.922628  0  0  0.312118  0  0.988003  0  0  0.318349  0  0.983377  0  0  0.295393  0.307829  0  0.99105  0
H  H27  1  0.36424016  0.21425665  0.66116475  1  0  0.329665  0  0.922542  0  0  0.312106  0  0.987972  0  0  0.318338  0  0.983344  0  0  0.295406  0.307817  0  0.991015  0
H  H28  1  0.96651302  0.56518631  0.83033725  1  0  0.328199  0  0.892374  0  0  0.311655  0  0.958213  0  0  0.317506  0  0.954127  0  0  0.30331  0.307468  0  0.961225  0
H  H29  1  0.46651242  0.93481449  0.83033716  1  0  0.328181  0  0.89239  0  0  0.311627  0  0.958252  0  0  0.317477  0  0.954167  0  0  0.303306  0.30744  0  0.961263  0
H  H30  1  0.03349108  0.56518340  0.33033853  1  0  0.328208  0  0.892457  0  0  0.311649  0  0.95833  0  0  0.317501  0  0.954246  0  0  0.30333  0.307461  0  0.961344  0
H  H31  1  0.53349029  0.93481639  0.33033802  1  0  0.328211  0  0.892462  0  0  0.311655  0  0.958327  0  0  0.317507  0  0.954242  0  0  0.303341  0.307467  0  0.96134  0
H  H32  1  0.03348657  0.43481429  0.16966353  1  0  0.328184  0  0.892383  0  0  0.311632  0  0.958232  0  0  0.317483  0  0.954149  0  0  0.303308  0.307445  0  0.961246  0
H  H33  1  0.53348717  0.06518611  0.16966299  1  0  0.328196  0  0.892374  0  0  0.311648  0  0.958222  0  0  0.317499  0  0.954136  0  0  0.303317  0.30746  0  0.961236  0
H  H34  1  0.96650956  0.43481615  0.66966162  1  0  0.328203  0  0.89249  0  0  0.311644  0  0.958358  0  0  0.317496  0  0.954274  0  0  0.303335  0.307457  0  0.961369  0
H  H35  1  0.46651035  0.06518421  0.66966150  1  0  0.328221  0  0.892466  0  0  0.311663  0  0.958332  0  0  0.317514  0  0.954248  0  0  0.303338  0.307475  0  0.961343  0
H  H36  1  0.24609008  0.75611205  0.61111830  1  0  0.280588  0  0.947371  0  0  0.254748  0  1.027378  0  0  0.26232  0  1.022307  0  0  0.296603  0.249276  0  1.03129  0
H  H37  1  0.74609051  0.74388787  0.61111871  1  0  0.28049  0  0.947464  0  0  0.254706  0  1.027441  0  0  0.262276  0  1.022371  0  0  0.296591  0.24923  0  1.03135  0
H  H38  1  0.75391072  0.75610952  0.11111889  1  0  0.280557  0  0.947384  0  0  0.254739  0  1.027375  0  0  0.262311  0  1.022305  0  0  0.296608  0.249268  0  1.031288  0
H  H39  1  0.25391240  0.74389109  0.11111846  1  0  0.280559  0  0.947348  0  0  0.254743  0  1.027349  0  0  0.262309  0  1.022281  0  0  0.296608  0.249272  0  1.031262  0
H  H40  1  0.75390951  0.24388644  0.38888121  1  0  0.28051  0  0.947461  0  0  0.254728  0  1.027429  0  0  0.262298  0  1.02236  0  0  0.296598  0.249255  0  1.031339  0
H  H41  1  0.25391012  0.25611167  0.38888144  1  0  0.280528  0  0.947449  0  0  0.25474  0  1.02742  0  0  0.262312  0  1.02235  0  0  0.296594  0.249269  0  1.03133  0
H  H42  1  0.24608887  0.24389213  0.88888189  1  0  0.280558  0  0.947364  0  0  0.254738  0  1.027368  0  0  0.262305  0  1.022301  0  0  0.296596  0.249267  0  1.03128  0
H  H43  1  0.74608824  0.25610952  0.88888169  1  0  0.280558  0  0.947356  0  0  0.254739  0  1.027363  0  0  0.262304  0  1.022297  0  0  0.296603  0.249267  0  1.031276  0
C  C44  1  0.00235421  0.71679915  0.74180845  1  0  0.605682  0  3.851915  0  0  0.553054  0  4.144399  0  0  0.579675  0  4.150024  0  0  0.322217  0.534813  0  4.14062  0
C  C45  1  0.50235251  0.78320165  0.74180766  1  0  0.605675  0  3.852035  0  0  0.553064  0  4.144481  0  0  0.579684  0  4.150109  0  0  0.322235  0.534821  0  4.140702  0
C  C46  1  0.99764933  0.71679639  0.24180819  1  0  0.605699  0  3.851829  0  0  0.553151  0  4.144201  0  0  0.579767  0  4.149837  0  0  0.322225  0.534911  0  4.140429  0
C  C47  1  0.49764992  0.78320358  0.24180846  1  0  0.605687  0  3.85187  0  0  0.553128  0  4.144263  0  0  0.579744  0  4.149898  0  0  0.322228  0.534886  0  4.140487  0
C  C48  1  0.99764642  0.28320040  0.25819233  1  0  0.605557  0  3.852053  0  0  0.552999  0  4.144463  0  0  0.579613  0  4.150099  0  0  0.322144  0.534759  0  4.140686  0
C  C49  1  0.49764708  0.21679895  0.25819121  1  0  0.605604  0  3.852033  0  0  0.553029  0  4.144438  0  0  0.579643  0  4.150072  0  0  0.322224  0.534788  0  4.140661  0
C  C50  1  0.00235026  0.28320421  0.75819196  1  0  0.605773  0  3.851793  0  0  0.553216  0  4.144181  0  0  0.579835  0  4.14981  0  0  0.322256  0.534974  0  4.140405  0
C  C51  1  0.50235071  0.21679596  0.75819233  1  0  0.605806  0  3.851678  0  0  0.553251  0  4.144058  0  0  0.579869  0  4.149689  0  0  0.322283  0.535009  0  4.140281  0
C  C52  1  0.06919882  0.87568698  0.65209613  1  0  0.635528  0  3.824708  0  0  0.576642  0  4.108596  0  0  0.604723  0  4.112136  0  0  0.340526  0.557578  0  4.106122  0
C  C53  1  0.56920146  0.62431015  0.65209378  1  0  0.635646  0  3.824457  0  0  0.576619  0  4.108547  0  0  0.604696  0  4.112091  0  0  0.340543  0.557548  0  4.106072  0
C  C54  1  0.93079997  0.87568640  0.15209575  1  0  0.635708  0  3.824431  0  0  0.576736  0  4.10847  0  0  0.604814  0  4.112015  0  0  0.340571  0.557673  0  4.106  0
C  C55  1  0.43080071  0.62431320  0.15209510  1  0  0.635538  0  3.824581  0  0  0.576569  0  4.108628  0  0  0.604639  0  4.112171  0  0  0.340515  0.557506  0  4.106155  0
C  C56  1  0.93080077  0.12431046  0.34790402  1  0  0.635561  0  3.824517  0  0  0.57663  0  4.108522  0  0  0.604708  0  4.112066  0  0  0.340606  0.557565  0  4.10605  0
C  C57  1  0.43080128  0.37568940  0.34790446  1  0  0.635599  0  3.82455  0  0  0.576644  0  4.10855  0  0  0.604724  0  4.112093  0  0  0.340592  0.557581  0  4.106081  0
C  C58  1  0.06919857  0.12431421  0.84790567  1  0  0.635518  0  3.824695  0  0  0.576548  0  4.108718  0  0  0.604622  0  4.112263  0  0  0.340497  0.557486  0  4.10624  0
C  C59  1  0.56919888  0.37568635  0.84790505  1  0  0.635501  0  3.824634  0  0  0.576538  0  4.108668  0  0  0.604608  0  4.112214  0  0  0.340514  0.557476  0  4.106191  0
C  C60  1  0.20205438  0.36404440  0.55766345  1  0  0.29425  0  4.060178  0  0  0.27488  0  4.358937  0  0  0.298422  0  4.370297  0  0  0.136347  0.258776  0  4.351196  0
C  C61  1  0.70205491  0.13595565  0.55766177  1  0  0.29428  0  4.060103  0  0  0.274915  0  4.358859  0  0  0.298456  0  4.370217  0  0  0.136345  0.258812  0  4.351119  0
C  C62  1  0.79794129  0.36404394  0.05766603  1  0  0.294386  0  4.06008  0  0  0.275016  0  4.358824  0  0  0.29856  0  4.370176  0  0  0.136469  0.258911  0  4.351086  0
C  C63  1  0.29794306  0.13596093  0.05766286  1  0  0.294254  0  4.060109  0  0  0.274887  0  4.358867  0  0  0.298429  0  4.370221  0  0  0.136371  0.258784  0  4.351124  0
C  C64  1  0.79795150  0.63595620  0.44233860  1  0  0.294247  0  4.060224  0  0  0.274878  0  4.358989  0  0  0.298419  0  4.370348  0  0  0.13634  0.258774  0  4.351251  0
C  C65  1  0.29794363  0.86404390  0.44233457  1  0  0.294212  0  4.060106  0  0  0.274843  0  4.35886  0  0  0.298386  0  4.370217  0  0  0.136362  0.258741  0  4.351122  0
C  C66  1  0.20205411  0.63595666  0.94233667  1  0  0.294192  0  4.060308  0  0  0.274819  0  4.359073  0  0  0.298362  0  4.370425  0  0  0.136335  0.258717  0  4.351328  0
C  C67  1  0.70205653  0.86403861  0.94233475  1  0  0.294213  0  4.060084  0  0  0.274842  0  4.358854  0  0  0.298385  0  4.370207  0  0  0.136354  0.258739  0  4.35111  0
S  S68  1  0.08742902  0.31865748  0.48732653  1  0  -0.337082  0  2.106885  0  0  -0.320468  0  2.407183  0  0  -0.336202  0  2.404532  0  0  -0.155522  -0.309594  0  2.409172  0
S  S69  1  0.58742846  0.18134338  0.48732429  1  0  -0.337129  0  2.106792  0  0  -0.320546  0  2.407123  0  0  -0.336282  0  2.404472  0  0  -0.155552  -0.309671  0  2.409113  0
S  S70  1  0.91256766  0.31865517  0.98732961  1  0  -0.337178  0  2.106827  0  0  -0.320582  0  2.407124  0  0  -0.336317  0  2.404469  0  0  -0.155603  -0.309705  0  2.409116  0
S  S71  1  0.41256834  0.18134576  0.98732589  1  0  -0.3371  0  2.106874  0  0  -0.320498  0  2.407164  0  0  -0.336234  0  2.404512  0  0  -0.155537  -0.309623  0  2.409154  0
S  S72  1  0.91257581  0.68134417  0.51267425  1  0  -0.337132  0  2.106912  0  0  -0.320544  0  2.407241  0  0  -0.336279  0  2.404589  0  0  -0.155555  -0.309667  0  2.409232  0
S  S73  1  0.41256904  0.81865616  0.51267205  1  0  -0.337073  0  2.106915  0  0  -0.320459  0  2.407193  0  0  -0.336194  0  2.404541  0  0  -0.155527  -0.309582  0  2.409186  0
S  S74  1  0.08743089  0.68134332  0.01267372  1  0  -0.337075  0  2.106916  0  0  -0.320471  0  2.407215  0  0  -0.336205  0  2.404563  0  0  -0.155538  -0.309596  0  2.409204  0
S  S75  1  0.58743125  0.81865274  0.01267172  1  0  -0.337054  0  2.106845  0  0  -0.320454  0  2.407135  0  0  -0.33619  0  2.404483  0  0  -0.155522  -0.30958  0  2.409125  0
N  N76  1  0.11780207  0.66273313  0.70594841  1  0  -0.422725  0  3.015439  0  0  -0.374764  0  3.30628  0  0  -0.394376  0  3.31804  0  0  -0.289113  -0.360584  0  3.298077  0
N  N77  1  0.61780137  0.83726527  0.70594836  1  0  -0.422763  0  3.015446  0  0  -0.374795  0  3.306291  0  0  -0.394416  0  3.318053  0  0  -0.289127  -0.360624  0  3.298082  0
N  N78  1  0.88220135  0.66273048  0.20594986  1  0  -0.422661  0  3.015382  0  0  -0.374718  0  3.306224  0  0  -0.394337  0  3.317989  0  0  -0.289058  -0.360535  0  3.29801  0
N  N79  1  0.38220085  0.83726942  0.20594832  1  0  -0.42276  0  3.01551  0  0  -0.374807  0  3.30634  0  0  -0.394436  0  3.318101  0  0  -0.289128  -0.360628  0  3.29814  0
N  N80  1  0.88219961  0.33726642  0.29405174  1  0  -0.422719  0  3.015524  0  0  -0.374777  0  3.306369  0  0  -0.394394  0  3.318133  0  0  -0.289094  -0.360596  0  3.298155  0
N  N81  1  0.38219717  0.16273322  0.29405116  1  0  -0.422683  0  3.015491  0  0  -0.37474  0  3.306348  0  0  -0.394358  0  3.318114  0  0  -0.289096  -0.360553  0  3.298129  0
N  N82  1  0.11779823  0.33727117  0.79405156  1  0  -0.422768  0  3.015385  0  0  -0.374832  0  3.306233  0  0  -0.39446  0  3.317992  0  0  -0.289096  -0.360655  0  3.298033  0
N  N83  1  0.61779874  0.16273013  0.79405183  1  0  -0.422794  0  3.015461  0  0  -0.374846  0  3.306312  0  0  -0.394473  0  3.318068  0  0  -0.289127  -0.360666  0  3.298111  0
N  N84  1  0.15803123  0.76610304  0.64839350  1  0  -0.291906  0  3.414609  0  0  -0.233555  0  3.653176  0  0  -0.249076  0  3.665778  0  0  -0.304155  -0.22347  0  3.644954  0
N  N85  1  0.65803272  0.73389926  0.64839326  1  0  -0.291793  0  3.414523  0  0  -0.233472  0  3.653109  0  0  -0.24898  0  3.665701  0  0  -0.304145  -0.223364  0  3.644872  0
N  N86  1  0.84196764  0.76609727  0.14839424  1  0  -0.292003  0  3.41452  0  0  -0.233675  0  3.653165  0  0  -0.249181  0  3.665747  0  0  -0.304237  -0.223589  0  3.644948  0
N  N87  1  0.34197037  0.73390239  0.14839379  1  0  -0.291793  0  3.414488  0  0  -0.233483  0  3.653148  0  0  -0.248967  0  3.665716  0  0  -0.30415  -0.2234  0  3.644928  0
N  N88  1  0.84196731  0.23389756  0.35160601  1  0  -0.291835  0  3.414654  0  0  -0.233516  0  3.65319  0  0  -0.249026  0  3.665783  0  0  -0.304169  -0.223425  0  3.644978  0
N  N89  1  0.34196792  0.26610134  0.35160626  1  0  -0.291899  0  3.414696  0  0  -0.233574  0  3.653224  0  0  -0.249088  0  3.665817  0  0  -0.304176  -0.223491  0  3.645016  0
N  N90  1  0.15802985  0.23390228  0.85160654  1  0  -0.291813  0  3.414437  0  0  -0.233482  0  3.653082  0  0  -0.248975  0  3.665657  0  0  -0.304156  -0.2234  0  3.64486  0
N  N91  1  0.65802922  0.26609821  0.85160636  1  0  -0.291776  0  3.414501  0  0  -0.233462  0  3.653152  0  0  -0.248947  0  3.665723  0  0  -0.304143  -0.223381  0  3.644933  0
N  N92  1  0.96753024  0.84662805  0.70957307  1  0  -0.624934  0  3.012535  0  0  -0.547995  0  3.286557  0  0  -0.573773  0  3.291059  0  0  -0.372578  -0.529427  0  3.283137  0
N  N93  1  0.46752990  0.65337216  0.70957311  1  0  -0.624974  0  3.012403  0  0  -0.548011  0  3.286495  0  0  -0.573791  0  3.290999  0  0  -0.37257  -0.529441  0  3.283073  0
N  N94  1  0.03247304  0.84662514  0.20957435  1  0  -0.625022  0  3.01241  0  0  -0.548091  0  3.286464  0  0  -0.573873  0  3.290974  0  0  -0.372581  -0.529516  0  3.283028  0
N  N95  1  0.53247251  0.65337511  0.20957460  1  0  -0.625029  0  3.012431  0  0  -0.548072  0  3.286462  0  0  -0.573854  0  3.290973  0  0  -0.372573  -0.529499  0  3.283035  0
N  N96  1  0.03247145  0.15337150  0.29042581  1  0  -0.624811  0  3.012376  0  0  -0.547978  0  3.286532  0  0  -0.573756  0  3.291041  0  0  -0.37257  -0.529409  0  3.283111  0
N  N97  1  0.53246969  0.34662845  0.29042640  1  0  -0.624935  0  3.012548  0  0  -0.548015  0  3.286615  0  0  -0.573792  0  3.291122  0  0  -0.372597  -0.529445  0  3.283193  0
N  N98  1  0.96752655  0.15337652  0.79042644  1  0  -0.62505  0  3.01251  0  0  -0.548115  0  3.286563  0  0  -0.573899  0  3.291074  0  0  -0.372613  -0.529541  0  3.283134  0
N  N99  1  0.46752708  0.34662444  0.79042619  1  0  -0.625041  0  3.012481  0  0  -0.548124  0  3.286561  0  0  -0.57391  0  3.291074  0  0  -0.372614  -0.529551  0  3.283134  0
N  N100  1  0.08099414  0.99668420  0.60756708  1  0  -0.694722  0  3.070503  0  0  -0.662914  0  3.309279  0  0  -0.681598  0  3.304182  0  0  -0.581296  -0.650118  0  3.312678  0
N  N101  1  0.58099479  0.50331798  0.60756897  1  0  -0.694685  0  3.070477  0  0  -0.662799  0  3.309345  0  0  -0.68148  0  3.304247  0  0  -0.58126  -0.650006  0  3.312744  0
N  N102  1  0.91900538  0.99667940  0.10756922  1  0  -0.694682  0  3.070403  0  0  -0.662815  0  3.309257  0  0  -0.681498  0  3.304163  0  0  -0.581257  -0.650021  0  3.312654  0
N  N103  1  0.41900623  0.50331998  0.10757026  1  0  -0.694655  0  3.070531  0  0  -0.662787  0  3.309383  0  0  -0.681469  0  3.304292  0  0  -0.581272  -0.649992  0  3.31278  0
N  N104  1  0.91900545  0.00331535  0.39243053  1  0  -0.69471  0  3.070506  0  0  -0.66288  0  3.309284  0  0  -0.681563  0  3.304187  0  0  -0.581311  -0.650084  0  3.312684  0
N  N105  1  0.41900375  0.49668368  0.39243118  1  0  -0.694628  0  3.070449  0  0  -0.662788  0  3.309299  0  0  -0.681469  0  3.304202  0  0  -0.581302  -0.649994  0  3.312697  0
N  N106  1  0.08099211  0.00332120  0.89243093  1  0  -0.694685  0  3.070556  0  0  -0.662766  0  3.309429  0  0  -0.681449  0  3.304335  0  0  -0.58123  -0.64997  0  3.312825  0
N  N107  1  0.58099231  0.49667957  0.89243052  1  0  -0.694701  0  3.070458  0  0  -0.662831  0  3.309293  0  0  -0.681514  0  3.3042  0  0  -0.581284  -0.650037  0  3.31269  0
N  N108  1  0.92315732  0.64998032  0.80086713  1  0  -0.686457  0  3.057314  0  0  -0.65635  0  3.294986  0  0  -0.674224  0  3.290248  0  0  -0.586988  -0.643362  0  3.298044  0
N  N109  1  0.42315680  0.85002038  0.80086688  1  0  -0.686474  0  3.057303  0  0  -0.656325  0  3.295004  0  0  -0.674195  0  3.290258  0  0  -0.586984  -0.643336  0  3.298061  0
N  N110  1  0.07684761  0.64997631  0.30086848  1  0  -0.6865  0  3.057393  0  0  -0.656407  0  3.295023  0  0  -0.674267  0  3.290256  0  0  -0.587034  -0.64342  0  3.298085  0
N  N111  1  0.57684689  0.85002329  0.30086781  1  0  -0.686466  0  3.057448  0  0  -0.656368  0  3.295075  0  0  -0.674221  0  3.290296  0  0  -0.587025  -0.64338  0  3.298138  0
N  N112  1  0.07684436  0.35002133  0.19913303  1  0  -0.686472  0  3.057292  0  0  -0.65631  0  3.294948  0  0  -0.674175  0  3.290201  0  0  -0.586974  -0.643323  0  3.298009  0
N  N113  1  0.57684383  0.14997917  0.19913390  1  0  -0.686446  0  3.057293  0  0  -0.656313  0  3.294975  0  0  -0.67418  0  3.290234  0  0  -0.586986  -0.643325  0  3.298035  0
N  N114  1  0.92315303  0.35002429  0.69913167  1  0  -0.686499  0  3.057448  0  0  -0.656398  0  3.295075  0  0  -0.674252  0  3.290297  0  0  -0.587033  -0.64341  0  3.298135  0
N  N115  1  0.42315374  0.14997731  0.69913171  1  0  -0.686576  0  3.05731  0  0  -0.656423  0  3.295007  0  0  -0.674276  0  3.290227  0  0  -0.587065  -0.64344  0  3.298079  0
N  N116  1  0.28730367  0.39772340  0.60948287  1  0  -0.615463  0  2.895442  0  0  -0.550642  0  3.158924  0  0  -0.57092  0  3.162858  0  0  -0.410613  -0.53681  0  3.1567  0
N  N117  1  0.78730424  0.10227789  0.60948048  1  0  -0.615447  0  2.895454  0  0  -0.550636  0  3.158942  0  0  -0.570911  0  3.162876  0  0  -0.410579  -0.536798  0  3.15671  0
N  N118  1  0.71269221  0.39772196  0.10948529  1  0  -0.615534  0  2.89547  0  0  -0.550719  0  3.15895  0  0  -0.570995  0  3.162881  0  0  -0.410652  -0.536888  0  3.156729  0
N  N119  1  0.21269506  0.10228219  0.10948270  1  0  -0.615461  0  2.895375  0  0  -0.550649  0  3.158872  0  0  -0.57092  0  3.1628  0  0  -0.410633  -0.536818  0  3.15665  0
N  N120  1  0.71270116  0.60227931  0.39051983  1  0  -0.615398  0  2.895466  0  0  -0.550584  0  3.158955  0  0  -0.570859  0  3.162889  0  0  -0.41057  -0.536753  0  3.156735  0
N  N121  1  0.21269431  0.89772060  0.39051522  1  0  -0.615434  0  2.895343  0  0  -0.55063  0  3.158842  0  0  -0.570907  0  3.162773  0  0  -0.410624  -0.5368  0  3.156621  0
N  N122  1  0.28730109  0.60227969  0.89051740  1  0  -0.615435  0  2.895498  0  0  -0.550623  0  3.158999  0  0  -0.570896  0  3.162923  0  0  -0.410606  -0.536792  0  3.156773  0
N  N123  1  0.78730558  0.89771735  0.89051554  1  0  -0.615449  0  2.895381  0  0  -0.550643  0  3.158883  0  0  -0.570916  0  3.162812  0  0  -0.410618  -0.536811  0  3.156659  0
