# generated using pymatgen
data_AlH8C4Br3O2
_symmetry_space_group_name_H-M   'P 1'
_cell_length_a   6.62611228
_cell_length_b   6.62585007
_cell_length_c   12.54073388
_cell_angle_alpha   92.23527281
_cell_angle_beta   103.07720387
_cell_angle_gamma   119.89076241
_symmetry_Int_Tables_number   1
_chemical_formula_structural   AlH8C4Br3O2
_chemical_formula_sum   'Al2 H16 C8 Br6 O4'
_cell_volume   457.39455972
_cell_formula_units_Z   2
loop_
 _symmetry_equiv_pos_site_id
 _symmetry_equiv_pos_as_xyz
  1  'x, y, z'
loop_
 _atom_site_type_symbol
 _atom_site_label
 _atom_site_symmetry_multiplicity
 _atom_site_fract_x
 _atom_site_fract_y
 _atom_site_fract_z
 _atom_site_occupancy
 _atom_site_hle17_bader_spin_density
 _atom_site_hle17_ddec_charge
 _atom_site_hle17_ddec_spin_density
 _atom_site_hle17_ddec_sum_bond_order
 _atom_site_hle17_magmom
 _atom_site_hse06_10hf_bader_spin_density
 _atom_site_hse06_10hf_ddec_charge
 _atom_site_hse06_10hf_ddec_spin_density
 _atom_site_hse06_10hf_ddec_sum_bond_order
 _atom_site_hse06_10hf_magmom
 _atom_site_hse06_bader_spin_density
 _atom_site_hse06_ddec_charge
 _atom_site_hse06_ddec_spin_density
 _atom_site_hse06_ddec_sum_bond_order
 _atom_site_hse06_magmom
 _atom_site_pbe_bader_spin_density
 _atom_site_pbe_cm5_charge
 _atom_site_pbe_ddec_charge
 _atom_site_pbe_ddec_spin_density
 _atom_site_pbe_ddec_sum_bond_order
 _atom_site_pbe_magmom
Al  Al0  1  0.54644392  0.29654744  0.25008690  1  0  1.160462  0  2.773748  0  0  1.083117  0  3.041306  0  0  1.122226  0  3.003567  0  0  0.135421  1.054573  0  3.068302  0
Al  Al1  1  0.45354329  0.70345601  0.74990808  1  0  1.160474  0  2.773918  0  0  1.08325  0  3.041203  0  0  1.122368  0  3.003451  0  0  0.135438  1.054705  0  3.068202  0
H  H2  1  0.68763908  0.42344968  0.03509713  1  0  0.08193  0  0.954043  0  0  0.092998  0  1.021667  0  0  0.093658  0  1.021191  0  0  0.102863  0.092333  0  1.022246  0
H  H3  1  0.88830525  0.65259425  0.46493415  1  0  0.082216  0  0.954222  0  0  0.09382  0  1.02153  0  0  0.094564  0  1.021043  0  0  0.103311  0.093206  0  1.021963  0
H  H4  1  0.31238843  0.57655382  0.96490504  1  0  0.081959  0  0.953946  0  0  0.092993  0  1.021656  0  0  0.093663  0  1.021171  0  0  0.102844  0.092328  0  1.022236  0
H  H5  1  0.11171358  0.34741617  0.53507751  1  0  0.082361  0  0.954216  0  0  0.093964  0  1.021469  0  0  0.094708  0  1.02098  0  0  0.103371  0.093351  0  1.021904  0
H  H6  1  0.37470635  0.20743747  0.96543266  1  0  0.075882  0  0.933248  0  0  0.081866  0  1.008916  0  0  0.0833  0  1.007414  0  0  0.098425  0.080631  0  1.010283  0
H  H7  1  0.74192959  0.40956451  0.53469472  1  0  0.076472  0  0.933471  0  0  0.082933  0  1.008617  0  0  0.084432  0  1.007103  0  0  0.098657  0.081668  0  1.010016  0
H  H8  1  0.62530816  0.79256778  0.03456721  1  0  0.075772  0  0.933309  0  0  0.081811  0  1.008981  0  0  0.083245  0  1.007483  0  0  0.098396  0.080572  0  1.010346  0
H  H9  1  0.25808511  0.59043523  0.46532099  1  0  0.076521  0  0.933655  0  0  0.082999  0  1.008755  0  0  0.084494  0  1.007252  0  0  0.098692  0.081737  0  1.010155  0
H  H10  1  0.18516586  0.84452187  0.02994733  1  0  0.075465  0  0.94996  0  0  0.085605  0  1.020145  0  0  0.086876  0  1.018941  0  0  0.092318  0.084533  0  1.021292  0
H  H11  1  0.31483700  0.15506880  0.47002787  1  0  0.076048  0  0.949507  0  0  0.085818  0  1.019696  0  0  0.087154  0  1.01838  0  0  0.09201  0.084653  0  1.021011  0
H  H12  1  0.81484249  0.15548349  0.97004303  1  0  0.075432  0  0.949993  0  0  0.085559  0  1.020218  0  0  0.086833  0  1.019013  0  0  0.092314  0.084488  0  1.021364  0
H  H13  1  0.68515663  0.84492924  0.52997732  1  0  0.076094  0  0.949296  0  0  0.085828  0  1.019511  0  0  0.087161  0  1.018191  0  0  0.092013  0.084662  0  1.020828  0
H  H14  1  0.35833584  0.79076078  0.14520065  1  0  0.08655  0  0.968401  0  0  0.094804  0  1.040173  0  0  0.095733  0  1.03962  0  0  0.098952  0.093981  0  1.040774  0
H  H15  1  0.14545395  0.21263355  0.35481720  1  0  0.086497  0  0.970144  0  0  0.09504  0  1.040972  0  0  0.096018  0  1.040404  0  0  0.098895  0.094191  0  1.041601  0
H  H16  1  0.64167121  0.20923921  0.85479342  1  0  0.086488  0  0.968313  0  0  0.094789  0  1.040038  0  0  0.09572  0  1.039489  0  0  0.098956  0.093967  0  1.040639  0
H  H17  1  0.85455368  0.78737328  0.64519544  1  0  0.086563  0  0.969992  0  0  0.095036  0  1.040854  0  0  0.096011  0  1.040285  0  0  0.098902  0.094186  0  1.041485  0
C  C18  1  0.55377201  0.23421302  0.00654477  1  0  0.054997  0  3.574491  0  0  -0.006451  0  3.836485  0  0  0.000582  0  3.841051  0  0  -0.071539  -0.011205  0  3.83341  0
C  C19  1  0.72766242  0.54743433  0.49349779  1  0  0.055287  0  3.574268  0  0  -0.008371  0  3.837616  0  0  -0.001422  0  3.842257  0  0  -0.072103  -0.013095  0  3.834556  0
C  C20  1  0.44624555  0.76578343  0.99345206  1  0  0.055333  0  3.574068  0  0  -0.006234  0  3.83627  0  0  0.000787  0  3.840836  0  0  -0.071426  -0.010983  0  3.83319  0
C  C21  1  0.27233116  0.45256360  0.50651615  1  0  0.055044  0  3.574549  0  0  -0.008578  0  3.837853  0  0  -0.001618  0  3.842493  0  0  -0.072116  -0.013292  0  3.834765  0
C  C22  1  0.36393766  0.87015367  0.07018565  1  0  0.049152  0  3.564629  0  0  -0.013033  0  3.824428  0  0  -0.006391  0  3.82896  0  0  -0.076028  -0.017489  0  3.821399  0
C  C23  1  0.29996572  0.29348808  0.42981804  1  0  0.047718  0  3.568135  0  0  -0.013633  0  3.826163  0  0  -0.00703  0  3.830784  0  0  -0.075498  -0.018132  0  3.823169  0
C  C24  1  0.63605381  0.12983744  0.92980795  1  0  0.049308  0  3.564961  0  0  -0.012946  0  3.824751  0  0  -0.006317  0  3.829303  0  0  -0.076019  -0.017404  0  3.821725  0
C  C25  1  0.70002222  0.70649927  0.57019180  1  0  0.047661  0  3.568051  0  0  -0.013526  0  3.826011  0  0  -0.006899  0  3.830599  0  0  -0.075372  -0.018028  0  3.823015  0
Br  Br26  1  0.89542319  0.64488732  0.25018485  1  0  -0.447587  0  1.139951  0  0  -0.427302  0  1.400156  0  0  -0.439389  0  1.380472  0  0  -0.089626  -0.418285  0  1.414405  0
Br  Br27  1  0.10452832  0.35514802  0.74979625  1  0  -0.447649  0  1.14001  0  0  -0.42735  0  1.400083  0  0  -0.439441  0  1.380403  0  0  -0.089626  -0.418336  0  1.414333  0
Br  Br28  1  0.60523749  0.02500361  0.34575378  1  0  -0.426524  0  1.123898  0  0  -0.400999  0  1.386295  0  0  -0.412082  0  1.365729  0  0  -0.085712  -0.39267  0  1.401228  0
Br  Br29  1  0.17903127  0.25930920  0.15441423  1  0  -0.426302  0  1.123773  0  0  -0.400799  0  1.38577  0  0  -0.411889  0  1.365224  0  0  -0.085603  -0.392499  0  1.400523  0
Br  Br30  1  0.39471383  0.97496450  0.65422971  1  0  -0.42649  0  1.123923  0  0  -0.401009  0  1.386286  0  0  -0.41209  0  1.365718  0  0  -0.085698  -0.392682  0  1.40122  0
Br  Br31  1  0.82096457  0.74068720  0.84558161  1  0  -0.42631  0  1.123706  0  0  -0.400851  0  1.385688  0  0  -0.411943  0  1.365145  0  0  -0.085637  -0.392549  0  1.400441  0
O  O32  1  0.53832000  0.12480581  0.10589367  1  0  -0.353966  0  2.41797  0  0  -0.262866  0  2.644591  0  0  -0.283243  0  2.648156  0  0  -0.18213  -0.248452  0  2.641721  0
O  O33  1  0.51885612  0.43241362  0.39412946  1  0  -0.354357  0  2.418961  0  0  -0.262595  0  2.645  0  0  -0.283146  0  2.648894  0  0  -0.182659  -0.247999  0  2.641855  0
O  O34  1  0.46169326  0.87519422  0.89409955  1  0  -0.35412  0  2.418278  0  0  -0.262999  0  2.644955  0  0  -0.283383  0  2.648542  0  0  -0.182201  -0.24858  0  2.642083  0
O  O35  1  0.48115389  0.56757736  0.60587911  1  0  -0.354383  0  2.419172  0  0  -0.262687  0  2.645189  0  0  -0.283249  0  2.649077  0  0  -0.182785  -0.248083  0  2.642041  0
