# generated using pymatgen
data_AgH10C10SN3O8
_symmetry_space_group_name_H-M   'P 1'
_cell_length_a   5.70455237
_cell_length_b   11.25577646
_cell_length_c   12.58337331
_cell_angle_alpha   113.26797653
_cell_angle_beta   89.99035773
_cell_angle_gamma   104.68369601
_symmetry_Int_Tables_number   1
_chemical_formula_structural   AgH10C10SN3O8
_chemical_formula_sum   'Ag2 H20 C20 S2 N6 O16'
_cell_volume   713.45434645
_cell_formula_units_Z   2
loop_
 _symmetry_equiv_pos_site_id
 _symmetry_equiv_pos_as_xyz
  1  'x, y, z'
loop_
 _atom_site_type_symbol
 _atom_site_label
 _atom_site_symmetry_multiplicity
 _atom_site_fract_x
 _atom_site_fract_y
 _atom_site_fract_z
 _atom_site_occupancy
 _atom_site_hle17_bader_spin_density
 _atom_site_hle17_ddec_charge
 _atom_site_hle17_ddec_spin_density
 _atom_site_hle17_ddec_sum_bond_order
 _atom_site_hle17_magmom
 _atom_site_hse06_10hf_bader_spin_density
 _atom_site_hse06_10hf_ddec_charge
 _atom_site_hse06_10hf_ddec_spin_density
 _atom_site_hse06_10hf_ddec_sum_bond_order
 _atom_site_hse06_10hf_magmom
 _atom_site_hse06_bader_spin_density
 _atom_site_hse06_ddec_charge
 _atom_site_hse06_ddec_spin_density
 _atom_site_hse06_ddec_sum_bond_order
 _atom_site_hse06_magmom
 _atom_site_pbe_bader_spin_density
 _atom_site_pbe_cm5_charge
 _atom_site_pbe_ddec_charge
 _atom_site_pbe_ddec_spin_density
 _atom_site_pbe_ddec_sum_bond_order
 _atom_site_pbe_magmom
Ag  Ag0  1  0.41401318  0.47433066  0.29385535  1  0  0.646526  0  1.172049  0  0  0.518382  0  1.589755  0  0  0.553192  0  1.536669  0  0  0.417393  0.493816  0  1.627108  0
Ag  Ag1  1  0.06020725  0.47401959  0.79365949  1  0  0.645741  0  1.172928  0  0  0.517973  0  1.590721  0  0  0.552705  0  1.537667  0  0  0.417398  0.493354  0  1.628305  0
H  H2  1  0.91000174  0.27202396  0.02382960  1  0  0.122203  0  0.977473  0  0  0.122067  0  1.050106  0  0  0.12737  0  1.044559  0  0  0.126247  0.118141  0  1.054335  0
H  H3  1  0.36180330  0.27210849  0.52376927  1  0  0.122508  0  0.977397  0  0  0.122552  0  1.049807  0  0  0.127879  0  1.044224  0  0  0.126382  0.118595  0  1.054069  0
H  H4  1  0.93727108  0.03548279  0.96260565  1  0  0.140958  0  0.92697  0  0  0.148203  0  0.98581  0  0  0.152134  0  0.983307  0  0  0.123466  0.145437  0  0.987657  0
H  H5  1  0.09847900  0.03543647  0.46235422  1  0  0.141549  0  0.926225  0  0  0.147985  0  0.985912  0  0  0.151911  0  0.983397  0  0  0.123504  0.145297  0  0.987595  0
H  H6  1  0.58230563  0.14030208  0.79960211  1  0  0.130152  0  0.971862  0  0  0.133435  0  1.038534  0  0  0.137496  0  1.036146  0  0  0.117933  0.130518  0  1.040343  0
H  H7  1  0.55774830  0.14022275  0.29967834  1  0  0.129898  0  0.971711  0  0  0.133223  0  1.038522  0  0  0.137234  0  1.036176  0  0  0.117916  0.130286  0  1.040384  0
H  H8  1  0.52177334  0.37264809  0.86366459  1  0  0.115777  0  0.957456  0  0  0.114414  0  1.035212  0  0  0.119425  0  1.030325  0  0  0.126629  0.110618  0  1.039202  0
H  H9  1  0.85032842  0.37268753  0.36389580  1  0  0.116074  0  0.956783  0  0  0.11447  0  1.034417  0  0  0.119562  0  1.029461  0  0  0.126527  0.11047  0  1.038608  0
H  H10  1  0.63152056  0.57415547  0.52775246  1  0  0.1153  0  0.977806  0  0  0.121554  0  1.044309  0  0  0.126369  0  1.039324  0  0  0.128326  0.11807  0  1.047862  0
H  H11  1  0.94197256  0.57341953  0.02761335  1  0  0.11579  0  0.97675  0  0  0.122069  0  1.042879  0  0  0.126841  0  1.037969  0  0  0.128279  0.118609  0  1.046427  0
H  H12  1  0.81459346  0.72088536  0.73699015  1  0  0.13343  0  0.954188  0  0  0.136389  0  1.020902  0  0  0.140746  0  1.018041  0  0  0.119277  0.133214  0  1.023169  0
H  H13  1  0.90573476  0.72028645  0.23688006  1  0  0.132707  0  0.953863  0  0  0.136211  0  1.020167  0  0  0.140499  0  1.017387  0  0  0.119102  0.13308  0  1.022388  0
H  H14  1  0.44709092  0.89542439  0.60179063  1  0  0.141818  0  0.931365  0  0  0.146547  0  0.993274  0  0  0.150934  0  0.990074  0  0  0.123  0.143263  0  0.995837  0
H  H15  1  0.44984026  0.89569971  0.10161945  1  0  0.142605  0  0.93162  0  0  0.147777  0  0.992937  0  0  0.152166  0  0.989725  0  0  0.123438  0.144636  0  0.995331  0
H  H16  1  0.23581974  0.74467684  0.40104286  1  0  0.12403  0  0.968584  0  0  0.127972  0  1.037304  0  0  0.132015  0  1.033123  0  0  0.131455  0.124859  0  1.040616  0
H  H17  1  0.51004621  0.74473525  0.90088133  1  0  0.123364  0  0.969402  0  0  0.127712  0  1.037686  0  0  0.131649  0  1.033613  0  0  0.131412  0.124779  0  1.040862  0
H  H18  1  0.03550396  0.54906266  0.24186634  1  0  0.408735  0  0.897718  0  0  0.377803  0  0.964934  0  0  0.388517  0  0.94943  0  0  0.287134  0.370145  0  0.976024  0
H  H19  1  0.51355530  0.54897369  0.74171835  1  0  0.408466  0  0.897671  0  0  0.37809  0  0.964365  0  0  0.388773  0  0.948886  0  0  0.287449  0.37048  0  0.975394  0
H  H20  1  0.17507283  0.51584717  0.12449592  1  0  0.408265  0  0.901954  0  0  0.377943  0  0.96551  0  0  0.38798  0  0.951439  0  0  0.28298  0.370738  0  0.975565  0
H  H21  1  0.34051722  0.51593281  0.62452823  1  0  0.408002  0  0.90213  0  0  0.377841  0  0.96544  0  0  0.387924  0  0.951301  0  0  0.283108  0.37091  0  0.975094  0
C  C22  1  0.05162198  0.23545841  0.97291331  1  0  0.020121  0  3.537023  0  0  -0.017099  0  3.797735  0  0  -0.011969  0  3.80812  0  0  0.046231  -0.020424  0  3.791349  0
C  C23  1  0.18364644  0.23546971  0.47284667  1  0  0.018257  0  3.539075  0  0  -0.019605  0  3.800229  0  0  -0.014482  0  3.810533  0  0  0.04506  -0.022986  0  3.793876  0
C  C24  1  0.07042687  0.10564151  0.93829049  1  0  -0.048392  0  3.682563  0  0  -0.075395  0  3.936147  0  0  -0.075901  0  3.95193  0  0  -0.058584  -0.075543  0  3.925949  0
C  C25  1  0.03519938  0.10560453  0.43817209  1  0  -0.048865  0  3.683292  0  0  -0.074933  0  3.936315  0  0  -0.075341  0  3.952114  0  0  -0.058477  -0.074931  0  3.925939  0
C  C26  1  0.25981190  0.06996131  0.87404213  1  0  -0.081068  0  3.718178  0  0  -0.064989  0  3.972625  0  0  -0.067746  0  3.992634  0  0  -0.009564  -0.062798  0  3.959448  0
C  C27  1  0.81013838  0.06991146  0.37394413  1  0  -0.081272  0  3.718689  0  0  -0.064755  0  3.972238  0  0  -0.067717  0  3.99235  0  0  -0.009201  -0.062738  0  3.95896  0
C  C28  1  0.42794052  0.16417217  0.84616787  1  0  -0.073895  0  3.719082  0  0  -0.09943  0  3.97276  0  0  -0.101769  0  3.991568  0  0  -0.068194  -0.098177  0  3.960534  0
C  C29  1  0.73598712  0.16415822  0.34623691  1  0  -0.072408  0  3.720918  0  0  -0.098235  0  3.974335  0  0  -0.100498  0  3.993253  0  0  -0.067575  -0.097071  0  3.962113  0
C  C30  1  0.40078540  0.29213669  0.88121896  1  0  0.028406  0  3.543243  0  0  -0.010031  0  3.80599  0  0  -0.004532  0  3.816575  0  0  0.043445  -0.013783  0  3.799649  0
C  C31  1  0.89093224  0.29217555  0.38137791  1  0  0.027912  0  3.546314  0  0  -0.010013  0  3.808878  0  0  -0.004558  0  3.819313  0  0  0.043119  -0.013493  0  3.802455  0
C  C32  1  0.80895252  0.64829543  0.55212242  1  0  0.015113  0  3.552095  0  0  -0.022877  0  3.804721  0  0  -0.018108  0  3.81594  0  0  0.044599  -0.025924  0  3.797713  0
C  C33  1  0.83922423  0.64782141  0.05199523  1  0  0.013316  0  3.550028  0  0  -0.024267  0  3.802801  0  0  -0.019446  0  3.813874  0  0  0.044523  -0.027456  0  3.795548  0
C  C34  1  0.91320071  0.72892234  0.66515603  1  0  -0.058148  0  3.706567  0  0  -0.078695  0  3.953457  0  0  -0.079257  0  3.9693  0  0  -0.061441  -0.079023  0  3.943735  0
C  C35  1  0.81566911  0.72851823  0.16503406  1  0  -0.05752  0  3.706269  0  0  -0.079049  0  3.953704  0  0  -0.079501  0  3.969407  0  0  -0.061782  -0.079004  0  3.943385  0
C  C36  1  0.14622443  0.81646623  0.68468254  1  0  -0.078045  0  3.703083  0  0  -0.06174  0  3.952608  0  0  -0.064466  0  3.972533  0  0  -0.007555  -0.059751  0  3.939623  0
C  C37  1  0.67078999  0.81634810  0.18451565  1  0  -0.076712  0  3.701868  0  0  -0.060285  0  3.95182  0  0  -0.062919  0  3.971484  0  0  -0.007135  -0.058253  0  3.93841  0
C  C38  1  0.26753010  0.82604749  0.59066536  1  0  -0.060463  0  3.684601  0  0  -0.080406  0  3.930013  0  0  -0.082143  0  3.947248  0  0  -0.057427  -0.07935  0  3.918481  0
C  C39  1  0.55954420  0.82610400  0.09049486  1  0  -0.062197  0  3.685078  0  0  -0.082674  0  3.930785  0  0  -0.084376  0  3.947845  0  0  -0.058374  -0.081611  0  3.919275  0
C  C40  1  0.15546565  0.74437813  0.47909437  1  0  0.021102  0  3.545651  0  0  -0.019909  0  3.807728  0  0  -0.014117  0  3.818009  0  0  0.045821  -0.023496  0  3.800744  0
C  C41  1  0.58984932  0.74436120  0.97893714  1  0  0.021481  0  3.545459  0  0  -0.01975  0  3.807685  0  0  -0.013859  0  3.817996  0  0  0.046095  -0.023668  0  3.800999  0
S  S42  1  0.29569297  0.90565442  0.82919652  1  0  1.079576  0  5.217314  0  0  1.006481  0  5.706879  0  0  1.046621  0  5.692083  0  0  0.485925  0.977984  0  5.717752  0
S  S43  1  0.61017603  0.90552338  0.32897224  1  0  1.077936  0  5.217426  0  0  1.004488  0  5.707444  0  0  1.044791  0  5.692445  0  0  0.485224  0.97649  0  5.717433  0
N  N44  1  0.52609922  0.22382391  0.14314694  1  0  0.679645  0  4.157415  0  0  0.727345  0  4.425098  0  0  0.740812  0  4.455451  0  0  0.086214  0.708512  0  4.417992  0
N  N45  1  0.69673501  0.22376373  0.64303996  1  0  0.675341  0  4.162015  0  0  0.725358  0  4.427698  0  0  0.738543  0  4.45794  0  0  0.084897  0.706494  0  4.420628  0
N  N46  1  0.21446897  0.32585595  0.94344569  1  0  0.281791  0  3.698114  0  0  0.332442  0  3.955214  0  0  0.333634  0  3.976932  0  0  -0.110562  0.330836  0  3.940519  0
N  N47  1  0.11101237  0.32590109  0.44351958  1  0  0.282425  0  3.699065  0  0  0.333208  0  3.955975  0  0  0.334465  0  3.97773  0  0  -0.110148  0.331692  0  3.941406  0
N  N48  1  0.93224766  0.65476986  0.46105471  1  0  0.292594  0  3.701789  0  0  0.339539  0  3.962889  0  0  0.341774  0  3.985666  0  0  -0.104812  0.337132  0  3.947825  0
N  N49  1  0.72290639  0.65451714  0.96092625  1  0  0.292681  0  3.700445  0  0  0.3397  0  3.961596  0  0  0.34195  0  3.984334  0  0  -0.105183  0.337683  0  3.946276  0
O  O50  1  0.55257753  0.91484820  0.82038938  1  0  -0.565661  0  1.946636  0  0  -0.520204  0  2.188678  0  0  -0.540847  0  2.180015  0  0  -0.300788  -0.505427  0  2.194315  0
O  O51  1  0.36238903  0.91453629  0.32001340  1  0  -0.564297  0  1.942772  0  0  -0.519486  0  2.185234  0  0  -0.540148  0  2.176548  0  0  -0.301223  -0.504861  0  2.190758  0
O  O52  1  0.16156955  0.84418440  0.90086639  1  0  -0.565758  0  1.937851  0  0  -0.524789  0  2.183651  0  0  -0.543956  0  2.173853  0  0  -0.304672  -0.511277  0  2.190382  0
O  O53  1  0.68284051  0.84412437  0.40068704  1  0  -0.566379  0  1.940885  0  0  -0.524484  0  2.186011  0  0  -0.543619  0  2.176116  0  0  -0.303815  -0.510901  0  2.192467  0
O  O54  1  0.19380106  0.44974225  0.97650671  1  0  -0.562283  0  1.812453  0  0  -0.512853  0  2.056441  0  0  -0.537517  0  2.052666  0  0  -0.238823  -0.494717  0  2.058764  0
O  O55  1  0.25546187  0.44982634  0.47662753  1  0  -0.561598  0  1.813292  0  0  -0.512249  0  2.057459  0  0  -0.537136  0  2.053807  0  0  -0.238588  -0.49478  0  2.059663  0
O  O56  1  0.83699704  0.57143183  0.35386293  1  0  -0.542866  0  1.899598  0  0  -0.483788  0  2.160892  0  0  -0.512401  0  2.156815  0  0  -0.221299  -0.463866  0  2.164152  0
O  O57  1  0.73469924  0.57117735  0.85371123  1  0  -0.541342  0  1.899883  0  0  -0.483075  0  2.162196  0  0  -0.511513  0  2.157933  0  0  -0.220723  -0.462869  0  2.164787  0
O  O58  1  0.63163789  0.32935970  0.12769870  1  0  -0.494065  0  1.776299  0  0  -0.47683  0  1.993325  0  0  -0.489452  0  1.992302  0  0  -0.207848  -0.464361  0  1.997665  0
O  O59  1  0.69676311  0.32926067  0.62754656  1  0  -0.491918  0  1.778086  0  0  -0.476044  0  1.994895  0  0  -0.488595  0  1.9939  0  0  -0.20722  -0.463526  0  1.999568  0
O  O60  1  0.58050221  0.11559901  0.09096016  1  0  -0.445813  0  1.757641  0  0  -0.4396  0  1.962573  0  0  -0.450986  0  1.966091  0  0  -0.179057  -0.427929  0  1.963862  0
O  O61  1  0.53418940  0.11550569  0.59088161  1  0  -0.445366  0  1.761674  0  0  -0.439601  0  1.965657  0  0  -0.450934  0  1.96928  0  0  -0.178684  -0.427785  0  1.966932  0
O  O62  1  0.36375755  0.23068992  0.21437770  1  0  -0.499483  0  1.790516  0  0  -0.483494  0  2.019978  0  0  -0.498806  0  2.018809  0  0  -0.21519  -0.469032  0  2.024283  0
O  O63  1  0.86587201  0.23067445  0.71431297  1  0  -0.49705  0  1.788784  0  0  -0.48185  0  2.017782  0  0  -0.497036  0  2.016579  0  0  -0.214648  -0.467378  0  2.022109  0
O  O64  1  0.19499850  0.56464306  0.21100923  1  0  -0.82957  0  1.964065  0  0  -0.758267  0  2.178664  0  0  -0.78508  0  2.145646  0  0  -0.590198  -0.738733  0  2.20163  0
O  O65  1  0.36965967  0.56471384  0.71104661  1  0  -0.829163  0  1.964688  0  0  -0.758422  0  2.178609  0  0  -0.78518  0  2.145568  0  0  -0.590715  -0.739214  0  2.20144  0
