# generated using pymatgen
data_Zn4H6C24S5(BrO8)2
_symmetry_space_group_name_H-M   'P 1'
_cell_length_a   19.61656979
_cell_length_b   19.67819500
_cell_length_c   33.27103332
_cell_angle_alpha   79.23364220
_cell_angle_beta   79.43617903
_cell_angle_gamma   64.03657580
_symmetry_Int_Tables_number   1
_chemical_formula_structural   Zn4H6C24S5(BrO8)2
_chemical_formula_sum   'Zn16 H24 C96 S20 Br8 O64'
_cell_volume   11268.53627015
_cell_formula_units_Z   4
loop_
 _symmetry_equiv_pos_site_id
 _symmetry_equiv_pos_as_xyz
  1  'x, y, z'
loop_
 _atom_site_type_symbol
 _atom_site_label
 _atom_site_symmetry_multiplicity
 _atom_site_fract_x
 _atom_site_fract_y
 _atom_site_fract_z
 _atom_site_occupancy
 _atom_site_pbe_bader_charge
 _atom_site_pbe_bader_spin_density
 _atom_site_pbe_cm5_charge
 _atom_site_pbe_ddec_charge
 _atom_site_pbe_ddec_spin_density
 _atom_site_pbe_ddec_sum_bond_order
 _atom_site_pbe_magmom
Zn  Zn0  1  0.05682447  0.39808490  0.47931361  1  1.320515  0  0.677162  0.979624  0  2.319448  0
Zn  Zn1  1  0.98712818  0.48126156  0.56005095  1  1.323076  0  0.677842  0.97162  0  2.372603  0
Zn  Zn2  1  0.05566866  0.56320778  0.48070501  1  1.322395  0  0.683083  0.979546  0  2.327504  0
Zn  Zn3  1  0.90111251  0.55700850  0.47932069  1  1.322549  0  0.683964  0.983406  0  2.32177  0
Zn  Zn4  1  0.69161829  0.35232235  0.27154088  1  1.322234  0  0.677353  0.974746  0  2.354923  0
Zn  Zn5  1  0.68704761  0.19335794  0.26677672  1  1.321611  0  0.674657  0.968733  0  2.347942  0
Zn  Zn6  1  0.77094289  0.26674455  0.19055948  1  1.318307  0  0.682125  0.978824  0  2.327175  0
Zn  Zn7  1  0.84736147  0.19747593  0.27259821  1  1.31621  0  0.673728  0.965144  0  2.379896  0
Zn  Zn8  1  0.26923868  0.76532878  0.68849054  1  1.319596  0  0.67634  0.965208  0  2.373644  0
Zn  Zn9  1  0.35067119  0.69668731  0.77012943  1  1.320099  0  0.677016  0.974405  0  2.345674  0
Zn  Zn10  1  0.19081978  0.84583505  0.77112845  1  1.317215  0  0.680621  0.975721  0  2.328671  0
Zn  Zn11  1  0.19162795  0.68688735  0.76617633  1  1.316518  0  0.675229  0.973595  0  2.357919  0
Zn  Zn12  1  0.56007631  0.06070077  0.98288749  1  1.319137  0  0.67473  0.965789  0  2.367308  0
Zn  Zn13  1  0.40052633  0.05654322  0.97774771  1  1.313899  0  0.674856  0.963758  0  2.366678  0
Zn  Zn14  1  0.55383566  0.90168339  0.97816096  1  1.318207  0  0.672715  0.968394  0  2.36397  0
Zn  Zn15  1  0.48412034  0.98324071  0.06044054  1  1.313863  0  0.671845  0.965298  0  2.362876  0
H  H16  1  0.95358004  0.25358842  0.35087228  1  0.119782  0  0.115712  0.120985  0  0.983222  0
H  H17  1  0.74180517  0.45458146  0.35389635  1  0.159293  0  0.121793  0.140215  0  0.990986  0
H  H18  1  0.00039901  0.30476052  0.39818410  1  0.124123  0  0.116166  0.12225  0  0.983283  0
H  H19  1  0.09282553  0.59996756  0.69810740  1  0.085369  0  0.116627  0.121999  0  0.98134  0
H  H20  1  0.20398023  0.69982962  0.59703178  1  0.150551  0  0.120581  0.138699  0  0.993142  0
H  H21  1  0.04489838  0.55607272  0.64771385  1  0.08304  0  0.115651  0.121592  0  0.9853  0
H  H22  1  0.46369583  0.23884788  0.34366121  1  0.133109  0  0.121563  0.146812  0  0.970455  0
H  H23  1  0.48253068  0.69883801  0.59978749  1  0.131249  0  0.125036  0.150992  0  0.963833  0
H  H24  1  0.20546421  0.97746328  0.60257753  1  0.132042  0  0.123209  0.149289  0  0.968353  0
H  H25  1  0.94873706  0.97088935  0.34534358  1  0.13637  0  0.122567  0.148035  0  0.968045  0
H  H26  1  0.55513498  0.04816300  0.15326323  1  0.129471  0  0.11629  0.121885  0  0.982253  0
H  H27  1  0.65101483  0.15536502  0.04820507  1  0.163178  0  0.121244  0.139689  0  0.991413  0
H  H28  1  0.60671249  0.09624777  0.19969806  1  0.078329  0  0.115625  0.121709  0  0.984456  0
H  H29  1  0.54590103  0.76968837  0.14884857  1  0.133894  0  0.121721  0.146732  0  0.969503  0
H  H30  1  0.16252192  0.14088647  0.04022844  1  0.119746  0  0.125147  0.151231  0  0.964453  0
H  H31  1  0.49662226  0.79494289  0.89945578  1  0.094202  0  0.117363  0.123506  0  0.97993  0
H  H32  1  0.29530421  0.00644728  0.89719160  1  0.173998  0  0.120427  0.138885  0  0.993917  0
H  H33  1  0.44439680  0.75003629  0.85176036  1  0.13592  0  0.115882  0.121906  0  0.984046  0
H  H34  1  0.30025351  0.28234819  0.90099457  1  0.126652  0  0.124411  0.150979  0  0.964895  0
H  H35  1  0.78752901  0.00899854  0.90896835  1  0.158031  0  0.125325  0.151597  0  0.96297  0
H  H36  1  0.84582241  0.57331435  0.39938639  1  0.650659  0  0.312313  0.37796  0  0.939904  0
H  H37  1  0.06606346  0.68858099  0.51295737  1  0.664198  0  0.310805  0.375573  0  0.947532  0
H  H38  1  0.79771452  0.17626707  0.12302306  1  0.642231  0  0.311627  0.378264  0  0.94255  0
H  H39  1  0.17560992  0.90509934  0.84978410  1  0.649915  0  0.312046  0.376991  0  0.942237  0
C  C40  1  0.06129164  0.31443830  0.56249006  1  1.585153  0  0.216334  0.622386  0  4.204391  0
C  C41  1  0.06361164  0.57557213  0.56731184  1  1.570958  0  0.238482  0.615466  0  4.120116  0
C  C42  1  0.18168918  0.44035698  0.43879068  1  1.545847  0  0.218012  0.623939  0  4.195185  0
C  C43  1  0.93398086  0.68802034  0.43881610  1  1.566165  0  0.214815  0.619567  0  4.207401  0
C  C44  1  0.93406610  0.43476385  0.42872340  1  1.570907  0  0.238544  0.617451  0  4.120735  0
C  C45  1  0.82033016  0.55995543  0.56211527  1  1.564246  0  0.217264  0.621969  0  4.199233  0
C  C46  1  0.56437683  0.31196460  0.31238155  1  1.565518  0  0.220123  0.613904  0  4.211424  0
C  C47  1  0.68827572  0.17574637  0.18114580  1  1.558353  0  0.238659  0.616615  0  4.122979  0
C  C48  1  0.68794363  0.43278820  0.18728316  1  1.538095  0  0.218116  0.623415  0  4.199259  0
C  C49  1  0.93610090  0.19034467  0.18972113  1  1.563983  0  0.214015  0.619126  0  4.21243  0
C  C50  1  0.81702628  0.32179091  0.32023202  1  1.581475  0  0.232532  0.604033  0  4.165606  0
C  C51  1  0.81076765  0.06724840  0.30927053  1  1.556008  0  0.219526  0.613982  0  4.210396  0
C  C52  1  0.43610346  0.68632544  0.68696835  1  1.564662  0  0.219828  0.612514  0  4.212095  0
C  C53  1  0.31414208  0.81779088  0.82076428  1  1.541531  0  0.239334  0.61777  0  4.121437  0
C  C54  1  0.19229505  0.93201648  0.68919894  1  1.54816  0  0.221486  0.612961  0  4.208097  0
C  C55  1  0.06399497  0.80825706  0.81026166  1  1.577696  0  0.214734  0.619568  0  4.209177  0
C  C56  1  0.18100687  0.67935326  0.68012195  1  1.572573  0  0.232813  0.604396  0  4.165626  0
C  C57  1  0.31451933  0.56870066  0.81254500  1  1.585362  0  0.216163  0.623458  0  4.201977  0
C  C58  1  0.43757701  0.18483868  0.93809268  1  1.563199  0  0.219726  0.611434  0  4.213358  0
C  C59  1  0.42914872  0.93120210  0.93024555  1  1.574139  0  0.232808  0.604652  0  4.165867  0
C  C60  1  0.68351841  0.93901040  0.93888084  1  1.570195  0  0.219061  0.611923  0  4.214068  0
C  C61  1  0.56157916  0.81651824  0.06185892  1  1.574176  0  0.218734  0.610814  0  4.214687  0
C  C62  1  0.57007572  0.06961314  0.06953797  1  1.566311  0  0.231793  0.603454  0  4.166446  0
C  C63  1  0.31617823  0.06128249  0.06096368  1  1.588413  0  0.219279  0.612404  0  4.215185  0
C  C64  1  0.89883546  0.40854095  0.40193918  1  -0.055553  0  -0.002871  -0.038932  0  3.922051  0
C  C65  1  0.84530696  0.35116372  0.34908693  1  -0.072143  0  -0.003458  -0.012373  0  3.941164  0
C  C66  1  0.82495015  0.45042863  0.38937568  1  -0.108805  0  -0.005518  -0.097426  0  3.912141  0
C  C67  1  0.91797884  0.30864603  0.36182514  1  0.018591  0  -0.068045  -0.075986  0  3.944061  0
C  C68  1  0.79882463  0.42174229  0.36323242  1  0.029198  0  -0.065115  -0.090841  0  3.917627  0
C  C69  1  0.94394634  0.33722102  0.38803344  1  -0.022928  0  -0.070583  -0.078443  0  3.946206  0
C  C70  1  0.09612871  0.60394489  0.59440783  1  -0.010721  0  -0.002735  -0.037046  0  3.923295  0
C  C71  1  0.15096941  0.65291577  0.65070872  1  -0.048209  0  -0.003719  -0.013403  0  3.941644  0
C  C72  1  0.14151161  0.64496986  0.58030768  1  -0.183612  0  -0.005364  -0.098153  0  3.919909  0
C  C73  1  0.10617508  0.61231989  0.66507268  1  0.036367  0  -0.066865  -0.07457  0  3.94004  0
C  C74  1  0.16849405  0.66894693  0.60830579  1  0.026689  0  -0.06594  -0.091198  0  3.923178  0
C  C75  1  0.07945754  0.58812398  0.63705788  1  0.030691  0  -0.069826  -0.077915  0  3.942125  0
C  C76  1  0.30138493  0.45724610  0.39982644  1  0.014646  0  -0.020405  0.057816  0  4.00755  0
C  C77  1  0.44547195  0.29659576  0.35049384  1  0.090608  0  -0.087256  -0.131139  0  3.9583  0
C  C78  1  0.25612411  0.41737737  0.41374835  1  -0.074124  0  -0.03116  -0.174481  0  3.946894  0
C  C79  1  0.48937674  0.33747986  0.33713259  1  -0.190504  0  -0.023416  -0.118766  0  3.97536  0
C  C80  1  0.37659236  0.34024815  0.37331178  1  -0.171818  0  -0.019679  0.005718  0  4.069842  0
C  C81  1  0.36995663  0.41328369  0.37677298  1  -0.182679  0  -0.028559  -0.072026  0  4.094806  0
C  C82  1  0.72906062  0.57430523  0.63005700  1  -0.043993  0  -0.023093  0.060559  0  4.002619  0
C  C83  1  0.52708490  0.67025873  0.62011802  1  0.021718  0  -0.083794  -0.125925  0  3.948479  0
C  C84  1  0.74616668  0.58307289  0.58743040  1  -0.099544  0  -0.029252  -0.177279  0  3.950987  0
C  C85  1  0.51150631  0.66080070  0.66258187  1  -0.145201  0  -0.022353  -0.116429  0  3.971039  0
C  C86  1  0.60658635  0.63825337  0.60811250  1  -0.178528  0  -0.017693  0.001224  0  4.065915  0
C  C87  1  0.64953343  0.60550293  0.64192069  1  -0.103153  0  -0.029116  -0.072009  0  4.095772  0
C  C88  1  0.07612054  0.22395593  0.63089469  1  -0.022823  0  -0.021486  0.062953  0  3.999357  0
C  C89  1  0.17634413  0.02237559  0.62243089  1  0.054151  0  -0.08634  -0.131451  0  3.957552  0
C  C90  1  0.08564458  0.24064472  0.58823342  1  -0.095221  0  -0.031039  -0.175592  0  3.951333  0
C  C91  1  0.16659825  0.00750361  0.66494594  1  -0.143561  0  -0.02189  -0.118408  0  3.972756  0
C  C92  1  0.14361721  0.10147677  0.60992206  1  -0.243706  0  -0.018481  0.00697  0  4.070187  0
C  C93  1  0.10936455  0.14471044  0.64334333  1  -0.089244  0  -0.028877  -0.077055  0  4.093437  0
C  C94  1  0.83817508  0.80623199  0.39817019  1  0.04312  0  -0.022747  0.055036  0  4.015911  0
C  C95  1  0.90350211  0.95137243  0.35066122  1  0.035116  0  -0.085532  -0.128473  0  3.951563  0
C  C96  1  0.90758597  0.76263808  0.41402630  1  -0.150004  0  -0.031819  -0.178829  0  3.958632  0
C  C97  1  0.83448562  0.99290741  0.33465609  1  -0.16778  0  -0.023582  -0.117561  0  3.976838  0
C  C98  1  0.90525517  0.88284517  0.37375558  1  -0.16531  0  -0.018371  0.00456  0  4.065934  0
C  C99  1  0.83702364  0.87450225  0.37500437  1  -0.162813  0  -0.028841  -0.070638  0  4.098021  0
C  C100  1  0.65874077  0.15139506  0.15046462  1  -0.028937  0  -0.003294  -0.038787  0  3.922244  0
C  C101  1  0.60040855  0.09803057  0.09788313  1  -0.007723  0  -0.002831  -0.012836  0  3.941639  0
C  C102  1  0.67070619  0.16807256  0.10719569  1  -0.183403  0  -0.005773  -0.098037  0  3.913222  0
C  C103  1  0.58763792  0.08171644  0.14061915  1  -0.035468  0  -0.068212  -0.076447  0  3.946543  0
C  C104  1  0.64172842  0.14154918  0.08140348  1  0.064355  0  -0.065476  -0.090398  0  3.917984  0
C  C105  1  0.61641987  0.10840382  0.16638151  1  0.019988  0  -0.070305  -0.078361  0  3.948935  0
C  C106  1  0.67651126  0.52396049  0.11908963  1  0.00534  0  -0.021325  0.056497  0  4.011038  0
C  C107  1  0.57627256  0.72536281  0.12870535  1  0.070444  0  -0.086408  -0.129017  0  3.956201  0
C  C108  1  0.66509538  0.50664770  0.16163663  1  -0.075534  0  -0.030189  -0.174192  0  3.948619  0
C  C109  1  0.58750437  0.74117787  0.08630477  1  -0.195469  0  -0.023966  -0.117994  0  3.97443  0
C  C110  1  0.60876806  0.64605067  0.14079622  1  -0.166953  0  -0.019963  0.003437  0  4.070401  0
C  C111  1  0.64419420  0.60344337  0.10722145  1  -0.167953  0  -0.028862  -0.070265  0  4.09296  0
C  C112  1  0.08374011  0.12294922  0.17833818  1  -0.069376  0  -0.023263  0.06154  0  4.00729  0
C  C113  1  0.17039076  0.12408032  0.07267283  1  0.055425  0  -0.084439  -0.127883  0  3.950879  0
C  C114  1  0.01133836  0.16312885  0.16554709  1  -0.068011  0  -0.031264  -0.179132  0  3.959077  0
C  C115  1  0.24174443  0.08510488  0.08629695  1  -0.192639  0  -0.022581  -0.115226  0  3.973236  0
C  C116  1  0.11242798  0.13792936  0.10626160  1  -0.168116  0  -0.017709  0.004412  0  4.065728  0
C  C117  1  0.14144064  0.10873364  0.14463473  1  -0.13265  0  -0.029808  -0.072757  0  4.098876  0
C  C118  1  0.34050046  0.85159217  0.84825838  1  0.000195  0  -0.003333  -0.03926  0  3.921481  0
C  C119  1  0.39900752  0.90312474  0.90163115  1  -0.082217  0  -0.003616  -0.014439  0  3.942421  0
C  C120  1  0.29866254  0.92473358  0.86131043  1  -0.136333  0  -0.006249  -0.099305  0  3.914134  0
C  C121  1  0.44121920  0.83093733  0.88866390  1  0.018428  0  -0.067083  -0.074448  0  3.941599  0
C  C122  1  0.32796164  0.94984578  0.88764933  1  0.032885  0  -0.065886  -0.091329  0  3.923027  0
C  C123  1  0.41207126  0.80598726  0.86220109  1  -0.04123  0  -0.069923  -0.078153  0  3.945458  0
C  C124  1  0.40927751  0.44995662  0.85387350  1  -0.013513  0  -0.022712  0.059933  0  4.006049  0
C  C125  1  0.34522435  0.30203041  0.89687785  1  0.049933  0  -0.085593  -0.130353  0  3.950275  0
C  C126  1  0.34080548  0.49372339  0.83719151  1  -0.136117  0  -0.031369  -0.175891  0  3.951099  0
C  C127  1  0.41380741  0.25984046  0.91324437  1  -0.149872  0  -0.021996  -0.115775  0  3.970608  0
C  C128  1  0.34351772  0.37145955  0.87503670  1  -0.154339  0  -0.018686  0.005887  0  4.064029  0
C  C129  1  0.41097408  0.38030039  0.87543254  1  -0.164116  0  -0.029093  -0.072435  0  4.093258  0
C  C130  1  0.94369257  0.79270383  0.84953884  1  -0.031796  0  -0.023201  0.060991  0  4.006184  0
C  C131  1  0.80398682  0.95209822  0.90132991  1  0.049341  0  -0.084406  -0.127353  0  3.946544  0
C  C132  1  0.98992637  0.83144268  0.83571985  1  -0.117032  0  -0.031346  -0.179154  0  3.957764  0
C  C133  1  0.75864392  0.91266960  0.91420425  1  -0.213289  0  -0.021945  -0.11594  0  3.971571  0
C  C134  1  0.87170605  0.90836218  0.87767566  1  -0.155213  0  -0.017768  0.004899  0  4.063729  0
C  C135  1  0.87621807  0.83647947  0.87335495  1  -0.094951  0  -0.030059  -0.073881  0  4.096891  0
S  S136  1  0.29776485  0.32633630  0.39824150  1  0.26842  0  0.082864  0.130644  0  2.726875  0
S  S137  1  0.44778865  0.42860330  0.35202255  1  0.305738  0  0.096794  0.149303  0  2.77442  0
S  S138  1  0.66452370  0.62901640  0.56194859  1  0.31028  0  0.108742  0.170833  0  2.719831  0
S  S139  1  0.59265313  0.61325674  0.68823931  1  0.287124  0  0.087026  0.137555  0  2.776892  0
S  S140  1  0.13531639  0.15881718  0.56348769  1  0.271949  0  0.088199  0.137783  0  2.727305  0
S  S141  1  0.11803890  0.08861497  0.69004864  1  0.312067  0  0.106282  0.168965  0  2.762757  0
S  S142  1  0.97098230  0.80585225  0.40067203  1  0.297802  0  0.096331  0.152793  0  2.726455  0
S  S143  1  0.77131535  0.94982410  0.34750221  1  0.305418  0  0.088043  0.137031  0  2.780494  0
S  S144  1  0.61552131  0.58791783  0.18690143  1  0.277234  0  0.08945  0.14037  0  2.730117  0
S  S145  1  0.63747989  0.66046913  0.06090343  1  0.287682  0  0.089186  0.138568  0  2.777466  0
S  S146  1  0.01422876  0.18294013  0.11204914  1  0.308255  0  0.10044  0.157922  0  2.728199  0
S  S147  1  0.23939548  0.06455333  0.13959796  1  0.293489  0  0.086139  0.135942  0  2.780832  0
S  S148  1  0.27868226  0.44897657  0.84789288  1  0.294341  0  0.089808  0.140301  0  2.731115  0
S  S149  1  0.47646251  0.30361462  0.90237045  1  0.313147  0  0.09305  0.146139  0  2.774042  0
S  S150  1  0.95052731  0.92156973  0.85215622  1  0.293194  0  0.100453  0.157734  0  2.726655  0
S  S151  1  0.79756407  0.82262123  0.89807844  1  0.283385  0  0.087453  0.138328  0  2.777674  0
S  S152  1  0.75716167  0.53962197  0.40676570  1  3.066037  0  0.528285  1.149193  0  6.043011  0
S  S153  1  0.17385893  0.66429625  0.52709494  1  3.118025  0  0.528909  1.150683  0  6.044409  0
S  S154  1  0.71690230  0.22835163  0.08154093  1  3.075392  0  0.528959  1.149055  0  6.044598  0
S  S155  1  0.20935972  0.99331802  0.84381985  1  3.087421  0  0.529114  1.148684  0  6.049136  0
Br  Br156  1  0.27953761  0.55634146  0.40858908  1  0.039564  0  0.0686  0.026547  0  1.449785  0
Br  Br157  1  0.79864343  0.52622779  0.66935108  1  0.010644  0  0.041741  -0.013528  0  1.40441  0
Br  Br158  1  0.02658480  0.29342680  0.66981504  1  0.013258  0  0.047135  -0.007673  0  1.405256  0
Br  Br159  1  0.75444896  0.78164819  0.40412648  1  0.032158  0  0.062746  0.018058  0  1.445356  0
Br  Br160  1  0.72738992  0.45508519  0.08017048  1  0.041255  0  0.064691  0.02219  0  1.446089  0
Br  Br161  1  0.10784662  0.08944907  0.23270901  1  0.004179  0  0.042024  -0.012626  0  1.392932  0
Br  Br162  1  0.49278791  0.47465075  0.84953909  1  0.010315  0  0.047284  -0.00633  0  1.391  0
Br  Br163  1  0.96292671  0.69489270  0.83924193  1  0.00535  0  0.043825  -0.010533  0  1.39062  0
O  O164  1  0.00103780  0.49809832  0.49968824  1  -1.232404  0  -0.572931  -1.03555  0  2.525072  0
O  O165  1  0.08216698  0.31273635  0.52365533  1  -1.163354  0  -0.320173  -0.547945  0  2.318184  0
O  O166  1  0.04905055  0.51872936  0.58279861  1  -1.161078  0  -0.296148  -0.514939  0  2.314352  0
O  O167  1  0.15492218  0.50407894  0.45308166  1  -1.160657  0  -0.311263  -0.531068  0  2.388767  0
O  O168  1  0.02164218  0.37366935  0.58067682  1  -1.170808  0  -0.316508  -0.541604  0  2.389394  0
O  O169  1  0.15028724  0.39359746  0.44416901  1  -1.161372  0  -0.323823  -0.55535  0  2.32096  0
O  O170  1  0.05028305  0.61034512  0.53085328  1  -1.184634  0  -0.306356  -0.565901  0  2.394907  0
O  O171  1  0.00401966  0.65843932  0.44594256  1  -1.163737  0  -0.31986  -0.54502  0  2.325624  0
O  O172  1  0.91051244  0.50667524  0.42987819  1  -1.186877  0  -0.308363  -0.568649  0  2.395291  0
O  O173  1  0.88622998  0.65857243  0.45123759  1  -1.162282  0  -0.316535  -0.544972  0  2.374594  0
O  O174  1  0.98747338  0.38353952  0.44809719  1  -1.162515  0  -0.297023  -0.519274  0  2.304553  0
O  O175  1  0.87980559  0.53495749  0.58058793  1  -1.164735  0  -0.317812  -0.545433  0  2.38191  0
O  O176  1  0.81813270  0.56783231  0.52312528  1  -1.152067  0  -0.312745  -0.532263  0  2.342368  0
O  O177  1  0.74836018  0.25265572  0.25060502  1  -1.234315  0  -0.571327  -1.032839  0  2.524966  0
O  O178  1  0.59403029  0.36009149  0.30293068  1  -1.177107  0  -0.317268  -0.54427  0  2.334794  0
O  O179  1  0.65296348  0.17969539  0.21725322  1  -1.157  0  -0.298391  -0.519367  0  2.307455  0
O  O180  1  0.72091073  0.37303449  0.16895274  1  -1.159827  0  -0.311572  -0.532012  0  2.38709  0
O  O181  1  0.59314872  0.24433574  0.30249118  1  -1.161288  0  -0.317344  -0.539622  0  2.308777  0
O  O182  1  0.67216519  0.43540618  0.22629255  1  -1.145594  0  -0.320094  -0.549019  0  2.335162  0
O  O183  1  0.74794672  0.18930410  0.17016482  1  -1.182839  0  -0.306088  -0.567189  0  2.399057  0
O  O184  1  0.87906708  0.22782998  0.16885191  1  -1.167466  0  -0.319579  -0.543816  0  2.32925  0
O  O185  1  0.86139107  0.25604865  0.30959054  1  -1.173418  0  -0.311109  -0.54271  0  2.338504  0
O  O186  1  0.93324559  0.17515210  0.22877204  1  -1.152029  0  -0.315615  -0.543354  0  2.387008  0
O  O187  1  0.75154988  0.36498383  0.30875504  1  -1.172744  0  -0.305583  -0.5325  0  2.332511  0
O  O188  1  0.74570350  0.09330254  0.29578441  1  -1.169658  0  -0.321631  -0.55046  0  2.331509  0
O  O189  1  0.85687577  0.09897355  0.30311427  1  -1.159478  0  -0.31476  -0.535481  0  2.317638  0
O  O190  1  0.25090013  0.74846808  0.74887165  1  -1.22503  0  -0.571378  -1.033417  0  2.525511  0
O  O191  1  0.37791045  0.72258383  0.66722504  1  -1.175564  0  -0.31384  -0.535436  0  2.311544  0
O  O192  1  0.36558284  0.76612273  0.80056869  1  -1.151327  0  -0.298099  -0.519249  0  2.308168  0
O  O193  1  0.17775169  0.93116279  0.72838947  1  -1.131119  0  -0.312698  -0.532638  0  2.346422  0
O  O194  1  0.43586076  0.66968410  0.72611157  1  -1.140953  0  -0.31899  -0.545822  0  2.333853  0
O  O195  1  0.22634048  0.87457205  0.66905429  1  -1.172353  0  -0.31508  -0.538615  0  2.318665  0
O  O196  1  0.24212376  0.84054081  0.81974224  1  -1.171496  0  -0.305961  -0.566687  0  2.39718  0
O  O197  1  0.09112370  0.85867641  0.80103339  1  -1.165777  0  -0.320986  -0.545108  0  2.327229  0
O  O198  1  0.16490646  0.66178607  0.71842126  1  -1.159802  0  -0.309553  -0.540128  0  2.330725  0
O  O199  1  0.09507035  0.74140595  0.79950481  1  -1.164412  0  -0.315393  -0.543684  0  2.378779  0
O  O200  1  0.22002281  0.71714252  0.66415502  1  -1.167424  0  -0.308568  -0.536437  0  2.341344  0
O  O201  1  0.35744463  0.60400389  0.80649121  1  -1.166338  0  -0.317995  -0.546125  0  2.374066  0
O  O202  1  0.24959598  0.59186728  0.79934024  1  -1.165628  0  -0.319956  -0.546709  0  2.335236  0
O  O203  1  0.49940532  0.00057263  0.99993641  1  -1.227303  0  -0.569906  -1.031372  0  2.521914  0
O  O204  1  0.50429602  0.15685104  0.94969004  1  -1.177772  0  -0.318368  -0.544354  0  2.338163  0
O  O205  1  0.38667828  0.99722596  0.94087010  1  -1.166332  0  -0.307892  -0.535371  0  2.335964  0
O  O206  1  0.65176228  0.89260834  0.94663916  1  -1.16105  0  -0.319081  -0.545953  0  2.33607  0
O  O207  1  0.39002096  0.15460436  0.94586350  1  -1.153897  0  -0.314608  -0.535985  0  2.309135  0
O  O208  1  0.65687958  0.00532010  0.95016466  1  -1.168894  0  -0.31417  -0.53528  0  2.312434  0
O  O209  1  0.49460890  0.88657146  0.94151868  1  -1.168165  0  -0.309881  -0.541382  0  2.330288  0
O  O210  1  0.57666942  0.81693634  0.02272402  1  -1.176261  0  -0.320045  -0.545481  0  2.338174  0
O  O211  1  0.53222070  0.03093594  0.08635227  1  -1.168348  0  -0.31041  -0.54254  0  2.329475  0
O  O212  1  0.52649044  0.87448177  0.08160643  1  -1.157575  0  -0.316585  -0.538425  0  2.309079  0
O  O213  1  0.58492632  0.08650203  0.03107534  1  -1.171388  0  -0.306381  -0.532957  0  2.336074  0
O  O214  1  0.31538815  0.07770421  0.02202787  1  -1.138816  0  -0.314261  -0.5357  0  2.314645  0
O  O215  1  0.37488523  0.02634645  0.08058030  1  -1.174939  0  -0.319918  -0.546881  0  2.33797  0
O  O216  1  0.79728700  0.59473357  0.38615634  1  -1.229534  0  -0.370029  -0.537839  0  2.197748  0
O  O217  1  0.68945940  0.56529219  0.38709223  1  -1.290093  0  -0.311294  -0.508478  0  2.101116  0
O  O218  1  0.75319764  0.53139981  0.45098417  1  -1.244304  0  -0.323406  -0.542813  0  2.140026  0
O  O219  1  0.09598370  0.72035850  0.50879429  1  -1.250387  0  -0.370185  -0.531733  0  2.159578  0
O  O220  1  0.21664899  0.70855083  0.52453413  1  -1.276312  0  -0.31484  -0.513555  0  2.099568  0
O  O221  1  0.20688919  0.59353817  0.50953243  1  -1.294545  0  -0.322072  -0.545043  0  2.170053  0
O  O222  1  0.80234854  0.17985360  0.09215903  1  -1.214612  0  -0.368988  -0.53089  0  2.157903  0
O  O223  1  0.71987025  0.23083836  0.03793083  1  -1.250174  0  -0.313277  -0.511419  0  2.101094  0
O  O224  1  0.68234316  0.29746131  0.10074138  1  -1.296961  0  -0.322585  -0.545725  0  2.172554  0
O  O225  1  0.15372941  0.95320111  0.86321827  1  -1.23165  0  -0.368407  -0.529015  0  2.157317  0
O  O226  1  0.18369648  0.05980658  0.86423781  1  -1.287891  0  -0.314049  -0.512652  0  2.101802  0
O  O227  1  0.21835712  0.99894549  0.79953210  1  -1.266331  0  -0.324368  -0.542249  0  2.136412  0
