# generated using pymatgen
data_InH8(C2O)8
_symmetry_space_group_name_H-M   'P 1'
_cell_length_a   12.65410441
_cell_length_b   14.40239023
_cell_length_c   14.41141759
_cell_angle_alpha   120.01051770
_cell_angle_beta   90.00468342
_cell_angle_gamma   89.99729962
_symmetry_Int_Tables_number   1
_chemical_formula_structural   InH8(C2O)8
_chemical_formula_sum   'In3 H24 C48 O24'
_cell_volume   2274.34991327
_cell_formula_units_Z   3
loop_
 _symmetry_equiv_pos_site_id
 _symmetry_equiv_pos_as_xyz
  1  'x, y, z'
loop_
 _atom_site_type_symbol
 _atom_site_label
 _atom_site_symmetry_multiplicity
 _atom_site_fract_x
 _atom_site_fract_y
 _atom_site_fract_z
 _atom_site_occupancy
 _atom_site_pbe_bader_charge
 _atom_site_pbe_bader_spin_density
 _atom_site_pbe_cm5_charge
 _atom_site_pbe_ddec_charge
 _atom_site_pbe_ddec_spin_density
 _atom_site_pbe_ddec_sum_bond_order
 _atom_site_pbe_magmom
In  In0  1  0.16660683  0.00002290  0.50002841  1  1.873417  0  0.748568  1.351037  0  2.580934  0
In  In1  1  0.83338477  0.50000418  0.49999918  1  1.874002  0  0.748582  1.351064  0  2.580736  0
In  In2  1  0.50000757  0.49995700  0.99996118  1  1.873137  0  0.748348  1.350853  0  2.580189  0
H  H3  1  0.91364270  0.11444692  0.78158416  1  0.096331  0  0.120004  0.126625  0  0.974371  0
H  H4  1  0.58016957  0.78136517  0.66697269  1  0.108848  0  0.12011  0.126661  0  0.974118  0
H  H5  1  0.24677978  0.66723154  0.88576761  1  0.110652  0  0.120263  0.127071  0  0.974251  0
H  H6  1  0.91358149  0.88556719  0.21848023  1  0.095698  0  0.119994  0.126654  0  0.974286  0
H  H7  1  0.58016664  0.21850400  0.33289688  1  0.107535  0  0.120087  0.126683  0  0.974213  0
H  H8  1  0.24681626  0.33281079  0.11431650  1  0.111855  0  0.120254  0.126866  0  0.974536  0
H  H9  1  0.41972592  0.11442960  0.33294634  1  0.120423  0  0.120002  0.126664  0  0.974352  0
H  H10  1  0.08653405  0.33284894  0.21854215  1  0.107039  0  0.120284  0.126958  0  0.974453  0
H  H11  1  0.75320904  0.21855530  0.88568306  1  0.095016  0  0.120186  0.126677  0  0.974089  0
H  H12  1  0.41975551  0.88552984  0.66702673  1  0.121271  0  0.12011  0.126743  0  0.974187  0
H  H13  1  0.08648932  0.66725977  0.78155830  1  0.106219  0  0.120305  0.127015  0  0.974453  0
H  H14  1  0.75313349  0.78149266  0.11436912  1  0.094945  0  0.120094  0.126587  0  0.973696  0
H  H15  1  0.91084763  0.28548122  0.60713672  1  0.114265  0  0.111308  0.119495  0  1.018888  0
H  H16  1  0.57749275  0.60684468  0.32156458  1  0.110205  0  0.111252  0.119797  0  1.018693  0
H  H17  1  0.24408470  0.32158408  0.71464437  1  0.109732  0  0.111299  0.1197  0  1.01933  0
H  H18  1  0.91079972  0.71448106  0.39288264  1  0.114208  0  0.111246  0.119402  0  1.018942  0
H  H19  1  0.57756850  0.39312179  0.67835940  1  0.112555  0  0.111355  0.119879  0  1.018679  0
H  H20  1  0.24412493  0.67845296  0.28536353  1  0.110001  0  0.111325  0.11989  0  1.019479  0
H  H21  1  0.42253141  0.28549692  0.67835612  1  0.111019  0  0.111323  0.119511  0  1.019308  0
H  H22  1  0.08925454  0.67848902  0.39309966  1  0.111526  0  0.11129  0.119721  0  1.01895  0
H  H23  1  0.75581171  0.39312283  0.71474565  1  0.110432  0  0.111419  0.119963  0  1.018502  0
H  H24  1  0.42248735  0.71453300  0.32160449  1  0.109962  0  0.111295  0.119565  0  1.019256  0
H  H25  1  0.08918841  0.32157176  0.60690681  1  0.110554  0  0.111349  0.119848  0  1.018661  0
H  H26  1  0.75576391  0.60686136  0.28524639  1  0.114316  0  0.111361  0.119925  0  1.018643  0
C  C27  1  0.87755278  0.17514110  0.76774982  1  0.075014  0  -0.065168  -0.081638  0  3.928627  0
C  C28  1  0.54411452  0.76752115  0.59246226  1  -0.049976  0  -0.065043  -0.0814  0  3.927994  0
C  C29  1  0.21075361  0.59269471  0.82502444  1  -0.040457  0  -0.065603  -0.082526  0  3.927243  0
C  C30  1  0.87749246  0.82487405  0.23231251  1  0.075841  0  -0.065311  -0.081834  0  3.929217  0
C  C31  1  0.54412730  0.23236785  0.40743367  1  -0.049245  0  -0.065344  -0.08176  0  3.927384  0
C  C32  1  0.21079386  0.40735769  0.17504583  1  0.032339  0  -0.065574  -0.08212  0  3.927387  0
C  C33  1  0.45580738  0.17512011  0.40744431  1  0.020809  0  -0.065229  -0.08179  0  3.928097  0
C  C34  1  0.12255914  0.40739031  0.23237130  1  -0.052238  0  -0.065652  -0.082163  0  3.928437  0
C  C35  1  0.78926191  0.23239945  0.82499507  1  -0.053889  0  -0.065514  -0.081978  0  3.928564  0
C  C36  1  0.45580400  0.82481562  0.59249933  1  0.021369  0  -0.06562  -0.082127  0  3.928271  0
C  C37  1  0.12250409  0.59270985  0.76772206  1  0.022057  0  -0.065743  -0.082416  0  3.928185  0
C  C38  1  0.78919873  0.76762075  0.17505808  1  -0.052779  0  -0.065375  -0.081729  0  3.92846  0
C  C39  1  0.92141058  0.19507205  0.68973599  1  -0.055146  0  0.006758  0.004423  0  3.936965  0
C  C40  1  0.58807265  0.68951067  0.49453018  1  -0.041946  0  0.006812  0.004309  0  3.938542  0
C  C41  1  0.25463657  0.49465837  0.80507474  1  -0.052463  0  0.007337  0.00537  0  3.936132  0
C  C42  1  0.92135955  0.80492328  0.31030039  1  -0.054123  0  0.006898  0.004673  0  3.937539  0
C  C43  1  0.58809795  0.31039360  0.50537409  1  -0.040886  0  0.006869  0.004425  0  3.937116  0
C  C44  1  0.25467531  0.50538115  0.19497651  1  -0.05246  0  0.007265  0.005018  0  3.936522  0
C  C45  1  0.41193855  0.19505243  0.50538095  1  -0.047491  0  0.007023  0.004565  0  3.937245  0
C  C46  1  0.07870061  0.50538983  0.31040672  1  -0.038631  0  0.007111  0.004658  0  3.937233  0
C  C47  1  0.74531966  0.31040913  0.80504583  1  -0.037896  0  0.007064  0.005011  0  3.937082  0
C  C48  1  0.41193055  0.80494166  0.49458069  1  -0.058221  0  0.007078  0.004722  0  3.938219  0
C  C49  1  0.07864642  0.49469430  0.68964713  1  -0.039532  0  0.007287  0.00515  0  3.936272  0
C  C50  1  0.74525882  0.68960252  0.19498810  1  -0.038733  0  0.006987  0.004618  0  3.938136  0
C  C51  1  0.87692854  0.27251806  0.66924245  1  -0.034166  0  -0.070608  -0.086266  0  3.924506  0
C  C52  1  0.54357645  0.66898544  0.39663755  1  -0.025822  0  -0.070574  -0.086759  0  3.923387  0
C  C53  1  0.21022021  0.39667788  0.72759332  1  -0.01286  0  -0.070782  -0.087003  0  3.924363  0
C  C54  1  0.87689970  0.72746799  0.33077548  1  -0.033853  0  -0.070544  -0.086393  0  3.924475  0
C  C55  1  0.54364120  0.33097076  0.60329262  1  0.027228  0  -0.070733  -0.086771  0  3.923708  0
C  C56  1  0.21026673  0.60337269  0.27244138  1  0.046677  0  -0.070794  -0.087002  0  3.924528  0
C  C57  1  0.45642443  0.27250867  0.60329619  1  -0.012806  0  -0.070486  -0.086318  0  3.924112  0
C  C58  1  0.12312578  0.60338024  0.33093504  1  -0.024793  0  -0.070496  -0.08647  0  3.923781  0
C  C59  1  0.78973544  0.33096929  0.72768426  1  0.031065  0  -0.070811  -0.087214  0  3.924421  0
C  C60  1  0.45637788  0.72749588  0.39666745  1  0.053003  0  -0.070659  -0.086589  0  3.924048  0
C  C61  1  0.12307858  0.39668143  0.66908709  1  0.037646  0  -0.070616  -0.086623  0  3.923311  0
C  C62  1  0.78968931  0.66903171  0.27232973  1  0.025971  0  -0.070863  -0.086992  0  3.925439  0
C  C63  1  0.01425956  0.13229110  0.62714750  1  1.511633  0  0.220149  0.532124  0  4.208985  0
C  C64  1  0.68094275  0.62700830  0.49470660  1  1.514446  0  0.22091  0.53333  0  4.20756  0
C  C65  1  0.34743662  0.49482323  0.86780360  1  1.501059  0  0.22034  0.53257  0  4.207877  0
C  C66  1  0.01420200  0.86768971  0.37288861  1  1.510402  0  0.220346  0.532384  0  4.208228  0
C  C67  1  0.68099050  0.37289397  0.50517133  1  1.512751  0  0.220585  0.533104  0  4.208121  0
C  C68  1  0.34746168  0.50517692  0.13221839  1  1.502116  0  0.220287  0.532369  0  4.209065  0
C  C69  1  0.31909259  0.13230497  0.50520609  1  1.501774  0  0.220529  0.532594  0  4.208153  0
C  C70  1  0.98591149  0.50522609  0.37298924  1  1.511674  0  0.220782  0.533317  0  4.206393  0
C  C71  1  0.65240464  0.37291970  0.86774391  1  1.510634  0  0.220475  0.532689  0  4.208296  0
C  C72  1  0.31911106  0.86770252  0.49479410  1  1.501831  0  0.220576  0.532858  0  4.207599  0
C  C73  1  0.98586975  0.49486388  0.62704579  1  1.511773  0  0.220616  0.53305  0  4.208465  0
C  C74  1  0.65236140  0.62707535  0.13225448  1  1.511015  0  0.220666  0.533007  0  4.208395  0
O  O75  1  0.07100950  0.08077664  0.65939198  1  -1.066979  0  -0.250483  -0.463748  0  2.0829  0
O  O76  1  0.73767443  0.65935003  0.57849658  1  -1.068518  0  -0.250818  -0.464284  0  2.081809  0
O  O77  1  0.40417623  0.57865073  0.91936722  1  -1.066996  0  -0.250521  -0.464257  0  2.08174  0
O  O78  1  0.07095911  0.91920311  0.34063248  1  -1.065616  0  -0.250554  -0.463947  0  2.081916  0
O  O79  1  0.73769080  0.34054037  0.42138051  1  -1.068063  0  -0.250517  -0.46403  0  2.081584  0
O  O80  1  0.40416273  0.42133206  0.08065247  1  -1.068005  0  -0.250502  -0.464018  0  2.081804  0
O  O81  1  0.26229929  0.08082841  0.42146073  1  -1.067208  0  -0.250458  -0.463758  0  2.081918  0
O  O82  1  0.92919398  0.42138899  0.34070206  1  -1.067966  0  -0.250814  -0.46452  0  2.081159  0
O  O83  1  0.59575101  0.34059235  0.91923496  1  -1.067044  0  -0.25065  -0.464103  0  2.082549  0
O  O84  1  0.26231908  0.91917886  0.57854822  1  -1.066969  0  -0.250518  -0.463936  0  2.081303  0
O  O85  1  0.92914660  0.57868848  0.65930542  1  -1.068887  0  -0.250799  -0.464577  0  2.081933  0
O  O86  1  0.59571344  0.65937455  0.08073068  1  -1.067313  0  -0.250649  -0.46412  0  2.082544  0
O  O87  1  0.03695995  0.12761608  0.53815187  1  -1.082544  0  -0.259429  -0.489025  0  2.114523  0
O  O88  1  0.70377502  0.53795038  0.41037760  1  -1.088651  0  -0.259588  -0.489269  0  2.112973  0
O  O89  1  0.37023150  0.41040540  0.87238575  1  -1.078031  0  -0.259302  -0.488634  0  2.112563  0
O  O90  1  0.03694063  0.87238012  0.46190068  1  -1.082639  0  -0.259305  -0.488863  0  2.113826  0
O  O91  1  0.70381378  0.46194092  0.58948482  1  -1.087138  0  -0.25952  -0.489268  0  2.114017  0
O  O92  1  0.37026703  0.58957203  0.12761860  1  -1.078086  0  -0.259263  -0.488554  0  2.113059  0
O  O93  1  0.29635766  0.12758261  0.58951120  1  -1.078407  0  -0.259401  -0.488898  0  2.113478  0
O  O94  1  0.96313138  0.58960919  0.46199714  1  -1.087349  0  -0.259501  -0.48894  0  2.112262  0
O  O95  1  0.62954788  0.46191632  0.87236259  1  -1.083702  0  -0.259581  -0.489228  0  2.114125  0
O  O96  1  0.29633586  0.87242210  0.41048354  1  -1.078125  0  -0.259402  -0.489062  0  2.113047  0
O  O97  1  0.96313658  0.41048987  0.53804832  1  -1.087092  0  -0.259582  -0.489054  0  2.114245  0
O  O98  1  0.62952310  0.53807401  0.12762119  1  -1.08355  0  -0.259464  -0.489217  0  2.114326  0
