# generated using pymatgen
data_AgH8C7S2NO4
_symmetry_space_group_name_H-M   'P 1'
_cell_length_a   6.52970402
_cell_length_b   7.82705233
_cell_length_c   20.30255928
_cell_angle_alpha   97.43798242
_cell_angle_beta   90.00012868
_cell_angle_gamma   89.99996856
_symmetry_Int_Tables_number   1
_chemical_formula_structural   AgH8C7S2NO4
_chemical_formula_sum   'Ag4 H32 C28 S8 N4 O16'
_cell_volume   1028.89893117
_cell_formula_units_Z   4
loop_
 _symmetry_equiv_pos_site_id
 _symmetry_equiv_pos_as_xyz
  1  'x, y, z'
loop_
 _atom_site_type_symbol
 _atom_site_label
 _atom_site_symmetry_multiplicity
 _atom_site_fract_x
 _atom_site_fract_y
 _atom_site_fract_z
 _atom_site_occupancy
 _atom_site_hle17_bader_spin_density
 _atom_site_hle17_ddec_charge
 _atom_site_hle17_ddec_spin_density
 _atom_site_hle17_ddec_sum_bond_order
 _atom_site_hle17_magmom
 _atom_site_hse06_10hf_bader_spin_density
 _atom_site_hse06_10hf_ddec_charge
 _atom_site_hse06_10hf_ddec_spin_density
 _atom_site_hse06_10hf_ddec_sum_bond_order
 _atom_site_hse06_10hf_magmom
 _atom_site_hse06_bader_spin_density
 _atom_site_hse06_ddec_charge
 _atom_site_hse06_ddec_spin_density
 _atom_site_hse06_ddec_sum_bond_order
 _atom_site_hse06_magmom
 _atom_site_pbe_bader_spin_density
 _atom_site_pbe_cm5_charge
 _atom_site_pbe_ddec_charge
 _atom_site_pbe_ddec_spin_density
 _atom_site_pbe_ddec_sum_bond_order
 _atom_site_pbe_magmom
Ag  Ag0  1  0.71424065  0.21917668  0.46029235  1  0  0.727671  0  1.190368  0  0  0.617326  0  1.59379  0  0  0.644122  0  1.547683  0  0  0.491839  0.597724  0  1.626071  0
Ag  Ag1  1  0.21424100  0.28082313  0.03970799  1  0  0.727654  0  1.190364  0  0  0.61733  0  1.593789  0  0  0.644124  0  1.547684  0  0  0.491824  0.597726  0  1.626069  0
Ag  Ag2  1  0.28575731  0.78082175  0.53970845  1  0  0.727705  0  1.190318  0  0  0.617362  0  1.593732  0  0  0.644154  0  1.547635  0  0  0.491847  0.597757  0  1.62601  0
Ag  Ag3  1  0.78575849  0.71917529  0.96029280  1  0  0.727703  0  1.190314  0  0  0.617374  0  1.593727  0  0  0.644171  0  1.547611  0  0  0.491845  0.597771  0  1.626008  0
H  H4  1  0.14430547  0.17981044  0.54212068  1  0  0.178662  0  0.951837  0  0  0.190824  0  1.015291  0  0  0.194683  0  1.012461  0  0  0.108556  0.187965  0  1.017543  0
H  H5  1  0.64430810  0.32018748  0.95787960  1  0  0.178683  0  0.951818  0  0  0.190851  0  1.015267  0  0  0.194708  0  1.01244  0  0  0.108573  0.187993  0  1.01752  0
H  H6  1  0.85569402  0.82018799  0.45788011  1  0  0.178678  0  0.951835  0  0  0.190845  0  1.015282  0  0  0.194702  0  1.012456  0  0  0.108568  0.187986  0  1.017535  0
H  H7  1  0.35569292  0.67981095  0.04211971  1  0  0.178654  0  0.951853  0  0  0.190819  0  1.015304  0  0  0.194677  0  1.012476  0  0  0.108564  0.18796  0  1.017556  0
H  H8  1  0.08601339  0.40557128  0.56306263  1  0  0.17229  0  0.955018  0  0  0.185806  0  1.015103  0  0  0.189315  0  1.013153  0  0  0.108238  0.183244  0  1.016593  0
H  H9  1  0.58601602  0.09442665  0.93693712  1  0  0.172315  0  0.955037  0  0  0.18584  0  1.015105  0  0  0.189348  0  1.013159  0  0  0.10825  0.183279  0  1.016596  0
H  H10  1  0.91398610  0.59442843  0.43693773  1  0  0.172311  0  0.95503  0  0  0.185829  0  1.015105  0  0  0.189337  0  1.013159  0  0  0.10825  0.183268  0  1.0166  0
H  H11  1  0.41398500  0.90557048  0.06306262  1  0  0.17232  0  0.955026  0  0  0.185842  0  1.015094  0  0  0.189351  0  1.013146  0  0  0.108257  0.18328  0  1.016587  0
H  H12  1  0.34827952  0.33135644  0.56447175  1  0  0.183754  0  0.93819  0  0  0.198526  0  0.996732  0  0  0.201679  0  0.995462  0  0  0.112652  0.196217  0  0.997735  0
H  H13  1  0.84828056  0.16864272  0.93552875  1  0  0.183754  0  0.938183  0  0  0.198528  0  0.996726  0  0  0.201681  0  0.995455  0  0  0.112654  0.19622  0  0.997729  0
H  H14  1  0.65172150  0.66864327  0.43552862  1  0  0.183763  0  0.938179  0  0  0.198556  0  0.996686  0  0  0.201707  0  0.995416  0  0  0.112664  0.196248  0  0.99769  0
H  H15  1  0.15171893  0.83135699  0.06447112  1  0  0.183764  0  0.938159  0  0  0.198546  0  0.996688  0  0  0.201699  0  0.995416  0  0  0.112667  0.196238  0  0.997693  0
H  H16  1  0.45085139  0.12049530  0.27969637  1  0  0.100399  0  0.952383  0  0  0.111196  0  1.013968  0  0  0.113607  0  1.013559  0  0  0.105923  0.10931  0  1.014583  0
H  H17  1  0.95085079  0.37950574  0.22030321  1  0  0.100375  0  0.952402  0  0  0.111184  0  1.013978  0  0  0.113591  0  1.013574  0  0  0.105938  0.109306  0  1.014584  0
H  H18  1  0.54914810  0.87950828  0.72030270  1  0  0.100412  0  0.952397  0  0  0.111213  0  1.013977  0  0  0.113624  0  1.013568  0  0  0.105924  0.109326  0  1.014593  0
H  H19  1  0.04914870  0.62049526  0.77969771  1  0  0.100348  0  0.952458  0  0  0.111191  0  1.014  0  0  0.113598  0  1.013598  0  0  0.105935  0.109314  0  1.014604  0
H  H20  1  0.28106690  0.10954296  0.16972760  1  0  0.094476  0  0.96152  0  0  0.103545  0  1.025179  0  0  0.106993  0  1.02321  0  0  0.098866  0.10105  0  1.026698  0
H  H21  1  0.78106553  0.39045683  0.33027229  1  0  0.094495  0  0.961481  0  0  0.103563  0  1.025144  0  0  0.107011  0  1.023176  0  0  0.098889  0.10107  0  1.02666  0
H  H22  1  0.71892953  0.89045675  0.83027227  1  0  0.09449  0  0.961479  0  0  0.103555  0  1.025149  0  0  0.107007  0  1.023173  0  0  0.098861  0.101058  0  1.026673  0
H  H23  1  0.21893090  0.60954546  0.66972869  1  0  0.094536  0  0.961472  0  0  0.103598  0  1.025143  0  0  0.107026  0  1.023194  0  0  0.098898  0.101101  0  1.026664  0
H  H24  1  0.93089386  0.98318297  0.15286947  1  0  0.100497  0  0.972311  0  0  0.1088  0  1.034981  0  0  0.112141  0  1.032513  0  0  0.098401  0.106291  0  1.03693  0
H  H25  1  0.43089347  0.51681853  0.34712955  1  0  0.100541  0  0.972318  0  0  0.10882  0  1.035026  0  0  0.112164  0  1.032547  0  0  0.098391  0.106311  0  1.036976  0
H  H26  1  0.06910410  0.01681546  0.84713034  1  0  0.100458  0  0.972333  0  0  0.108737  0  1.03504  0  0  0.112081  0  1.032565  0  0  0.098371  0.106223  0  1.036994  0
H  H27  1  0.56910449  0.48318763  0.65287113  1  0  0.100495  0  0.972341  0  0  0.108778  0  1.035044  0  0  0.112118  0  1.032575  0  0  0.098376  0.106273  0  1.036987  0
H  H28  1  0.74911570  0.87351835  0.24693509  1  0  0.095566  0  0.950238  0  0  0.107059  0  1.007013  0  0  0.109181  0  1.007964  0  0  0.102622  0.105484  0  1.006593  0
H  H29  1  0.24911917  0.62648577  0.25306443  1  0  0.095585  0  0.950316  0  0  0.10708  0  1.007077  0  0  0.109202  0  1.008029  0  0  0.102637  0.105507  0  1.006659  0
H  H30  1  0.25088379  0.12648137  0.75306577  1  0  0.095557  0  0.950294  0  0  0.107066  0  1.007048  0  0  0.109188  0  1.007999  0  0  0.102637  0.10549  0  1.00663  0
H  H31  1  0.75088491  0.37351910  0.74693472  1  0  0.095554  0  0.950287  0  0  0.107075  0  1.007029  0  0  0.109196  0  1.007981  0  0  0.102617  0.1055  0  1.006611  0
H  H32  1  0.91705325  0.88838368  0.35717748  1  0  0.107697  0  0.965189  0  0  0.118929  0  1.026741  0  0  0.121761  0  1.024839  0  0  0.105673  0.116882  0  1.028153  0
H  H33  1  0.41705443  0.61161911  0.14282159  1  0  0.107725  0  0.965192  0  0  0.118991  0  1.026689  0  0  0.121824  0  1.024786  0  0  0.10568  0.116944  0  1.028102  0
H  H34  1  0.08294931  0.11161733  0.64282295  1  0  0.107732  0  0.965174  0  0  0.118972  0  1.026708  0  0  0.121805  0  1.024803  0  0  0.105687  0.116925  0  1.028123  0
H  H35  1  0.58294660  0.38838061  0.85717729  1  0  0.107737  0  0.965165  0  0  0.11898  0  1.026693  0  0  0.121811  0  1.024792  0  0  0.105688  0.116934  0  1.028106  0
C  C36  1  0.19834615  0.31161173  0.54072059  1  0  -0.514059  0  3.541145  0  0  -0.586554  0  3.78127  0  0  -0.593189  0  3.780714  0  0  -0.240481  -0.581814  0  3.781848  0
C  C37  1  0.69834582  0.18838617  0.95927974  1  0  -0.514142  0  3.541145  0  0  -0.58666  0  3.781278  0  0  -0.593295  0  3.78072  0  0  -0.240526  -0.581916  0  3.781846  0
C  C38  1  0.80165640  0.68838669  0.45927971  1  0  -0.514112  0  3.541185  0  0  -0.586619  0  3.781292  0  0  -0.593254  0  3.780735  0  0  -0.240514  -0.581877  0  3.781865  0
C  C39  1  0.30165674  0.81161225  0.04072007  1  0  -0.5141  0  3.541158  0  0  -0.5866  0  3.781271  0  0  -0.593235  0  3.780714  0  0  -0.240511  -0.58186  0  3.781848  0
C  C40  1  0.19376336  0.00295968  0.32397041  1  0  -0.115916  0  3.767168  0  0  -0.088145  0  4.011337  0  0  -0.096309  0  4.035054  0  0  -0.021557  -0.082865  0  3.995435  0
C  C41  1  0.69376544  0.49704142  0.17602997  1  0  -0.115936  0  3.767288  0  0  -0.088151  0  4.01143  0  0  -0.096314  0  4.035145  0  0  -0.021555  -0.08287  0  3.995529  0
C  C42  1  0.80623613  0.99704003  0.67602995  1  0  -0.115906  0  3.767224  0  0  -0.088135  0  4.011393  0  0  -0.096297  0  4.035107  0  0  -0.021586  -0.082855  0  3.995491  0
C  C43  1  0.30623558  0.50295829  0.82397039  1  0  -0.115889  0  3.767117  0  0  -0.088123  0  4.011294  0  0  -0.096289  0  4.035014  0  0  -0.021557  -0.082843  0  3.995394  0
C  C44  1  0.29762851  0.06644624  0.27197969  1  0  -0.060637  0  3.739469  0  0  -0.085732  0  3.981659  0  0  -0.085003  0  4.003226  0  0  -0.082492  -0.085987  0  3.967143  0
C  C45  1  0.79763099  0.43355742  0.22802040  1  0  -0.060558  0  3.73934  0  0  -0.08566  0  3.981517  0  0  -0.084928  0  4.003084  0  0  -0.08247  -0.085923  0  3.967001  0
C  C46  1  0.70237098  0.93355605  0.72801932  1  0  -0.06063  0  3.73945  0  0  -0.085726  0  3.981625  0  0  -0.084995  0  4.003191  0  0  -0.082475  -0.085982  0  3.967109  0
C  C47  1  0.20236850  0.56644358  0.77198101  1  0  -0.060563  0  3.739424  0  0  -0.085695  0  3.981608  0  0  -0.084962  0  4.003169  0  0  -0.082463  -0.08596  0  3.967089  0
C  C48  1  0.20125027  0.05978659  0.21045857  1  0  -0.072719  0  3.738987  0  0  -0.079324  0  3.981439  0  0  -0.083918  0  4.003444  0  0  -0.087282  -0.076225  0  3.966462  0
C  C49  1  0.70124399  0.44021709  0.28954195  1  0  -0.072715  0  3.739027  0  0  -0.079325  0  3.981482  0  0  -0.083922  0  4.003486  0  0  -0.087334  -0.076228  0  3.96651  0
C  C50  1  0.79874922  0.94021441  0.78954136  1  0  -0.072757  0  3.738951  0  0  -0.079367  0  3.981396  0  0  -0.083965  0  4.003402  0  0  -0.087287  -0.076268  0  3.966418  0
C  C51  1  0.29874938  0.55978907  0.71045923  1  0  -0.072758  0  3.738925  0  0  -0.079361  0  3.981387  0  0  -0.083939  0  4.003395  0  0  -0.087338  -0.076262  0  3.966415  0
C  C52  1  0.00459783  0.98951816  0.20122342  1  0  -0.042949  0  3.717712  0  0  -0.059623  0  3.964985  0  0  -0.058766  0  3.984427  0  0  -0.082942  -0.059971  0  3.951766  0
C  C53  1  0.50459955  0.51048601  0.29877592  1  0  -0.043092  0  3.717939  0  0  -0.059757  0  3.965202  0  0  -0.0589  0  3.984649  0  0  -0.08298  -0.060103  0  3.951984  0
C  C54  1  0.99539859  0.01048156  0.79877645  1  0  -0.04288  0  3.717763  0  0  -0.059532  0  3.965031  0  0  -0.058677  0  3.984476  0  0  -0.082928  -0.059876  0  3.951812  0
C  C55  1  0.49539841  0.48951757  0.70122316  1  0  -0.042999  0  3.717836  0  0  -0.059663  0  3.965113  0  0  -0.058805  0  3.984549  0  0  -0.08295  -0.060014  0  3.951889  0
C  C56  1  0.90240596  0.92810287  0.25383729  1  0  -0.060969  0  3.734015  0  0  -0.071162  0  3.980796  0  0  -0.075072  0  4.002545  0  0  -0.085151  -0.068653  0  3.96618  0
C  C57  1  0.40240482  0.57190249  0.24616141  1  0  -0.060943  0  3.734035  0  0  -0.071133  0  3.980805  0  0  -0.075043  0  4.002553  0  0  -0.085089  -0.068629  0  3.966194  0
C  C58  1  0.09759506  0.07189684  0.74616357  1  0  -0.060973  0  3.734056  0  0  -0.071186  0  3.980834  0  0  -0.075096  0  4.002583  0  0  -0.085169  -0.068679  0  3.966219  0
C  C59  1  0.59759160  0.42809980  0.75383711  1  0  -0.060955  0  3.734126  0  0  -0.071168  0  3.980888  0  0  -0.075076  0  4.002637  0  0  -0.08512  -0.068661  0  3.966276  0
C  C60  1  0.99632774  0.93496562  0.31590742  1  0  -0.068007  0  3.73861  0  0  -0.094186  0  3.984521  0  0  -0.092537  0  4.003629  0  0  -0.08392  -0.095061  0  3.97157  0
C  C61  1  0.49633077  0.56503715  0.18409073  1  0  -0.068054  0  3.738736  0  0  -0.094259  0  3.98463  0  0  -0.09261  0  4.003737  0  0  -0.083974  -0.095134  0  3.971678  0
C  C62  1  0.00367329  0.06503409  0.68409294  1  0  -0.068063  0  3.738617  0  0  -0.094247  0  3.98453  0  0  -0.092596  0  4.003633  0  0  -0.083917  -0.095124  0  3.971581  0
C  C63  1  0.50367332  0.43496385  0.81590674  1  0  -0.068054  0  3.738702  0  0  -0.094238  0  3.984612  0  0  -0.092589  0  4.003722  0  0  -0.083941  -0.095114  0  3.971661  0
S  S64  1  0.22549409  0.34003816  0.45638727  1  0  1.353059  0  5.3529  0  0  1.269249  0  5.853965  0  0  1.31285  0  5.840208  0  0  0.546291  1.239017  0  5.862419  0
S  S65  1  0.72549547  0.15996036  0.04361301  1  0  1.353173  0  5.352707  0  0  1.269374  0  5.853756  0  0  1.312979  0  5.839992  0  0  0.546361  1.239142  0  5.862212  0
S  S66  1  0.77450386  0.65995769  0.54361290  1  0  1.353081  0  5.352571  0  0  1.269257  0  5.853649  0  0  1.312859  0  5.839894  0  0  0.546326  1.239022  0  5.862102  0
S  S67  1  0.27450556  0.84003807  0.95638680  1  0  1.353088  0  5.352701  0  0  1.269282  0  5.853764  0  0  1.312876  0  5.840006  0  0  0.54633  1.239052  0  5.862216  0
S  S68  1  0.32466389  0.00231963  0.40021946  1  0  1.235111  0  5.434324  0  0  1.145978  0  5.928731  0  0  1.191752  0  5.913519  0  0  0.543472  1.114357  0  5.93819  0
S  S69  1  0.82466697  0.49768016  0.09978095  1  0  1.235155  0  5.43431  0  0  1.14605  0  5.928679  0  0  1.191829  0  5.913466  0  0  0.543488  1.114425  0  5.938138  0
S  S70  1  0.67533866  0.99767880  0.59978084  1  0  1.235057  0  5.434334  0  0  1.145895  0  5.928771  0  0  1.191672  0  5.91356  0  0  0.543425  1.114268  0  5.938228  0
S  S71  1  0.17533712  0.50231956  0.90021941  1  0  1.235189  0  5.434174  0  0  1.14606  0  5.928588  0  0  1.191828  0  5.913379  0  0  0.543479  1.114439  0  5.938048  0
N  N72  1  0.39415098  0.20140497  0.42468667  1  0  -0.829387  0  3.061409  0  0  -0.751909  0  3.405242  0  0  -0.779745  0  3.398144  0  0  -0.450279  -0.732223  0  3.409099  0
N  N73  1  0.89415095  0.29859480  0.07531379  1  0  -0.829477  0  3.061445  0  0  -0.752023  0  3.405339  0  0  -0.77986  0  3.39824  0  0  -0.450309  -0.732333  0  3.409193  0
N  N74  1  0.60585004  0.79859346  0.57531363  1  0  -0.829451  0  3.061437  0  0  -0.751934  0  3.405222  0  0  -0.779777  0  3.398129  0  0  -0.45028  -0.732237  0  3.409073  0
N  N75  1  0.10585007  0.70140362  0.92468602  1  0  -0.829439  0  3.061378  0  0  -0.751977  0  3.405236  0  0  -0.779806  0  3.398133  0  0  -0.450291  -0.732292  0  3.409093  0
O  O76  1  0.30960044  0.51078981  0.45242440  1  0  -0.643705  0  2.000513  0  0  -0.584126  0  2.270867  0  0  -0.606442  0  2.255581  0  0  -0.318388  -0.568321  0  2.280881  0
O  O77  1  0.80960009  0.98920914  0.04757588  1  0  -0.643736  0  2.000494  0  0  -0.584152  0  2.270828  0  0  -0.606474  0  2.255551  0  0  -0.318404  -0.568349  0  2.280844  0
O  O78  1  0.69039292  0.48920604  0.54757528  1  0  -0.643709  0  2.000367  0  0  -0.584124  0  2.270721  0  0  -0.606421  0  2.25541  0  0  -0.318419  -0.56832  0  2.280735  0
O  O79  1  0.19039480  0.01079187  0.95242405  1  0  -0.643719  0  2.000399  0  0  -0.584137  0  2.270731  0  0  -0.606454  0  2.255461  0  0  -0.318404  -0.568332  0  2.280744  0
O  O80  1  0.02594436  0.30623882  0.42336594  1  0  -0.682748  0  2.070065  0  0  -0.609215  0  2.3505  0  0  -0.634355  0  2.336089  0  0  -0.33753  -0.591391  0  2.35989  0
O  O81  1  0.52594288  0.19375845  0.07663413  1  0  -0.68277  0  2.069964  0  0  -0.609245  0  2.350406  0  0  -0.634385  0  2.335993  0  0  -0.337564  -0.591422  0  2.359794  0
O  O82  1  0.97405666  0.69375445  0.57663459  1  0  -0.682743  0  2.069868  0  0  -0.609225  0  2.350348  0  0  -0.634364  0  2.335928  0  0  -0.337556  -0.591401  0  2.359733  0
O  O83  1  0.47405508  0.80624512  0.92336593  1  0  -0.682764  0  2.070033  0  0  -0.609241  0  2.3505  0  0  -0.634371  0  2.336078  0  0  -0.33757  -0.591418  0  2.359885  0
O  O84  1  0.51576257  0.90983157  0.38704295  1  0  -0.608058  0  1.96852  0  0  -0.561054  0  2.229422  0  0  -0.583513  0  2.218376  0  0  -0.309283  -0.545035  0  2.236308  0
O  O85  1  0.01576202  0.59016872  0.11295669  1  0  -0.607972  0  1.968493  0  0  -0.561031  0  2.229446  0  0  -0.583493  0  2.218405  0  0  -0.309263  -0.545008  0  2.236322  0
O  O86  1  0.48424152  0.09016814  0.61295642  1  0  -0.608007  0  1.968477  0  0  -0.561012  0  2.229408  0  0  -0.583489  0  2.2184  0  0  -0.309268  -0.544988  0  2.236283  0
O  O87  1  0.98424053  0.40982970  0.88704410  1  0  -0.608066  0  1.968446  0  0  -0.561056  0  2.229351  0  0  -0.583515  0  2.218304  0  0  -0.309268  -0.545038  0  2.236234  0
O  O88  1  0.18164655  0.93799806  0.44698669  1  0  -0.650042  0  2.063658  0  0  -0.586228  0  2.343009  0  0  -0.609247  0  2.327493  0  0  -0.323229  -0.570014  0  2.353273  0
O  O89  1  0.68164499  0.56200091  0.05301300  1  0  -0.650067  0  2.063612  0  0  -0.586248  0  2.342959  0  0  -0.60928  0  2.327454  0  0  -0.323217  -0.570033  0  2.353221  0
O  O90  1  0.81836060  0.06199650  0.55301144  1  0  -0.650001  0  2.063617  0  0  -0.586155  0  2.342944  0  0  -0.609183  0  2.32744  0  0  -0.32316  -0.569939  0  2.353205  0
O  O91  1  0.31835910  0.43800138  0.94698749  1  0  -0.650071  0  2.063583  0  0  -0.586259  0  2.342931  0  0  -0.609276  0  2.327416  0  0  -0.323243  -0.570046  0  2.353195  0
