# generated using pymatgen
data_MgH8C14NO4
_symmetry_space_group_name_H-M   'P 1'
_cell_length_a   6.83772359
_cell_length_b   42.29144381
_cell_length_c   42.29524889
_cell_angle_alpha   119.72178011
_cell_angle_beta   93.08694723
_cell_angle_gamma   93.08205378
_symmetry_Int_Tables_number   1
_chemical_formula_structural   MgH8C14NO4
_chemical_formula_sum   'Mg6 H48 C84 N6 O24'
_cell_volume   10560.60243951
_cell_formula_units_Z   6
loop_
 _symmetry_equiv_pos_site_id
 _symmetry_equiv_pos_as_xyz
  1  'x, y, z'
loop_
 _atom_site_type_symbol
 _atom_site_label
 _atom_site_symmetry_multiplicity
 _atom_site_fract_x
 _atom_site_fract_y
 _atom_site_fract_z
 _atom_site_occupancy
 _atom_site_pbe_bader_charge
 _atom_site_pbe_bader_spin_density
 _atom_site_pbe_cm5_charge
 _atom_site_pbe_ddec_charge
 _atom_site_pbe_ddec_spin_density
 _atom_site_pbe_ddec_sum_bond_order
 _atom_site_pbe_magmom
Mg  Mg0  1  0.49878467  0.63927908  0.32816184  1  1.683889  0  0.91438  1.412599  0  1.325487  0
Mg  Mg1  1  0.17065206  0.67180274  0.31114413  1  1.684141  0  0.914493  1.412864  0  1.325076  0
Mg  Mg2  1  0.85937225  0.68885602  0.36069727  1  1.684228  0  0.91452  1.412684  0  1.324546  0
Mg  Mg3  1  0.34507135  0.35900182  0.66854187  1  1.68464  0  0.908901  1.408991  0  1.327489  0
Mg  Mg4  1  0.67655342  0.33144914  0.69043779  1  1.683852  0  0.908874  1.408737  0  1.327584  0
Mg  Mg5  1  0.98612862  0.30954927  0.64097931  1  1.682028  0  0.909096  1.408488  0  1.32868  0
H  H6  1  0.41978679  0.55551187  0.11255279  1  0.42353  0  0.321574  0.27459  0  0.936863  0
H  H7  1  0.30703817  0.88741158  0.44291641  1  0.416825  0  0.321883  0.275024  0  0.937403  0
H  H8  1  0.86424999  0.55707628  0.44454014  1  0.4243  0  0.321773  0.27535  0  0.936739  0
H  H9  1  0.93422238  0.53399313  0.09760424  1  0.128405  0  0.101308  0.1178  0  1.044105  0
H  H10  1  0.83627503  0.90235488  0.43625423  1  0.12828  0  0.101268  0.117723  0  1.044012  0
H  H11  1  0.40024810  0.56369775  0.46605091  1  0.089764  0  0.101377  0.118077  0  1.043127  0
H  H12  1  0.05035324  0.50103497  0.03634900  1  0.041441  0  0.094673  0.08714  0  1.039574  0
H  H13  1  0.01362698  0.96361127  0.46465330  1  0.04604  0  0.094798  0.08744  0  1.039898  0
H  H14  1  0.54948864  0.53533239  0.49893296  1  0.056674  0  0.094375  0.08709  0  1.039722  0
H  H15  1  0.07411120  0.45279497  0.98564670  1  0.04604  0  0.102373  0.101097  0  1.00354  0
H  H16  1  0.08787294  0.01429580  0.46715122  1  0.039799  0  0.10201  0.100514  0  1.00481  0
H  H17  1  0.62112481  0.53290187  0.54723340  1  0.06289  0  0.102219  0.100627  0  1.004701  0
H  H18  1  0.21916149  0.42618428  0.92682772  1  0.103769  0  0.108739  0.129072  0  1.01205  0
H  H19  1  0.29189875  0.07308820  0.49933825  1  0.116034  0  0.108683  0.128551  0  1.012431  0
H  H20  1  0.79276574  0.50070068  0.57385131  1  0.102923  0  0.108605  0.12866  0  1.012476  0
H  H21  1  0.00350791  0.43356850  0.84870428  1  0.43231  0  0.315952  0.264675  0  0.952123  0
H  H22  1  0.15446205  0.15126276  0.58488344  1  0.433831  0  0.315872  0.264414  0  0.952265  0
H  H23  1  0.56983736  0.41517567  0.56644504  1  0.448157  0  0.315848  0.26405  0  0.952116  0
H  H24  1  0.02321510  0.38504487  0.79402491  1  0.07922  0  0.106654  0.106783  0  1.018722  0
H  H25  1  0.22903478  0.20598673  0.59105840  1  0.097539  0  0.106545  0.106588  0  1.018729  0
H  H26  1  0.63798785  0.40900801  0.61499825  1  0.089219  0  0.106687  0.10657  0  1.018855  0
H  H27  1  0.72236243  0.40337441  0.77571985  1  0.075736  0  0.103825  0.119068  0  1.016609  0
H  H28  1  0.94660347  0.22418970  0.62757640  1  0.094437  0  0.103658  0.119165  0  1.016691  0
H  H29  1  0.31893641  0.37238120  0.59658447  1  0.072496  0  0.103861  0.119247  0  1.015981  0
H  H30  1  0.62157876  0.42432649  0.83904569  1  0.08216  0  0.104146  0.098636  0  1.032121  0
H  H31  1  0.78224395  0.16088198  0.58526558  1  0.107077  0  0.103953  0.098723  0  1.031867  0
H  H32  1  0.19696786  0.41474573  0.57565800  1  0.091234  0  0.104154  0.098991  0  1.031728  0
H  H33  1  0.79020761  0.47255387  0.88720919  1  0.037575  0  0.098847  0.099064  0  1.010517  0
H  H34  1  0.90291097  0.11273936  0.58539782  1  0.045959  0  0.099001  0.098483  0  1.010759  0
H  H35  1  0.31758958  0.41467634  0.52741704  1  0.041501  0  0.098777  0.09847  0  1.010243  0
H  H36  1  0.64757830  0.49955665  0.94607209  1  0.068308  0  0.103701  0.102234  0  0.998752  0
H  H37  1  0.70128676  0.05389800  0.55356056  1  0.067832  0  0.103639  0.10261  0  0.998216  0
H  H38  1  0.14790835  0.44655126  0.50043658  1  0.08183  0  0.10378  0.10271  0  0.999  0
H  H39  1  0.47128307  0.49625299  0.98770544  1  0.068602  0  0.101388  0.101491  0  1.014944  0
H  H40  1  0.48315221  0.01224063  0.50854484  1  0.063956  0  0.101422  0.101801  0  1.0145  0
H  H41  1  0.97520842  0.49152235  0.50376631  1  0.029138  0  0.101468  0.10183  0  1.01498  0
H  H42  1  0.35741172  0.53038054  0.04905284  1  0.04943  0  0.099751  0.104605  0  1.018226  0
H  H43  1  0.30798464  0.95088299  0.48126293  1  0.040479  0  0.099725  0.104823  0  1.017562  0
H  H44  1  0.82705924  0.51873887  0.46965598  1  0.03786  0  0.099915  0.104866  0  1.017221  0
H  H45  1  0.85050900  0.61750476  0.20946616  1  0.111149  0  0.109823  0.113963  0  1.028196  0
H  H46  1  0.64071157  0.79050009  0.40804191  1  0.133805  0  0.109722  0.114194  0  1.02737  0
H  H47  1  0.23285614  0.59197800  0.38251938  1  0.130016  0  0.109972  0.1144  0  1.027201  0
H  H48  1  0.14148297  0.59678650  0.21807320  1  0.073133  0  0.109593  0.128986  0  1.002133  0
H  H49  1  0.92306150  0.78194858  0.37874172  1  0.097513  0  0.109384  0.12832  0  1.00309  0
H  H50  1  0.54445701  0.62128132  0.40323826  1  0.094314  0  0.109456  0.128263  0  1.00273  0
H  H51  1  0.26482197  0.57099369  0.15816589  1  0.087703  0  0.106474  0.103855  0  1.005312  0
H  H52  1  0.10632150  0.84184920  0.41287683  1  0.064184  0  0.106463  0.1034  0  1.00558  0
H  H53  1  0.69356728  0.58713923  0.42899482  1  0.062511  0  0.106356  0.103519  0  1.005455  0
C  C54  1  0.67981175  0.57447469  0.14543709  1  1.354145  0  0.2349  0.475359  0  4.13219  0
C  C55  1  0.53419068  0.85452561  0.42898722  1  1.356555  0  0.235274  0.476842  0  4.133477  0
C  C56  1  0.10521647  0.57101305  0.42557288  1  1.366781  0  0.235691  0.477017  0  4.131457  0
C  C57  1  0.63874105  0.53492935  0.07779281  1  0.327151  0  0.092986  0.248092  0  4.030639  0
C  C58  1  0.56058767  0.92216004  0.45701461  1  0.34361  0  0.092384  0.247831  0  4.033235  0
C  C59  1  0.10388340  0.54296797  0.46514602  1  0.335355  0  0.092751  0.247401  0  4.031491  0
C  C60  1  0.83378943  0.52565940  0.07352777  1  -0.060953  0  -0.104222  -0.180811  0  3.989299  0
C  C61  1  0.75985002  0.92643137  0.45200665  1  -0.06767  0  -0.10389  -0.179852  0  3.990239  0
C  C62  1  0.30820007  0.54796062  0.47440339  1  0.026048  0  -0.103755  -0.179557  0  3.987997  0
C  C63  1  0.89698214  0.50700223  0.03876917  1  0.007529  0  -0.095279  -0.120374  0  4.024155  0
C  C64  1  0.85780921  0.96118927  0.46817517  1  -0.033822  0  -0.09524  -0.121607  0  4.026519  0
C  C65  1  0.39014995  0.53183033  0.49302021  1  -0.10596  0  -0.095575  -0.122392  0  4.025772  0
C  C66  1  0.77238624  0.49657299  0.00700158  1  0.010386  0  -0.01622  0.05195  0  4.023596  0
C  C67  1  0.76492474  0.99294340  0.48955699  1  -0.019939  0  -0.015811  0.05257  0  4.025054  0
C  C68  1  0.27593447  0.51049403  0.50344335  1  0.030359  0  -0.015779  0.054469  0  4.022755  0
C  C69  1  0.85052197  0.47877511  0.97089831  1  -0.030595  0  -0.013045  0.054264  0  4.01416  0
C  C70  1  0.87912482  0.02904941  0.50789542  1  0.033965  0  -0.013013  0.056025  0  4.012699  0
C  C71  1  0.37166362  0.49217206  0.52123527  1  -0.034438  0  -0.013266  0.053405  0  4.01532  0
C  C72  1  0.01193243  0.45772137  0.96435404  1  0.017666  0  -0.090665  -0.117254  0  4.000517  0
C  C73  1  0.04701045  0.03558976  0.49337474  1  -0.018749  0  -0.090129  -0.117441  0  4.000423  0
C  C74  1  0.55403455  0.50668394  0.54230747  1  -0.062207  0  -0.090214  -0.116838  0  4.002317  0
C  C75  1  0.09409129  0.44218184  0.93110647  1  -0.023005  0  -0.098013  -0.176842  0  3.976078  0
C  C76  1  0.16255143  0.06882819  0.51106595  1  0.012605  0  -0.097969  -0.175526  0  3.975791  0
C  C77  1  0.65169266  0.48898690  0.55786170  1  0.060925  0  -0.098375  -0.176298  0  3.977557  0
C  C78  1  0.01446329  0.44741463  0.90289779  1  0.314116  0  0.089534  0.238122  0  4.042588  0
C  C79  1  0.11125825  0.09705001  0.54452462  1  0.275722  0  0.090004  0.237897  0  4.041897  0
C  C80  1  0.56689386  0.45553381  0.55260226  1  0.291773  0  0.090058  0.237799  0  4.042447  0
C  C81  1  0.27412690  0.42162726  0.86006440  1  1.386031  0  0.233128  0.467729  0  4.148069  0
C  C82  1  0.41362167  0.13988973  0.56154189  1  1.429579  0  0.233742  0.469366  0  4.147253  0
C  C83  1  0.85235915  0.43850983  0.57840362  1  1.400965  0  0.233666  0.469387  0  4.146075  0
C  C84  1  0.31561664  0.40799780  0.82120458  1  -0.033779  0  -0.027227  -0.060204  0  4.030788  0
C  C85  1  0.49413862  0.17874825  0.58677981  1  -0.017642  0  -0.02709  -0.060706  0  4.030229  0
C  C86  1  0.90744868  0.41328507  0.59204431  1  0.000521  0  -0.027485  -0.06152  0  4.030667  0
C  C87  1  0.17693994  0.39050244  0.79100605  1  -0.025512  0  -0.081659  -0.100455  0  3.980384  0
C  C88  1  0.38580445  0.20897627  0.59949798  1  -0.09684  0  -0.081257  -0.099472  0  3.978613  0
C  C89  1  0.78632492  0.40056372  0.60953674  1  -0.067168  0  -0.080943  -0.098949  0  3.977659  0
C  C90  1  0.22960907  0.37711662  0.75502035  1  0.019009  0  -0.040474  -0.20411  0  3.950385  0
C  C91  1  0.47466062  0.24495837  0.62207622  1  -0.005361  0  -0.040652  -0.205145  0  3.95061  0
C  C92  1  0.85258483  0.37795812  0.62290718  1  0.005972  0  -0.040826  -0.20436  0  3.950149  0
C  C93  1  0.43079056  0.38245378  0.74937251  1  0.547811  0  0.100154  0.376863  0  4.060723  0
C  C94  1  0.68150905  0.25059506  0.63302007  1  0.549957  0  0.10032  0.377029  0  4.061626  0
C  C95  1  0.04844093  0.36697963  0.61756967  1  0.560613  0  0.099914  0.376164  0  4.062828  0
C  C96  1  0.56939593  0.40002111  0.78043171  1  -0.009777  0  -0.107407  -0.218373  0  3.977329  0
C  C97  1  0.78891477  0.21950674  0.61952688  1  -0.014112  0  -0.107265  -0.219082  0  3.976789  0
C  C98  1  0.16929580  0.38045350  0.59997266  1  -0.004691  0  -0.107505  -0.218665  0  3.976339  0
C  C99  1  0.51393670  0.41185399  0.81517872  1  -0.046168  0  -0.072728  -0.047819  0  3.984591  0
C  C100  1  0.69850231  0.18475899  0.59664743  1  -0.047534  0  -0.072731  -0.047636  0  3.983671  0
C  C101  1  0.10185355  0.40337532  0.58815632  1  -0.041906  0  -0.072883  -0.048118  0  3.984177  0
C  C102  1  0.07508840  0.35657256  0.72452397  1  1.515453  0  0.238277  0.677758  0  4.118812  0
C  C103  1  0.35063592  0.27546977  0.63205921  1  1.524497  0  0.238086  0.677614  0  4.119986  0
C  C104  1  0.71860381  0.36796043  0.64341683  1  1.486979  0  0.237617  0.676815  0  4.119393  0
C  C105  1  0.85239959  0.46802973  0.90882478  1  -0.027206  0  -0.100156  -0.184946  0  4.01612  0
C  C106  1  0.94345276  0.09111235  0.55925064  1  -0.032475  0  -0.100413  -0.183935  0  4.015955  0
C  C107  1  0.38431254  0.44082589  0.53195263  1  -0.024451  0  -0.100522  -0.184577  0  4.015701  0
C  C108  1  0.77180895  0.48329388  0.94215837  1  -0.020572  0  -0.086359  -0.097741  0  3.988036  0
C  C109  1  0.82935723  0.05779594  0.54118802  1  -0.035184  0  -0.08642  -0.099013  0  3.988109  0
C  C110  1  0.28836038  0.45890684  0.51670885  1  -0.023375  0  -0.085844  -0.097425  0  3.98879  0
C  C111  1  0.57563874  0.50488455  0.01158340  1  -0.110579  0  -0.091242  -0.113372  0  3.995111  0
C  C112  1  0.56361698  0.98835756  0.49326523  1  -0.029295  0  -0.091746  -0.114986  0  3.997618  0
C  C113  1  0.07089829  0.50677735  0.49513771  1  0.005416  0  -0.091705  -0.115344  0  3.996221  0
C  C114  1  0.51016269  0.52380481  0.04628926  1  0.014976  0  -0.104691  -0.198104  0  4.006451  0
C  C115  1  0.46343883  0.95365660  0.47742490  1  -0.018921  0  -0.103777  -0.197068  0  4.007043  0
C  C116  1  0.98639789  0.52256855  0.47624348  1  -0.042025  0  -0.103929  -0.196773  0  4.005246  0
C  C117  1  0.57355705  0.59135097  0.17921196  1  -0.046018  0  -0.034185  -0.08279  0  4.044096  0
C  C118  1  0.39402059  0.82077627  0.41214339  1  0.021822  0  -0.034575  -0.084016  0  4.04588  0
C  C119  1  0.98201852  0.58785914  0.40866258  1  -0.06003  0  -0.034652  -0.083264  0  4.044666  0
C  C120  1  0.69481199  0.61272530  0.21139755  1  0.059413  0  -0.072821  -0.065956  0  3.97045  0
C  C121  1  0.48307247  0.78858423  0.40134595  1  -0.082538  0  -0.072859  -0.066216  0  3.96918  0
C  C122  1  0.08188955  0.59866594  0.38728564  1  0.030414  0  -0.072814  -0.066236  0  3.969613  0
C  C123  1  0.62593330  0.62765136  0.24597698  1  -0.059016  0  -0.041006  -0.209368  0  3.974594  0
C  C124  1  0.37955484  0.75400942  0.38169046  1  0.016727  0  -0.040312  -0.209449  0  3.973335  0
C  C125  1  0.99797359  0.61829521  0.37233889  1  -0.05942  0  -0.040706  -0.209276  0  3.973712  0
C  C126  1  0.42209299  0.62101767  0.24908845  1  0.616494  0  0.101661  0.37703  0  4.071607  0
C  C127  1  0.17257689  0.75091013  0.37195614  1  0.582906  0  0.102007  0.377044  0  4.070654  0
C  C128  1  0.80071127  0.62803020  0.37896090  1  0.597156  0  0.101846  0.37613  0  4.071869  0
C  C129  1  0.29790003  0.60111448  0.21616786  1  0.063101  0  -0.102329  -0.209991  0  3.939619  0
C  C130  1  0.08137107  0.78384448  0.38498772  1  -0.034019  0  -0.10163  -0.208303  0  3.93964  0
C  C131  1  0.69654155  0.61503201  0.39889072  1  -0.003285  0  -0.102412  -0.208855  0  3.939879  0
C  C132  1  0.37084675  0.58648783  0.18213541  1  -0.147044  0  -0.074656  -0.062208  0  3.983692  0
C  C133  1  0.18836192  0.81787232  0.40439355  1  -0.031731  0  -0.0748  -0.061688  0  3.984338  0
C  C134  1  0.78411196  0.59562083  0.41350832  1  -0.068259  0  -0.074188  -0.06161  0  3.983076  0
C  C135  1  0.77266209  0.64907474  0.27754857  1  1.486515  0  0.240816  0.683789  0  4.118666  0
C  C136  1  0.49472442  0.72243253  0.37154150  1  1.509229  0  0.24082  0.684974  0  4.118685  0
C  C137  1  0.12335125  0.62844096  0.35091882  1  1.525089  0  0.240995  0.683764  0  4.117246  0
N  N138  1  0.56775797  0.55446330  0.11237040  1  -1.234739  0  -0.395711  -0.375298  0  3.566829  0
N  N139  1  0.45515548  0.88758774  0.44200959  1  -1.220458  0  -0.396844  -0.377278  0  3.569358  0
N  N140  1  0.01328061  0.55798568  0.44560587  1  -1.205875  0  -0.396763  -0.377316  0  3.569122  0
N  N141  1  0.08846666  0.43229572  0.86839133  1  -1.238414  0  -0.399902  -0.377966  0  3.589967  0
N  N142  1  0.21971835  0.13156675  0.56391234  1  -1.244728  0  -0.400847  -0.379028  0  3.589922  0
N  N143  1  0.65604172  0.43613659  0.56770779  1  -1.266304  0  -0.400488  -0.377804  0  3.58868  0
O  O144  1  0.94568121  0.65781275  0.27314668  1  -1.240489  0  -0.35641  -0.640434  0  2.150671  0
O  O145  1  0.67205174  0.72682701  0.38472024  1  -1.243254  0  -0.356665  -0.640787  0  2.150077  0
O  O146  1  0.28755017  0.61526912  0.34214273  1  -1.242461  0  -0.356816  -0.640426  0  2.148388  0
O  O147  1  0.72179028  0.65811495  0.30979017  1  -1.295486  0  -0.406538  -0.771912  0  2.425335  0
O  O148  1  0.41176378  0.69018395  0.34831535  1  -1.305221  0  -0.406575  -0.77266  0  2.426939  0
O  O149  1  0.06357244  0.65167756  0.34191461  1  -1.294377  0  -0.406345  -0.771648  0  2.425833  0
O  O150  1  0.34750989  0.63253159  0.28126789  1  -1.306605  0  -0.437385  -0.771142  0  2.297985  0
O  O151  1  0.06589155  0.71872716  0.35127617  1  -1.309991  0  -0.437724  -0.77128  0  2.297184  0
O  O152  1  0.71455900  0.64867862  0.36743097  1  -1.303845  0  -0.437784  -0.770776  0  2.298275  0
O  O153  1  0.90106285  0.34970308  0.73023360  1  -1.239289  0  -0.353097  -0.64133  0  2.154276  0
O  O154  1  0.17093814  0.26977184  0.61946908  1  -1.242003  0  -0.353324  -0.64136  0  2.15507  0
O  O155  1  0.55142785  0.38052815  0.65029203  1  -1.238877  0  -0.353032  -0.641075  0  2.154759  0
O  O156  1  0.12003178  0.34561060  0.69149302  1  -1.294445  0  -0.40188  -0.770178  0  2.410856  0
O  O157  1  0.42857952  0.30849878  0.65413775  1  -1.302735  0  -0.402231  -0.770083  0  2.41179  0
O  O158  1  0.77448914  0.34587522  0.65435778  1  -1.29456  0  -0.401808  -0.76992  0  2.410746  0
O  O159  1  0.49602866  0.37124240  0.71645134  1  -1.306286  0  -0.447001  -0.774692  0  2.306475  0
O  O160  1  0.77966632  0.28352064  0.65471475  1  -1.309619  0  -0.447214  -0.774265  0  2.306837  0
O  O161  1  0.12488735  0.34526545  0.62877707  1  -1.310484  0  -0.44674  -0.774014  0  2.307387  0
O  O162  1  0.86224768  0.57799011  0.14775112  1  -1.096774  0  -0.300409  -0.484503  0  2.117249  0
O  O163  1  0.71428050  0.85219167  0.43016193  1  -1.126772  0  -0.300433  -0.484757  0  2.118357  0
O  O164  1  0.28419015  0.56982241  0.42206514  1  -1.128204  0  -0.300708  -0.485372  0  2.116021  0
O  O165  1  0.40331191  0.42357162  0.88273899  1  -1.12278  0  -0.29084  -0.467482  0  2.104983  0
O  O166  1  0.52004975  0.11720129  0.54078066  1  -1.129169  0  -0.290799  -0.467811  0  2.104385  0
O  O167  1  0.97957855  0.45924212  0.57646081  1  -1.123523  0  -0.290707  -0.467901  0  2.104376  0
