# generated using pymatgen
data_ZnH9C12Br2N3O4
_symmetry_space_group_name_H-M   'P 1'
_cell_length_a   7.88892892
_cell_length_b   9.23943638
_cell_length_c   17.51961710
_cell_angle_alpha   85.50011949
_cell_angle_beta   100.50162276
_cell_angle_gamma   90.14490022
_symmetry_Int_Tables_number   1
_chemical_formula_structural   ZnH9C12Br2N3O4
_chemical_formula_sum   'Zn2 H18 C24 Br4 N6 O8'
_cell_volume   1251.64128246
_cell_formula_units_Z   2
loop_
 _symmetry_equiv_pos_site_id
 _symmetry_equiv_pos_as_xyz
  1  'x, y, z'
loop_
 _atom_site_type_symbol
 _atom_site_label
 _atom_site_symmetry_multiplicity
 _atom_site_fract_x
 _atom_site_fract_y
 _atom_site_fract_z
 _atom_site_occupancy
 _atom_site_pbe_bader_charge
 _atom_site_pbe_bader_spin_density
 _atom_site_pbe_cm5_charge
 _atom_site_pbe_ddec_charge
 _atom_site_pbe_ddec_spin_density
 _atom_site_pbe_ddec_sum_bond_order
 _atom_site_pbe_magmom
Zn  Zn0  1  0.34239671  0.52678045  0.48703316  1  1.285019  0  0.687571  0.833492  0  2.422388  0
Zn  Zn1  1  0.67721381  0.52508752  0.51971872  1  1.301247  0  0.693217  0.844695  0  2.442375  0
H  H2  1  0.59146686  0.33302198  0.01875081  1  0.105865  0  0.090959  0.09982  0  1.024527  0
H  H3  1  0.46105367  0.64894604  0.99003808  1  0.056371  0  0.10274  0.101074  0  1.016754  0
H  H4  1  0.21656400  0.62164835  0.03212666  1  0.413274  0  0.298416  0.24714  0  0.954362  0
H  H5  1  0.12022647  0.86883123  0.02152854  1  0.052349  0  0.099608  0.112399  0  0.984585  0
H  H6  1  0.35024639  0.86850544  0.03065060  1  0.02076  0  0.082876  0.084033  0  1.017233  0
H  H7  1  0.25408186  0.89326885  0.11295705  1  0.064627  0  0.104378  0.114697  0  0.991657  0
H  H8  1  0.76326494  0.61946344  0.96805374  1  0.403087  0  0.283595  0.229854  0  1.007586  0
H  H9  1  0.74195501  0.88396223  0.86477648  1  0.032765  0  0.09761  0.103661  0  0.999467  0
H  H10  1  0.73994624  0.85683562  0.96572265  1  0.036214  0  0.102121  0.111285  0  0.986352  0
H  H11  1  0.54735501  0.83468741  0.89690053  1  0.039504  0  0.08576  0.084319  0  1.026434  0
H  H12  1  0.78769328  0.73924824  0.78615859  1  0.422871  0  0.300226  0.243619  0  0.962871  0
H  H13  1  0.51855177  0.88585496  0.74572072  1  0.014266  0  0.075009  0.066379  0  1.050546  0
H  H14  1  0.46973031  0.77584992  0.66596376  1  0.063095  0  0.097342  0.116974  0  1.004419  0
H  H15  1  0.65045847  0.89193607  0.67245077  1  0.061539  0  0.098472  0.114848  0  0.992425  0
H  H16  1  0.14459899  0.70819780  0.18383844  1  0.470892  0  0.304001  0.241375  0  0.992039  0
H  H17  1  0.13599499  0.86858423  0.27939181  1  0.069941  0  0.105784  0.112337  0  0.970626  0
H  H18  1  0.34260554  0.80860780  0.33015712  1  0.085295  0  0.103613  0.119065  0  0.990291  0
H  H19  1  0.15894927  0.70220622  0.33939782  1  0.057886  0  0.086991  0.09229  0  1.035546  0
C  C20  1  0.50447176  0.24893216  0.49901656  1  1.684524  0  0.227037  0.666022  0  4.213112  0
C  C21  1  0.50924431  0.80453609  0.50756457  1  1.631221  0  0.230141  0.658919  0  4.223594  0
C  C22  1  0.50698366  0.09257815  0.50132805  1  0.073865  0  -0.016565  -0.097807  0  3.909604  0
C  C23  1  0.50807744  0.96093831  0.50438266  1  -0.238624  0  -0.018547  -0.112141  0  3.927145  0
C  C24  1  0.51463703  0.55951700  0.35576100  1  1.547956  0  0.210457  0.61551  0  4.143635  0
C  C25  1  0.51451671  0.49418117  0.65218996  1  1.575482  0  0.21959  0.627104  0  4.153485  0
C  C26  1  0.52437925  0.57136941  0.27111981  1  0.043224  0  -0.037034  -0.175701  0  3.919067  0
C  C27  1  0.51922918  0.48054395  0.73887825  1  0.081654  0  -0.021064  -0.134297  0  3.938203  0
C  C28  1  0.66576088  0.51005143  0.24447492  1  -0.02924  0  -0.025465  0.045317  0  3.962382  0
C  C29  1  0.44958341  0.35896258  0.77443040  1  -0.091829  0  -0.032796  0.022469  0  4.00159  0
C  C30  1  0.66503527  0.50037138  0.16528997  1  -0.04281  0  -0.045465  -0.019391  0  3.950999  0
C  C31  1  0.46732746  0.34260646  0.85550954  1  -0.062475  0  -0.034019  0.007515  0  3.961687  0
C  C32  1  0.52097708  0.55236116  0.10899737  1  0.069613  0  -0.02435  0.002211  0  4.051582  0
C  C33  1  0.55178934  0.44798347  0.90226153  1  0.09347  0  -0.026186  -0.013864  0  4.018352  0
C  C34  1  0.38475924  0.61997583  0.13438736  1  0.311283  0  0.075264  0.072198  0  3.985461  0
C  C35  1  0.63015686  0.56698793  0.86635008  1  0.388419  0  0.085478  0.094605  0  3.995434  0
C  C36  1  0.38374108  0.63212307  0.21519759  1  0.488833  0  0.111786  0.156469  0  4.038947  0
C  C37  1  0.60976461  0.58520261  0.78412345  1  0.401176  0  0.093264  0.137157  0  4.005331  0
C  C38  1  0.51093245  0.54935379  0.02471818  1  -0.087189  0  -0.102365  -0.136739  0  4.018862  0
C  C39  1  0.55437996  0.43753247  0.98665948  1  -0.039235  0  -0.098752  -0.113468  0  4.025593  0
C  C40  1  0.24191822  0.83510132  0.05997504  1  0.240977  0  -0.144374  -0.218656  0  3.96722  0
C  C41  1  0.68822610  0.81658819  0.90889982  1  0.280563  0  -0.145375  -0.225093  0  3.99527  0
C  C42  1  0.57584677  0.82039168  0.70642687  1  0.260474  0  -0.149925  -0.218776  0  3.960191  0
C  C43  1  0.21904064  0.77234697  0.29839307  1  0.268045  0  -0.13692  -0.202417  0  3.973049  0
Br  Br44  1  0.36778241  0.18090582  0.90516048  1  -0.073703  0  0.010936  -0.078207  0  1.48506  0
Br  Br45  1  0.86849113  0.43791584  0.13156891  1  -0.075093  0  0.017289  -0.069455  0  1.559277  0
Br  Br46  1  0.85681342  0.42434678  0.31633145  1  -0.033655  0  0.024308  -0.03766  0  1.575013  0
Br  Br47  1  0.34134149  0.21494931  0.71101220  1  -0.040447  0  0.030012  -0.032783  0  1.494597  0
N  N48  1  0.95396958  0.52633239  0.52240230  1  0.102966  0  0.075168  0.131401  0  2.954317  0
N  N49  1  0.06753220  0.52966557  0.49319706  1  -0.062294  0  0.070933  0.121857  0  2.989665  0
N  N50  1  0.23895672  0.67767632  0.08068455  1  -1.11391  0  -0.468838  -0.342029  0  3.514568  0
N  N51  1  0.73696317  0.66243936  0.91180070  1  -1.126991  0  -0.472973  -0.333462  0  3.511567  0
N  N52  1  0.68727874  0.70184152  0.74802895  1  -1.13415  0  -0.465734  -0.307666  0  3.478305  0
N  N53  1  0.24278847  0.70133888  0.23061710  1  -1.247456  0  -0.434921  -0.256332  0  3.654797  0
O  O54  1  0.36034286  0.30774299  0.50268040  1  -1.118654  0  -0.308142  -0.530133  0  2.273925  0
O  O55  1  0.65124047  0.74023578  0.53662447  1  -1.12963  0  -0.299121  -0.515489  0  2.258702  0
O  O56  1  0.64558091  0.31295327  0.49393165  1  -1.126452  0  -0.306177  -0.535889  0  2.267343  0
O  O57  1  0.36610421  0.74592093  0.48058645  1  -1.13595  0  -0.304648  -0.534603  0  2.288946  0
O  O58  1  0.37310807  0.51507258  0.37473542  1  -1.143246  0  -0.309836  -0.525657  0  2.310663  0
O  O59  1  0.65488923  0.46596058  0.63001124  1  -1.133323  0  -0.308439  -0.521727  0  2.297046  0
O  O60  1  0.64742127  0.59290029  0.40445148  1  -1.152244  0  -0.326184  -0.574612  0  2.390978  0
O  O61  1  0.37304616  0.53350850  0.60793993  1  -1.162013  0  -0.31774  -0.568058  0  2.314667  0
