# generated using pymatgen
data_AgH10C5S2N
_symmetry_space_group_name_H-M   'P 1'
_cell_length_a   9.46063958
_cell_length_b   10.18900020
_cell_length_c   14.24500000
_cell_angle_alpha   103.58363890
_cell_angle_beta   90.00000000
_cell_angle_gamma   117.66226716
_symmetry_Int_Tables_number   1
_chemical_formula_structural   AgH10C5S2N
_chemical_formula_sum   'Ag6 H60 C30 S12 N6'
_cell_volume   1172.64978784
_cell_formula_units_Z   6
loop_
 _symmetry_equiv_pos_site_id
 _symmetry_equiv_pos_as_xyz
  1  'x, y, z'
loop_
 _atom_site_type_symbol
 _atom_site_label
 _atom_site_symmetry_multiplicity
 _atom_site_fract_x
 _atom_site_fract_y
 _atom_site_fract_z
 _atom_site_occupancy
 _atom_site_hle17_bader_spin_density
 _atom_site_hle17_ddec_charge
 _atom_site_hle17_ddec_spin_density
 _atom_site_hle17_ddec_sum_bond_order
 _atom_site_hle17_magmom
 _atom_site_hse06_10hf_bader_spin_density
 _atom_site_hse06_10hf_ddec_charge
 _atom_site_hse06_10hf_ddec_spin_density
 _atom_site_hse06_10hf_ddec_sum_bond_order
 _atom_site_hse06_10hf_magmom
 _atom_site_hse06_bader_spin_density
 _atom_site_hse06_ddec_charge
 _atom_site_hse06_ddec_spin_density
 _atom_site_hse06_ddec_sum_bond_order
 _atom_site_hse06_magmom
 _atom_site_pbe_bader_charge
 _atom_site_pbe_bader_spin_density
 _atom_site_pbe_cm5_charge
 _atom_site_pbe_ddec_charge
 _atom_site_pbe_ddec_spin_density
 _atom_site_pbe_ddec_sum_bond_order
 _atom_site_pbe_magmom
Ag  Ag0  1  0.84879089  0.96528175  0.95199460  1  0  0.30352  0  1.980843  0  0  0.212815  0  2.485031  0  0  0.23026  0  2.445892  0  0.357591  0  0.283056  0.200467  0  2.511798  0
Ag  Ag1  1  0.88362227  0.03494296  0.54812423  1  0  0.303827  0  1.980462  0  0  0.213125  0  2.48477  0  0  0.230556  0  2.445644  0  0.356996  0  0.283424  0.200781  0  2.511532  0
Ag  Ag2  1  0.15121195  0.03471885  0.04800515  1  0  0.30354  0  1.980806  0  0  0.212853  0  2.484991  0  0  0.230289  0  2.445848  0  0.357682  0  0.283063  0.200505  0  2.511748  0
Ag  Ag3  1  0.11638114  0.96505880  0.45187852  1  0  0.303836  0  1.980426  0  0  0.213135  0  2.484731  0  0  0.230566  0  2.445605  0  0.357275  0  0.283416  0.200782  0  2.51151  0
Ag  Ag4  1  0.93057639  0.99985924  0.24995354  1  0  0.340304  0  1.829867  0  0  0.239464  0  2.321361  0  0  0.25751  0  2.283145  0  0.376429  0  0.291378  0.228347  0  2.345082  0
Ag  Ag5  1  0.06942857  0.00014136  0.75004761  1  0  0.340323  0  1.829807  0  0  0.239479  0  2.321287  0  0  0.257527  0  2.283071  0  0.376487  0  0.291384  0.228362  0  2.345007  0
H  H6  1  0.93337484  0.53636660  0.06204030  1  0  0.071821  0  0.960487  0  0  0.087263  0  1.026932  0  0  0.087821  0  1.027518  0  0.087768  0  0.100322  0.086578  0  1.026455  0
H  H7  1  0.39682428  0.46347081  0.43802961  1  0  0.072427  0  0.960745  0  0  0.087349  0  1.027425  0  0  0.087884  0  1.028052  0  0.076789  0  0.100282  0.086674  0  1.026938  0
H  H8  1  0.06662628  0.46363055  0.93795747  1  0  0.071777  0  0.960582  0  0  0.087266  0  1.02698  0  0  0.087822  0  1.027568  0  0.087771  0  0.100322  0.08658  0  1.026505  0
H  H9  1  0.60317490  0.53653095  0.56197314  1  0  0.072419  0  0.960716  0  0  0.087321  0  1.027447  0  0  0.087865  0  1.028053  0  0.076772  0  0.100278  0.086646  0  1.02696  0
H  H10  1  0.77657329  0.41123738  0.11663008  1  0  0.052948  0  0.950004  0  0  0.075151  0  1.007677  0  0  0.075073  0  1.008153  0  0.02944  0  0.103759  0.074927  0  1.007375  0
H  H11  1  0.36514728  0.58856670  0.38340335  1  0  0.05253  0  0.94985  0  0  0.07464  0  1.007596  0  0  0.074572  0  1.008062  0  0.03336  0  0.103362  0.074435  0  1.007282  0
H  H12  1  0.22342840  0.58876092  0.88336929  1  0  0.052932  0  0.950055  0  0  0.075129  0  1.007745  0  0  0.075051  0  1.008222  0  0.029433  0  0.103761  0.074905  0  1.007444  0
H  H13  1  0.63485239  0.41143390  0.61659780  1  0  0.052534  0  0.949839  0  0  0.07465  0  1.007598  0  0  0.074581  0  1.008066  0  0.033387  0  0.103362  0.074445  0  1.007284  0
H  H14  1  0.77530269  0.27448579  0.94512068  1  0  0.105156  0  0.972491  0  0  0.123786  0  1.041686  0  0  0.124822  0  1.042425  0  0.050277  0  0.080294  0.122974  0  1.041832  0
H  H15  1  0.50058621  0.72531369  0.55493654  1  0  0.105443  0  0.97321  0  0  0.124437  0  1.041892  0  0  0.1255  0  1.042605  0  0.064854  0  0.080696  0.123611  0  1.042048  0
H  H16  1  0.22469900  0.72551251  0.05487868  1  0  0.105161  0  0.972485  0  0  0.123781  0  1.041695  0  0  0.124817  0  1.042432  0  0.050326  0  0.08029  0.122968  0  1.041842  0
H  H17  1  0.49940875  0.27468806  0.44506480  1  0  0.10543  0  0.973205  0  0  0.124414  0  1.041886  0  0  0.125477  0  1.042597  0  0.064816  0  0.080696  0.123589  0  1.042041  0
H  H18  1  0.59590978  0.29135104  0.95521539  1  0  0.089057  0  0.999601  0  0  0.105367  0  1.074589  0  0  0.10621  0  1.075617  0  0.009285  0  0.075886  0.104985  0  1.07381  0
H  H19  1  0.30438139  0.70852774  0.54478004  1  0  0.089113  0  0.99968  0  0  0.105684  0  1.074304  0  0  0.106541  0  1.075318  0  0.023616  0  0.075944  0.105296  0  1.073528  0
H  H20  1  0.40409192  0.70864727  0.04478327  1  0  0.089101  0  0.999527  0  0  0.105382  0  1.074534  0  0  0.106225  0  1.075563  0  0.009369  0  0.075902  0.105001  0  1.073756  0
H  H21  1  0.69561300  0.29147286  0.45521971  1  0  0.089117  0  0.999743  0  0  0.105695  0  1.074341  0  0  0.106554  0  1.075353  0  0.023685  0  0.075952  0.105308  0  1.073564  0
H  H22  1  0.75736474  0.41741345  0.90236258  1  0  0.097679  0  0.971089  0  0  0.117419  0  1.037465  0  0  0.118698  0  1.037785  0  0.049335  0  0.082532  0.116531  0  1.037443  0
H  H23  1  0.33962807  0.58242166  0.59766342  1  0  0.098151  0  0.97065  0  0  0.117479  0  1.037631  0  0  0.118796  0  1.0379  0  0.035735  0  0.082688  0.116566  0  1.037641  0
H  H24  1  0.24263589  0.58258485  0.09763467  1  0  0.097659  0  0.971116  0  0  0.117399  0  1.037479  0  0  0.118678  0  1.037799  0  0.049316  0  0.082531  0.116511  0  1.037459  0
H  H25  1  0.66036852  0.41758124  0.40233812  1  0  0.098117  0  0.970692  0  0  0.11745  0  1.03767  0  0  0.118768  0  1.037939  0  0.035807  0  0.082671  0.116537  0  1.037679  0
H  H26  1  0.52553192  0.58452708  0.11175386  1  0  0.070992  0  0.954631  0  0  0.088895  0  1.014311  0  0  0.089149  0  1.015229  0  0.078627  0  0.100099  0.088388  0  1.01411  0
H  H27  1  0.94086453  0.41541261  0.38839501  1  0  0.071423  0  0.955078  0  0  0.089861  0  1.01375  0  0  0.090085  0  1.014675  0  0.082907  0  0.100524  0.089334  0  1.013589  0
H  H28  1  0.47447427  0.41547811  0.88824455  1  0  0.071055  0  0.954592  0  0  0.08897  0  1.014267  0  0  0.089222  0  1.015183  0  0.077125  0  0.100129  0.088463  0  1.014064  0
H  H29  1  0.05913553  0.58458455  0.61160627  1  0  0.071415  0  0.955062  0  0  0.089848  0  1.013757  0  0  0.090078  0  1.014675  0  0.082967  0  0.100514  0.089319  0  1.013597  0
H  H30  1  0.52007665  0.40472573  0.10004162  1  0  0.067636  0  0.924668  0  0  0.084224  0  0.989987  0  0  0.084657  0  0.990195  0  0.076804  0  0.102593  0.083655  0  0.989858  0
H  H31  1  0.11529302  0.59512202  0.40003003  1  0  0.06766  0  0.925605  0  0  0.084223  0  0.990721  0  0  0.084639  0  0.990914  0  0.017835  0  0.102717  0.083674  0  0.990574  0
H  H32  1  0.47992792  0.59527832  0.89995871  1  0  0.067658  0  0.924704  0  0  0.084243  0  0.990038  0  0  0.084674  0  0.990244  0  0.07675  0  0.102581  0.083667  0  0.98992  0
H  H33  1  0.88470541  0.40487398  0.59996965  1  0  0.067643  0  0.925564  0  0  0.084194  0  0.99071  0  0  0.084607  0  0.990904  0  0.017797  0  0.102697  0.083645  0  0.990562  0
H  H34  1  0.52085088  0.52136544  0.27375189  1  0  0.101413  0  0.964033  0  0  0.122487  0  1.028782  0  0  0.123669  0  1.029336  0  0.055577  0  0.085187  0.121748  0  1.02813  0
H  H35  1  0.99920511  0.47846507  0.22637091  1  0  0.101276  0  0.964231  0  0  0.122605  0  1.028828  0  0  0.123704  0  1.029469  0  0.042319  0  0.085651  0.121909  0  1.028138  0
H  H36  1  0.47915166  0.47864091  0.72624671  1  0  0.101376  0  0.964054  0  0  0.12246  0  1.028789  0  0  0.123639  0  1.029346  0  0.055516  0  0.085189  0.121722  0  1.028136  0
H  H37  1  0.00079504  0.52153438  0.77362935  1  0  0.101289  0  0.964257  0  0  0.122621  0  1.028839  0  0  0.123721  0  1.029478  0  0.042304  0  0.08566  0.121924  0  1.028151  0
H  H38  1  0.70728121  0.52193202  0.26103275  1  0  0.097578  0  0.95311  0  0  0.120472  0  1.012786  0  0  0.121894  0  1.012802  0  0.012512  0  0.084564  0.119272  0  1.013005  0
H  H39  1  0.18500415  0.47777552  0.23899358  1  0  0.097637  0  0.95247  0  0  0.120423  0  1.012526  0  0  0.121806  0  1.012583  0  0.024192  0  0.084619  0.119262  0  1.012703  0
H  H40  1  0.29272076  0.47807318  0.73896847  1  0  0.097532  0  0.95317  0  0  0.120427  0  1.01284  0  0  0.121851  0  1.012853  0  0.012452  0  0.084559  0.119227  0  1.013059  0
H  H41  1  0.81499494  0.52222393  0.76100808  1  0  0.097632  0  0.952467  0  0  0.120409  0  1.012533  0  0  0.121789  0  1.012593  0  0.024182  0  0.084604  0.119247  0  1.012712  0
H  H42  1  0.69804072  0.69447356  0.27187220  1  0  0.098089  0  0.975268  0  0  0.115362  0  1.049555  0  0  0.117235  0  1.048272  0  0.07268  0  0.074753  0.114013  0  1.050449  0
H  H43  1  0.00317105  0.30530409  0.22822207  1  0  0.09802  0  0.974966  0  0  0.115483  0  1.049128  0  0  0.117344  0  1.047844  0  0.019322  0  0.074842  0.114122  0  1.050044  0
H  H44  1  0.30196231  0.30553164  0.72812691  1  0  0.098056  0  0.975254  0  0  0.115311  0  1.049562  0  0  0.117185  0  1.048277  0  0.072564  0  0.074731  0.113962  0  1.050456  0
H  H45  1  0.99682910  0.69469537  0.77177819  1  0  0.09804  0  0.974966  0  0  0.115486  0  1.049147  0  0  0.117347  0  1.047864  0  0.019336  0  0.074846  0.11413  0  1.05006  0
H  H46  1  0.51822266  0.86455801  0.22780959  1  0  0.062204  0  0.952947  0  0  0.07825  0  1.019953  0  0  0.078966  0  1.019607  0  0.070117  0  0.098144  0.078225  0  1.019126  0
H  H47  1  0.65360905  0.13491854  0.27202912  1  0  0.062415  0  0.951996  0  0  0.078473  0  1.019249  0  0  0.079134  0  1.018943  0  0.071818  0  0.098104  0.078439  0  1.018447  0
H  H48  1  0.48178296  0.13544604  0.77218934  1  0  0.062339  0  0.952982  0  0  0.078428  0  1.019928  0  0  0.079144  0  1.019581  0  0.070113  0  0.09824  0.078403  0  1.0191  0
H  H49  1  0.34638832  0.86507747  0.72796705  1  0  0.062491  0  0.952173  0  0  0.078573  0  1.019342  0  0  0.079231  0  1.01904  0  0.071743  0  0.098132  0.078552  0  1.018528  0
H  H50  1  0.31224434  0.76840483  0.24617197  1  0  0.065874  0  0.967584  0  0  0.083  0  1.028907  0  0  0.083546  0  1.029687  0  0.060658  0  0.099051  0.082822  0  1.02785  0
H  H51  1  0.54405140  0.23143487  0.25398889  1  0  0.066379  0  0.966926  0  0  0.083191  0  1.028618  0  0  0.083694  0  1.029456  0  0.071323  0  0.099358  0.083056  0  1.027495  0
H  H52  1  0.68776215  0.23159462  0.75382829  1  0  0.065838  0  0.967573  0  0  0.082997  0  1.028896  0  0  0.083528  0  1.029692  0  0.060669  0  0.09906  0.082817  0  1.027838  0
H  H53  1  0.45594492  0.76856113  0.74601079  1  0  0.066381  0  0.966905  0  0  0.083211  0  1.028548  0  0  0.083713  0  1.029386  0  0.079807  0  0.099352  0.083073  0  1.027432  0
H  H54  1  0.50551673  0.82088535  0.39237117  1  0  0.106681  0  0.955253  0  0  0.134429  0  1.00642  0  0  0.135305  0  1.007288  0  0.030011  0  0.089439  0.133763  0  1.006182  0
H  H55  1  0.68428777  0.17897045  0.10757477  1  0  0.106943  0  0.955429  0  0  0.13446  0  1.006861  0  0  0.135336  0  1.007732  0  0.025617  0  0.089476  0.133808  0  1.006581  0
H  H56  1  0.49448669  0.17911640  0.60762807  1  0  0.106695  0  0.955224  0  0  0.134429  0  1.00641  0  0  0.135304  0  1.007279  0  0.030013  0  0.089448  0.133764  0  1.00617  0
H  H57  1  0.31570345  0.82103015  0.89242288  1  0  0.106893  0  0.955439  0  0  0.134396  0  1.006892  0  0  0.135272  0  1.007764  0  0.025533  0  0.08946  0.133746  0  1.006607  0
H  H58  1  0.37848508  0.90658954  0.42137455  1  0  0.0948  0  0.982179  0  0  0.110872  0  1.060201  0  0  0.11331  0  1.058084  0  0.041862  0  0.075778  0.109141  0  1.06174  0
H  H59  1  0.47152781  0.09340876  0.07870624  1  0  0.094754  0  0.982681  0  0  0.110609  0  1.060819  0  0  0.113038  0  1.058709  0  0.026693  0  0.075762  0.108862  0  1.06239  0
H  H60  1  0.62151670  0.09341106  0.57862520  1  0  0.094819  0  0.982209  0  0  0.110907  0  1.060187  0  0  0.113345  0  1.058069  0  0.041877  0  0.075779  0.109176  0  1.061726  0
H  H61  1  0.52846293  0.90659299  0.92129230  1  0  0.09463  0  0.982701  0  0  0.110497  0  1.060863  0  0  0.11293  0  1.058751  0  0.026787  0  0.075676  0.108755  0  1.062429  0
H  H62  1  0.58305412  0.02000385  0.40622042  1  0  0.101624  0  0.993052  0  0  0.124423  0  1.054899  0  0  0.125221  0  1.05594  0  0.040628  0  0.079847  0.123724  0  1.054457  0
H  H63  1  0.56267904  0.97987033  0.09363945  1  0  0.101715  0  0.992607  0  0  0.124296  0  1.054842  0  0  0.125074  0  1.055907  0  0.031416  0  0.079893  0.123587  0  1.054438  0
H  H64  1  0.41694766  0.97999675  0.59377933  1  0  0.101644  0  0.993047  0  0  0.124447  0  1.054879  0  0  0.125244  0  1.055921  0  0.040647  0  0.079859  0.123748  0  1.054438  0
H  H65  1  0.43731218  0.02013027  0.90635609  1  0  0.101744  0  0.992614  0  0  0.124363  0  1.054791  0  0  0.125141  0  1.055858  0  0.031414  0  0.079926  0.123648  0  1.054401  0
C  C66  1  0.80967064  0.71332012  0.05753387  1  0  0.253173  0  3.74175  0  0  0.221751  0  4.03824  0  0  0.246329  0  4.048372  0  0.321592  0  0.124771  0.205395  0  4.031342  0
C  C67  1  0.09618189  0.28641156  0.44240245  1  0  0.253158  0  3.743139  0  0  0.221792  0  4.039404  0  0  0.246374  0  4.049496  0  0.332917  0  0.124733  0.205433  0  4.032517  0
C  C68  1  0.19033969  0.28668278  0.94246556  1  0  0.253292  0  3.741694  0  0  0.221829  0  4.0382  0  0  0.246411  0  4.048326  0  0.321625  0  0.124807  0.205472  0  4.031303  0
C  C69  1  0.90382191  0.71358674  0.55759762  1  0  0.253247  0  3.743178  0  0  0.22184  0  4.039391  0  0  0.246421  0  4.049485  0  0.333112  0  0.124745  0.205481  0  4.032506  0
C  C70  1  0.26324666  0.99994889  0.24998825  1  0  0.248579  0  3.718999  0  0  0.223025  0  4.010836  0  0  0.247317  0  4.020506  0  0.334442  0  0.127382  0.206372  0  4.003523  0
C  C71  1  0.73674696  0.00004597  0.75001474  1  0  0.248581  0  3.719223  0  0  0.223069  0  4.011062  0  0  0.247367  0  4.020732  0  0.3346  0  0.12739  0.206416  0  4.003745  0
C  C72  1  0.80230492  0.47025598  0.05847519  1  0  0.039767  0  3.661741  0  0  -0.018697  0  3.918857  0  0  -0.013951  0  3.931197  0  0.290365  0  -0.06693  -0.021865  0  3.910046  0
C  C73  1  0.33185178  0.52955040  0.44156073  1  0  0.039857  0  3.662322  0  0  -0.018149  0  3.919366  0  0  -0.013388  0  3.931623  0  0.298248  0  -0.0663  -0.021357  0  3.910641  0
C  C74  1  0.19769735  0.52974347  0.94152227  1  0  0.039798  0  3.661892  0  0  -0.018714  0  3.918976  0  0  -0.013972  0  3.931323  0  0.290341  0  -0.066952  -0.021883  0  3.910165  0
C  C75  1  0.66814847  0.47045135  0.55844132  1  0  0.039902  0  3.662249  0  0  -0.018182  0  3.919325  0  0  -0.013419  0  3.931583  0  0.298201  0  -0.066318  -0.021391  0  3.910602  0
C  C76  1  0.72748663  0.35605498  0.95934096  1  0  -0.317478  0  3.700383  0  0  -0.394951  0  3.94777  0  0  -0.398172  0  3.958344  0  -0.070654  0  -0.255304  -0.393004  0  3.941333  0
C  C77  1  0.37120372  0.64379277  0.54069840  1  0  -0.318005  0  3.701001  0  0  -0.395847  0  3.948277  0  0  -0.39918  0  3.958873  0  -0.087185  0  -0.255841  -0.393815  0  3.941811  0
C  C78  1  0.27251180  0.64394103  0.04065942  1  0  -0.31751  0  3.700346  0  0  -0.394953  0  3.947741  0  0  -0.398173  0  3.958315  0  -0.070714  0  -0.255323  -0.393007  0  3.941308  0
C  C79  1  0.62879441  0.35620898  0.45930295  1  0  -0.317978  0  3.701067  0  0  -0.395797  0  3.948362  0  0  -0.399131  0  3.958957  0  -0.087238  0  -0.255837  -0.39377  0  3.9419  0
C  C80  1  0.59339664  0.52967337  0.13066739  1  0  0.048345  0  3.632185  0  0  -0.006302  0  3.884644  0  0  -0.001851  0  3.897729  0  0.246859  0  -0.065153  -0.008883  0  3.87533  0
C  C81  1  0.06355528  0.47016634  0.36942046  1  0  0.047011  0  3.634295  0  0  -0.00733  0  3.885713  0  0  -0.002767  0  3.898615  0  0.304854  0  -0.065685  -0.009936  0  3.876435  0
C  C82  1  0.40660792  0.47033068  0.86933154  1  0  0.048188  0  3.632281  0  0  -0.006519  0  3.8848  0  0  -0.00206  0  3.897872  0  0.248382  0  -0.065187  -0.0091  0  3.875486  0
C  C83  1  0.93644324  0.52983197  0.63058030  1  0  0.047149  0  3.63418  0  0  -0.007258  0  3.885624  0  0  -0.002696  0  3.898518  0  0.30485  0  -0.065663  -0.009864  0  3.876349  0
C  C84  1  0.63233021  0.56948800  0.24059141  1  0  -0.306478  0  3.707206  0  0  -0.384568  0  3.953003  0  0  -0.387653  0  3.96323  0  -0.092518  0  -0.250388  -0.381812  0  3.944963  0
C  C85  1  0.06254246  0.43029770  0.25948034  1  0  -0.305778  0  3.706185  0  0  -0.38464  0  3.952332  0  0  -0.387621  0  3.962622  0  -0.035298  0  -0.251006  -0.381962  0  3.94425  0
C  C86  1  0.36767339  0.43051835  0.75940719  1  0  -0.306333  0  3.707177  0  0  -0.384407  0  3.952991  0  0  -0.387493  0  3.963216  0  -0.092322  0  -0.250363  -0.381651  0  3.94495  0
C  C87  1  0.93745769  0.56970176  0.74052062  1  0  -0.305849  0  3.706184  0  0  -0.384687  0  3.95236  0  0  -0.387668  0  3.962649  0  -0.035296  0  -0.251013  -0.382015  0  3.944274  0
C  C88  1  0.42610498  0.87519317  0.27121712  1  0  0.039967  0  3.644131  0  0  -0.0131  0  3.890093  0  0  -0.008841  0  3.903159  0  0.281259  0  -0.067392  -0.015506  0  3.880151  0
C  C89  1  0.55084701  0.12454196  0.22878296  1  0  0.03962  0  3.642337  0  0  -0.013731  0  3.889748  0  0  -0.009403  0  3.902812  0  0.266452  0  -0.067554  -0.016157  0  3.879798  0
C  C90  1  0.57388825  0.12480513  0.72878365  1  0  0.039991  0  3.643911  0  0  -0.01316  0  3.890016  0  0  -0.008882  0  3.903074  0  0.281145  0  -0.067478  -0.015565  0  3.880075  0
C  C91  1  0.44914315  0.87545865  0.77121398  1  0  0.039349  0  3.642605  0  0  -0.013952  0  3.889987  0  0  -0.009617  0  3.903046  0  0.257785  0  -0.067656  -0.016388  0  3.880037  0
C  C92  1  0.47594151  0.90766983  0.37910324  1  0  -0.303326  0  3.671362  0  0  -0.38051  0  3.90773  0  0  -0.383839  0  3.91837  0  -0.076732  0  -0.249538  -0.378302  0  3.901043  0
C  C93  1  0.56795741  0.09218596  0.12085393  1  0  -0.303696  0  3.671498  0  0  -0.380107  0  3.907709  0  0  -0.383433  0  3.918387  0  -0.046226  0  -0.249714  -0.377877  0  3.900969  0
C  C94  1  0.52406085  0.09233192  0.62089670  1  0  -0.30341  0  3.671347  0  0  -0.38058  0  3.907769  0  0  -0.383906  0  3.918401  0  -0.076774  0  -0.249547  -0.378372  0  3.901082  0
C  C95  1  0.43203150  0.90781004  0.87914294  1  0  -0.30346  0  3.671499  0  0  -0.379895  0  3.907621  0  0  -0.383225  0  3.918297  0  -0.046004  0  -0.249599  -0.377666  0  3.900883  0
S  S96  1  0.73869133  0.84567238  0.09513749  1  0  -0.415007  0  2.488155  0  0  -0.362616  0  2.931821  0  0  -0.378549  0  2.911966  0  -0.253011  0  -0.211432  -0.353209  0  2.945423  0
S  S97  1  0.89287064  0.15406045  0.40471759  1  0  -0.414966  0  2.48794  0  0  -0.362989  0  2.932024  0  0  -0.378955  0  2.912228  0  -0.263085  0  -0.211534  -0.353558  0  2.945569  0
S  S98  1  0.26131900  0.15433052  0.90486264  1  0  -0.415018  0  2.488128  0  0  -0.362643  0  2.931838  0  0  -0.378577  0  2.91198  0  -0.253045  0  -0.211386  -0.353233  0  2.945439  0
S  S99  1  0.10713259  0.84593670  0.59528439  1  0  -0.414969  0  2.487938  0  0  -0.362988  0  2.932004  0  0  -0.378957  0  2.912213  0  -0.263052  0  -0.211511  -0.353557  0  2.945552  0
S  S100  1  0.09497077  0.84860067  0.27522086  1  0  -0.368113  0  2.328935  0  0  -0.323329  0  2.740569  0  0  -0.341081  0  2.728845  0  -0.211383  0  -0.209515  -0.310475  0  2.74809  0
S  S101  1  0.24640678  0.15129076  0.22469105  1  0  -0.368229  0  2.328496  0  0  -0.323348  0  2.73964  0  0  -0.341115  0  2.727968  0  -0.213397  0  -0.209524  -0.310484  0  2.747132  0
S  S102  1  0.90502968  0.15139304  0.72478335  1  0  -0.368089  0  2.328974  0  0  -0.323306  0  2.740603  0  0  -0.341059  0  2.728875  0  -0.211317  0  -0.209489  -0.31045  0  2.748122  0
S  S103  1  0.75358367  0.84870410  0.77531264  1  0  -0.36826  0  2.328433  0  0  -0.323331  0  2.739468  0  0  -0.341105  0  2.7278  0  -0.213233  0  -0.209537  -0.310468  0  2.746962  0
S  S104  1  0.96266279  0.75033517  0.98642038  1  0  -0.363977  0  2.275021  0  0  -0.318891  0  2.664376  0  0  -0.337552  0  2.655742  0  -0.189338  0  -0.186261  -0.306053  0  2.669213  0
S  S105  1  0.21214911  0.24937697  0.51352038  1  0  -0.364062  0  2.275438  0  0  -0.318884  0  2.664634  0  0  -0.337535  0  2.655999  0  -0.186687  0  -0.186499  -0.306065  0  2.669507  0
S  S106  1  0.03734851  0.24966543  0.01358288  1  0  -0.363992  0  2.27497  0  0  -0.318909  0  2.664334  0  0  -0.33757  0  2.655694  0  -0.189165  0  -0.186277  -0.306083  0  2.669196  0
S  S107  1  0.78785594  0.75062593  0.48648046  1  0  -0.364045  0  2.275408  0  0  -0.318883  0  2.664619  0  0  -0.337533  0  2.655982  0  -0.186728  0  -0.186487  -0.306065  0  2.669493  0
N  N108  1  0.73894387  0.57954508  0.08160981  1  0  -0.12665  0  3.396361  0  0  -0.024861  0  3.613949  0  0  -0.043962  0  3.638942  0  -1.148545  0  -0.259665  -0.01185  0  3.59659  0
N  N109  1  0.15922191  0.42023486  0.41841886  1  0  -0.127072  0  3.398693  0  0  -0.025363  0  3.61556  0  0  -0.044488  0  3.640519  0  -1.155246  0  -0.259802  -0.012351  0  3.598225  0
N  N110  1  0.26106100  0.42045322  0.91839026  1  0  -0.126647  0  3.39637  0  0  -0.024775  0  3.613898  0  0  -0.043876  0  3.638888  0  -1.148649  0  -0.259675  -0.01176  0  3.596539  0
N  N111  1  0.84077988  0.57976574  0.58158159  1  0  -0.127298  0  3.39888  0  0  -0.0254  0  3.615563  0  0  -0.044523  0  3.640516  0  -1.155339  0  -0.259816  -0.012386  0  3.59823  0
N  N112  1  0.40480251  0.99990636  0.25001481  1  0  -0.123737  0  3.390884  0  0  -0.018399  0  3.600283  0  0  -0.037763  0  3.625649  0  -1.152385  0  -0.25588  -0.005666  0  3.583029  0
N  N113  1  0.59520014  0.00008964  0.74998628  1  0  -0.123748  0  3.390973  0  0  -0.018543  0  3.600543  0  0  -0.037915  0  3.625906  0  -1.152582  0  -0.255894  -0.005809  0  3.583293  0
