# generated using pymatgen
data_ZnH2(CO2)2
_symmetry_space_group_name_H-M   'P 1'
_cell_length_a   9.87957547
_cell_length_b   18.14810631
_cell_length_c   18.27065473
_cell_angle_alpha   90.00000409
_cell_angle_beta   89.99999275
_cell_angle_gamma   90.00001075
_symmetry_Int_Tables_number   1
_chemical_formula_structural   ZnH2(CO2)2
_chemical_formula_sum   'Zn24 H48 C48 O96'
_cell_volume   3275.84774356
_cell_formula_units_Z   24
loop_
 _symmetry_equiv_pos_site_id
 _symmetry_equiv_pos_as_xyz
  1  'x, y, z'
loop_
 _atom_site_type_symbol
 _atom_site_label
 _atom_site_symmetry_multiplicity
 _atom_site_fract_x
 _atom_site_fract_y
 _atom_site_fract_z
 _atom_site_occupancy
 _atom_site_pbe_bader_charge
 _atom_site_pbe_bader_spin_density
 _atom_site_pbe_cm5_charge
 _atom_site_pbe_ddec_charge
 _atom_site_pbe_ddec_spin_density
 _atom_site_pbe_ddec_sum_bond_order
 _atom_site_pbe_magmom
Zn  Zn0  1  0.92352053  0.93722954  0.67898114  1  1.383222  0  0.679556  0.966436  0  2.271297  0
Zn  Zn1  1  0.57647920  0.43722915  0.82101874  1  1.38322  0  0.679559  0.966421  0  2.271314  0
Zn  Zn2  1  0.07647901  0.56277004  0.67898116  1  1.383172  0  0.679564  0.966444  0  2.2713  0
Zn  Zn3  1  0.42352115  0.06277024  0.82101873  1  1.383197  0  0.679548  0.966405  0  2.271358  0
Zn  Zn4  1  0.07647897  0.06277020  0.32101860  1  1.383219  0  0.679552  0.966408  0  2.271318  0
Zn  Zn5  1  0.42352131  0.56277059  0.17898155  1  1.383221  0  0.679554  0.966404  0  2.271355  0
Zn  Zn6  1  0.92352049  0.43722970  0.32101913  1  1.383195  0  0.679535  0.96638  0  2.271387  0
Zn  Zn7  1  0.57647936  0.93722950  0.17898101  1  1.383214  0  0.679551  0.966415  0  2.271327  0
Zn  Zn8  1  0.10877584  0.03712402  0.78581037  1  1.38031  0  0.674528  0.947444  0  2.290062  0
Zn  Zn9  1  0.39122431  0.53712441  0.71418952  1  1.380312  0  0.67454  0.947469  0  2.290017  0
Zn  Zn10  1  0.89122351  0.46287592  0.78581036  1  1.380318  0  0.674538  0.947488  0  2.290032  0
Zn  Zn11  1  0.60877624  0.96287573  0.71418953  1  1.38032  0  0.674533  0.947493  0  2.29002  0
Zn  Zn12  1  0.89122366  0.96287572  0.21418937  1  1.380316  0  0.674552  0.94749  0  2.289993  0
Zn  Zn13  1  0.60877620  0.46287588  0.28581022  1  1.380316  0  0.674539  0.947476  0  2.290006  0
Zn  Zn14  1  0.10877701  0.53712437  0.21418938  1  1.380311  0  0.674544  0.947467  0  2.290034  0
Zn  Zn15  1  0.39122326  0.03712456  0.28581022  1  1.380311  0  0.674539  0.947487  0  2.290021  0
Zn  Zn16  1  0.00000005  0.75000004  0.69019095  1  1.392586  0  0.680453  0.9721  0  2.239949  0
Zn  Zn17  1  0.50000018  0.24999969  0.80980896  1  1.392676  0  0.680475  0.972151  0  2.239877  0
Zn  Zn18  1  0.00000001  0.25000020  0.30980938  1  1.392717  0  0.680493  0.972176  0  2.23985  0
Zn  Zn19  1  0.50000034  0.75000005  0.19019079  1  1.39261  0  0.68048  0.972148  0  2.239916  0
Zn  Zn20  1  0.00000040  0.00000007  0.50000011  1  1.383886  0  0.676728  0.964781  0  2.214594  0
Zn  Zn21  1  0.50000032  0.49999985  0.00000000  1  1.383891  0  0.676721  0.964786  0  2.214554  0
Zn  Zn22  1  0.00000003  0.49999984  0.50000016  1  1.383867  0  0.676724  0.964795  0  2.214595  0
Zn  Zn23  1  0.50000011  0.00000006  0.99999972  1  1.383884  0  0.676744  0.964829  0  2.214567  0
H  H24  1  0.17013797  0.86602206  0.52201908  1  0.112852  0  0.121394  0.037288  0  0.964323  0
H  H25  1  0.32986230  0.36602171  0.97798137  1  0.112861  0  0.121392  0.037248  0  0.96436  0
H  H26  1  0.82986162  0.63397805  0.52201905  1  0.112748  0  0.121381  0.037269  0  0.964294  0
H  H27  1  0.67013903  0.13397824  0.97798081  1  0.112743  0  0.121398  0.037278  0  0.964317  0
H  H28  1  0.82986255  0.13397823  0.47798121  1  0.112741  0  0.121407  0.037302  0  0.96433  0
H  H29  1  0.67013821  0.63397803  0.02201891  1  0.112746  0  0.121394  0.037285  0  0.964321  0
H  H30  1  0.17013788  0.36602224  0.47798124  1  0.112848  0  0.121393  0.037285  0  0.964321  0
H  H31  1  0.32986250  0.86602150  0.02201893  1  0.112747  0  0.121396  0.037271  0  0.964359  0
H  H32  1  0.21384932  0.87929564  0.82942898  1  0.10401  0  0.115075  0.030305  0  0.96586  0
H  H33  1  0.28615095  0.37929471  0.67057094  1  0.104019  0  0.115075  0.030309  0  0.965867  0
H  H34  1  0.78615019  0.62070450  0.82942895  1  0.104005  0  0.115068  0.03029  0  0.965863  0
H  H35  1  0.71384944  0.12070467  0.67057146  1  0.104019  0  0.115077  0.030308  0  0.96586  0
H  H36  1  0.78615119  0.12070465  0.17057131  1  0.104022  0  0.115076  0.030332  0  0.965867  0
H  H37  1  0.71385058  0.62070448  0.32942881  1  0.104011  0  0.115068  0.030308  0  0.965853  0
H  H38  1  0.21384830  0.37929579  0.17057134  1  0.10403  0  0.11509  0.03035  0  0.965842  0
H  H39  1  0.28615006  0.87929563  0.32942883  1  0.104006  0  0.115069  0.03031  0  0.965855  0
H  H40  1  0.74361080  0.00530365  0.87065186  1  0.120372  0  0.115987  0.036488  0  1.014173  0
H  H41  1  0.75638980  0.50530347  0.62934799  1  0.120361  0  0.115984  0.036486  0  1.014182  0
H  H42  1  0.25639055  0.49469684  0.87065244  1  0.120349  0  0.115993  0.036475  0  1.014177  0
H  H43  1  0.24360976  0.99469721  0.62934748  1  0.120344  0  0.115987  0.036485  0  1.014175  0
H  H44  1  0.25638972  0.99469719  0.12934788  1  0.120362  0  0.115985  0.036465  0  1.014191  0
H  H45  1  0.24360970  0.49469627  0.37065230  1  0.120362  0  0.115978  0.036468  0  1.014179  0
H  H46  1  0.74360996  0.50530290  0.12934785  1  0.120364  0  0.115987  0.036484  0  1.01418  0
H  H47  1  0.75638975  0.00530308  0.37065172  1  0.120363  0  0.115988  0.036471  0  1.014199  0
H  H48  1  0.04313743  0.15277189  0.66134412  1  0.107121  0  0.121174  0.037577  0  0.954218  0
H  H49  1  0.45686276  0.65277174  0.83865523  1  0.107197  0  0.121177  0.037588  0  0.954236  0
H  H50  1  0.95686195  0.34722804  0.66134464  1  0.107398  0  0.121173  0.03759  0  0.954224  0
H  H51  1  0.54313675  0.84722785  0.83865578  1  0.107102  0  0.121157  0.037536  0  0.954201  0
H  H52  1  0.95686207  0.84722840  0.33865508  1  0.107257  0  0.121167  0.03758  0  0.95422  0
H  H53  1  0.54313775  0.34722800  0.16134451  1  0.107233  0  0.121176  0.037571  0  0.954218  0
H  H54  1  0.04313654  0.65277225  0.33865565  1  0.1071  0  0.121154  0.037525  0  0.954208  0
H  H55  1  0.45686276  0.15277189  0.16134396  1  0.107123  0  0.121169  0.037575  0  0.954205  0
H  H56  1  0.70139456  0.75013397  0.68796604  1  0.12924  0  0.122783  0.041655  0  0.973081  0
H  H57  1  0.79860613  0.25013471  0.81203437  1  0.129254  0  0.122798  0.041664  0  0.973077  0
H  H58  1  0.29860600  0.74986561  0.68796551  1  0.129172  0  0.122765  0.041604  0  0.973036  0
H  H59  1  0.20139423  0.24986523  0.81203439  1  0.129173  0  0.122798  0.041691  0  0.973071  0
H  H60  1  0.29860595  0.24986577  0.31203425  1  0.129248  0  0.122792  0.041672  0  0.973067  0
H  H61  1  0.20139439  0.74986558  0.18796592  1  0.129164  0  0.122786  0.041688  0  0.973076  0
H  H62  1  0.70139452  0.25013468  0.31203423  1  0.129172  0  0.122793  0.04169  0  0.973079  0
H  H63  1  0.79860628  0.75013451  0.18796590  1  0.129255  0  0.122769  0.041593  0  0.97304  0
H  H64  1  0.59977588  0.98883270  0.54760929  1  0.082659  0  0.120266  0.03735  0  0.977861  0
H  H65  1  0.90022388  0.48883235  0.95239114  1  0.082659  0  0.120264  0.037339  0  0.977863  0
H  H66  1  0.40022370  0.51116742  0.54760928  1  0.082668  0  0.120276  0.037357  0  0.977843  0
H  H67  1  0.09977543  0.01116760  0.95239061  1  0.08266  0  0.120262  0.037367  0  0.977859  0
H  H68  1  0.40022464  0.01116759  0.45239045  1  0.082632  0  0.120263  0.037358  0  0.97786  0
H  H69  1  0.09977562  0.51116739  0.04760915  1  0.082633  0  0.120269  0.037358  0  0.977851  0
H  H70  1  0.59977580  0.48883232  0.45239101  1  0.082636  0  0.120266  0.037365  0  0.977858  0
H  H71  1  0.90022407  0.98883214  0.04760859  1  0.082633  0  0.120267  0.037356  0  0.977864  0
C  C72  1  0.10553700  0.86124085  0.57107808  1  1.571591  0  0.166505  0.537571  0  4.126396  0
C  C73  1  0.39446326  0.36124050  0.92892183  1  1.57159  0  0.166527  0.53766  0  4.126233  0
C  C74  1  0.89446257  0.63875927  0.57107860  1  1.571666  0  0.166511  0.537595  0  4.12629  0
C  C75  1  0.60553707  0.13875945  0.92892181  1  1.571653  0  0.166508  0.537621  0  4.126264  0
C  C76  1  0.89446250  0.13875944  0.42892166  1  1.571662  0  0.166491  0.53756  0  4.126405  0
C  C77  1  0.60553725  0.63875924  0.07107846  1  1.571663  0  0.166519  0.537589  0  4.126393  0
C  C78  1  0.10553694  0.36124102  0.42892169  1  1.571594  0  0.16651  0.537594  0  4.126386  0
C  C79  1  0.39446345  0.86124029  0.07107848  1  1.571654  0  0.166506  0.537589  0  4.126405  0
C  C80  1  0.13864265  0.86622595  0.78630737  1  1.545112  0  0.161186  0.52473  0  4.163059  0
C  C81  1  0.36135761  0.36622613  0.71369309  1  1.545093  0  0.161173  0.524685  0  4.162983  0
C  C82  1  0.86135687  0.63377364  0.78630734  1  1.545119  0  0.161194  0.524772  0  4.163035  0
C  C83  1  0.63864277  0.13377380  0.71369307  1  1.545091  0  0.161196  0.52475  0  4.163007  0
C  C84  1  0.86135786  0.13377379  0.21369292  1  1.545088  0  0.161124  0.52458  0  4.163134  0
C  C85  1  0.63864290  0.63377361  0.28630720  1  1.545094  0  0.161179  0.524661  0  4.163033  0
C  C86  1  0.13864162  0.36622610  0.21369350  1  1.545085  0  0.161134  0.524589  0  4.163064  0
C  C87  1  0.36135674  0.86622650  0.28630722  1  1.54512  0  0.161159  0.524629  0  4.163025  0
C  C88  1  0.01714035  0.09813864  0.63824424  1  1.560672  0  0.162448  0.519104  0  4.164316  0
C  C89  1  0.48285982  0.59813850  0.86175511  1  1.560585  0  0.16241  0.519012  0  4.1645  0
C  C90  1  0.98285903  0.40186184  0.63824476  1  1.560375  0  0.162477  0.51906  0  4.164488  0
C  C91  1  0.51713968  0.90186165  0.86175567  1  1.560678  0  0.162525  0.519243  0  4.164241  0
C  C92  1  0.98285915  0.90186165  0.36175551  1  1.560535  0  0.162455  0.519064  0  4.164446  0
C  C93  1  0.51714070  0.40186179  0.13824463  1  1.560534  0  0.162507  0.519163  0  4.164367  0
C  C94  1  0.01713946  0.59813845  0.36175553  1  1.560679  0  0.162512  0.519245  0  4.164195  0
C  C95  1  0.48285881  0.09813809  0.13824462  1  1.560671  0  0.162504  0.519151  0  4.164367  0
C  C96  1  0.82779863  0.00060399  0.83125097  1  1.557764  0  0.159039  0.527654  0  4.117022  0
C  C97  1  0.67220197  0.50060436  0.66874888  1  1.557758  0  0.158994  0.527561  0  4.117157  0
C  C98  1  0.17220374  0.49939650  0.83125101  1  1.557752  0  0.159049  0.527653  0  4.117001  0
C  C99  1  0.32779556  0.99939577  0.66874891  1  1.55774  0  0.159057  0.527677  0  4.117084  0
C  C100  1  0.17220188  0.99939575  0.16874877  1  1.557757  0  0.159044  0.527677  0  4.117062  0
C  C101  1  0.32779652  0.49939649  0.33125141  1  1.557737  0  0.159053  0.527669  0  4.117028  0
C  C102  1  0.82779778  0.50060435  0.16874928  1  1.557767  0  0.159012  0.527603  0  4.117125  0
C  C103  1  0.67220293  0.00060452  0.33125083  1  1.55775  0  0.159026  0.527643  0  4.11709  0
C  C104  1  0.71820400  0.81003113  0.69239172  1  1.542221  0  0.165276  0.531698  0  4.116828  0
C  C105  1  0.78179570  0.31003131  0.80760815  1  1.542221  0  0.165283  0.531712  0  4.116767  0
C  C106  1  0.28179555  0.68996845  0.69239228  1  1.542314  0  0.165284  0.53176  0  4.116697  0
C  C107  1  0.21820365  0.18996862  0.80760817  1  1.542303  0  0.165226  0.531566  0  4.116863  0
C  C108  1  0.28179551  0.18996861  0.30760802  1  1.542225  0  0.165276  0.531688  0  4.116798  0
C  C109  1  0.21820380  0.68996898  0.19239214  1  1.542298  0  0.165219  0.531524  0  4.116886  0
C  C110  1  0.71820395  0.31003129  0.30760801  1  1.542302  0  0.165228  0.531557  0  4.116862  0
C  C111  1  0.78179586  0.81003167  0.19239212  1  1.54223  0  0.165293  0.53181  0  4.116697  0
C  C112  1  0.71006402  0.98586600  0.55799206  1  1.591466  0  0.166352  0.522919  0  4.137607  0
C  C113  1  0.78993574  0.48586564  0.94200838  1  1.591423  0  0.166382  0.523006  0  4.137562  0
C  C114  1  0.28993455  0.51413357  0.55799151  1  1.591502  0  0.166374  0.522976  0  4.137563  0
C  C115  1  0.21006459  0.01413430  0.94200838  1  1.591434  0  0.166367  0.522902  0  4.137627  0
C  C116  1  0.28993549  0.01413429  0.44200823  1  1.591434  0  0.166387  0.522959  0  4.137545  0
C  C117  1  0.21006478  0.51413410  0.05799191  1  1.591429  0  0.166349  0.522907  0  4.137639  0
C  C118  1  0.71006496  0.48586562  0.44200824  1  1.59143  0  0.166355  0.52291  0  4.137651  0
C  C119  1  0.78993492  0.98586599  0.05799136  1  1.591541  0  0.166339  0.522905  0  4.137619  0
O  O120  1  0.02905195  0.91758612  0.58411648  1  -1.184449  0  -0.31637  -0.549091  0  2.522248  0
O  O121  1  0.47094834  0.41758633  0.91588343  1  -1.184449  0  -0.316381  -0.549108  0  2.522133  0
O  O122  1  0.97094864  0.58241401  0.58411699  1  -1.184431  0  -0.316368  -0.549094  0  2.522195  0
O  O123  1  0.52905199  0.08241417  0.91588342  1  -1.184443  0  -0.316358  -0.549088  0  2.522213  0
O  O124  1  0.97094756  0.08241362  0.41588381  1  -1.184438  0  -0.316364  -0.549076  0  2.52221  0
O  O125  1  0.52905218  0.58241452  0.08411686  1  -1.184439  0  -0.316362  -0.549063  0  2.522254  0
O  O126  1  0.02905188  0.41758629  0.41588385  1  -1.184456  0  -0.316374  -0.549102  0  2.522268  0
O  O127  1  0.47094751  0.91758557  0.08411632  1  -1.184436  0  -0.316363  -0.549078  0  2.522207  0
O  O128  1  0.11349280  0.80394837  0.60855293  1  -1.186605  0  -0.30258  -0.498967  0  2.3702  0
O  O129  1  0.38650745  0.30394857  0.89144698  1  -1.186607  0  -0.302571  -0.498989  0  2.370131  0
O  O130  1  0.88650676  0.69605175  0.60855290  1  -1.186577  0  -0.302576  -0.498972  0  2.370195  0
O  O131  1  0.61349289  0.19605192  0.89144751  1  -1.186573  0  -0.302593  -0.49902  0  2.370121  0
O  O132  1  0.88650670  0.19605192  0.39144736  1  -1.186575  0  -0.302586  -0.498994  0  2.370224  0
O  O133  1  0.61349307  0.69605227  0.10855276  1  -1.186585  0  -0.302603  -0.499013  0  2.370196  0
O  O134  1  0.11349274  0.30394799  0.39144739  1  -1.186604  0  -0.302585  -0.498995  0  2.370195  0
O  O135  1  0.38650661  0.80394782  0.10855278  1  -1.186583  0  -0.3026  -0.498998  0  2.370222  0
O  O136  1  0.08535394  0.92207310  0.75422916  1  -1.192522  0  -0.316684  -0.549516  0  2.526824  0
O  O137  1  0.41464634  0.42207274  0.74577130  1  -1.192531  0  -0.316689  -0.549516  0  2.526806  0
O  O138  1  0.91464559  0.57792704  0.75422857  1  -1.192537  0  -0.316691  -0.549534  0  2.526809  0
O  O139  1  0.58535403  0.07792664  0.74577129  1  -1.192532  0  -0.316701  -0.549545  0  2.526826  0
O  O140  1  0.91464657  0.07792719  0.24577113  1  -1.192533  0  -0.316645  -0.549442  0  2.526808  0
O  O141  1  0.58535316  0.57792700  0.25422899  1  -1.192516  0  -0.316649  -0.549462  0  2.526788  0
O  O142  1  0.08535391  0.42207325  0.24577172  1  -1.192524  0  -0.316657  -0.549448  0  2.526788  0
O  O143  1  0.41464548  0.92207309  0.25422846  1  -1.192539  0  -0.316625  -0.54944  0  2.526741  0
O  O144  1  0.11480660  0.79978265  0.77348900  1  -1.157974  0  -0.304902  -0.494979  0  2.360953  0
O  O145  1  0.38519466  0.29978229  0.72651091  1  -1.158025  0  -0.304906  -0.49495  0  2.360854  0
O  O146  1  0.88519292  0.70021748  0.77348952  1  -1.157965  0  -0.304881  -0.494976  0  2.360939  0
O  O147  1  0.61480572  0.20021764  0.72651090  1  -1.157977  0  -0.304905  -0.494989  0  2.360898  0
O  O148  1  0.88519391  0.20021764  0.22651129  1  -1.158018  0  -0.304891  -0.494922  0  2.360915  0
O  O149  1  0.61480586  0.70021745  0.27348938  1  -1.158023  0  -0.304933  -0.494961  0  2.36092  0
O  O150  1  0.11480557  0.29978226  0.22651077  1  -1.158026  0  -0.304898  -0.494937  0  2.360906  0
O  O151  1  0.38519378  0.79978265  0.27348939  1  -1.15799  0  -0.304927  -0.494941  0  2.360908  0
O  O152  1  0.00811971  0.04524442  0.68475926  1  -1.192737  0  -0.320011  -0.551992  0  2.562584  0
O  O153  1  0.49188045  0.54524427  0.81524063  1  -1.192754  0  -0.320004  -0.551947  0  2.562614  0
O  O154  1  0.99188067  0.45475551  0.68475979  1  -1.192738  0  -0.320029  -0.551982  0  2.562662  0
O  O155  1  0.50812008  0.95475532  0.81524064  1  -1.192721  0  -0.320045  -0.552041  0  2.562573  0
O  O156  1  0.99187979  0.95475588  0.31524048  1  -1.19275  0  -0.320021  -0.551987  0  2.562621  0
O  O157  1  0.50812007  0.45475547  0.18475911  1  -1.192753  0  -0.320044  -0.552032  0  2.562627  0
O  O158  1  0.00811984  0.54524478  0.31524050  1  -1.192718  0  -0.320046  -0.552052  0  2.562574  0
O  O159  1  0.49187942  0.04524497  0.18475965  1  -1.192727  0  -0.320035  -0.552017  0  2.562669  0
O  O160  1  0.99870076  0.09293869  0.57071843  1  -1.178049  0  -0.303468  -0.499706  0  2.369731  0
O  O161  1  0.50129886  0.59293906  0.92928088  1  -1.178021  0  -0.303444  -0.499663  0  2.369791  0
O  O162  1  0.00129864  0.40706122  0.57071903  1  -1.178024  0  -0.303481  -0.499699  0  2.36978  0
O  O163  1  0.49870063  0.90706164  0.92928144  1  -1.178045  0  -0.303478  -0.49975  0  2.369754  0
O  O164  1  0.00129976  0.90706105  0.42928131  1  -1.178029  0  -0.303455  -0.499669  0  2.369791  0
O  O165  1  0.49870064  0.40706123  0.07071886  1  -1.17803  0  -0.303492  -0.49974  0  2.369742  0
O  O166  1  0.99870086  0.59293852  0.42928181  1  -1.178046  0  -0.303469  -0.499738  0  2.369685  0
O  O167  1  0.50129989  0.09293865  0.07071831  1  -1.178035  0  -0.303504  -0.499757  0  2.369722  0
O  O168  1  0.80174303  0.96899704  0.77002332  1  -1.196964  0  -0.319676  -0.547818  0  2.514555  0
O  O169  1  0.69825672  0.46899720  0.72997657  1  -1.196954  0  -0.319678  -0.547794  0  2.514559  0
O  O170  1  0.19825852  0.53100255  0.77002277  1  -1.196976  0  -0.319674  -0.547776  0  2.514464  0
O  O171  1  0.30174264  0.03100328  0.72997657  1  -1.196966  0  -0.319682  -0.547799  0  2.51456  0
O  O172  1  0.19825647  0.03100325  0.22997643  1  -1.196961  0  -0.319667  -0.547806  0  2.514547  0
O  O173  1  0.30174278  0.53100309  0.27002317  1  -1.196968  0  -0.319685  -0.547818  0  2.514564  0
O  O174  1  0.80174301  0.46899719  0.22997697  1  -1.196968  0  -0.319683  -0.547806  0  2.514565  0
O  O175  1  0.69825686  0.96899701  0.27002317  1  -1.196979  0  -0.319684  -0.547822  0  2.514548  0
O  O176  1  0.94046947  0.02616755  0.85095470  1  -1.172394  0  -0.310281  -0.49829  0  2.347844  0
O  O177  1  0.55953215  0.52616900  0.64904516  1  -1.172391  0  -0.310254  -0.498238  0  2.347906  0
O  O178  1  0.05953290  0.47383129  0.85095419  1  -1.172342  0  -0.310296  -0.498312  0  2.34788  0
O  O179  1  0.44046639  0.97383058  0.64904573  1  -1.172345  0  -0.310294  -0.498328  0  2.347905  0
O  O180  1  0.05953206  0.97383054  0.14904559  1  -1.172387  0  -0.310281  -0.49829  0  2.347844  0
O  O181  1  0.44046836  0.47383239  0.35095458  1  -1.172354  0  -0.310276  -0.49829  0  2.347847  0
O  O182  1  0.94046862  0.52616900  0.14904610  1  -1.172377  0  -0.310249  -0.498246  0  2.347922  0
O  O183  1  0.55953210  0.02616916  0.35095402  1  -1.172368  0  -0.310269  -0.498278  0  2.34787  0
O  O184  1  0.84202410  0.83148021  0.68663111  1  -1.175287  0  -0.311899  -0.537849  0  2.505346  0
O  O185  1  0.65797560  0.33148038  0.81336876  1  -1.175291  0  -0.311899  -0.537843  0  2.505314  0
O  O186  1  0.15797545  0.66851937  0.68663113  1  -1.175295  0  -0.311893  -0.537852  0  2.505306  0
O  O187  1  0.34202374  0.16851956  0.81336931  1  -1.175281  0  -0.311891  -0.537802  0  2.505343  0
O  O188  1  0.15797642  0.16851953  0.31336918  1  -1.175287  0  -0.311897  -0.537847  0  2.505342  0
O  O189  1  0.34202390  0.66851991  0.18663098  1  -1.175276  0  -0.311883  -0.53777  0  2.505345  0
O  O190  1  0.84202406  0.33148037  0.31336916  1  -1.175288  0  -0.311893  -0.537802  0  2.505342  0
O  O191  1  0.65797576  0.83148073  0.18663152  1  -1.175235  0  -0.311907  -0.537885  0  2.505328  0
O  O192  1  0.78869999  0.99017114  0.50438971  1  -1.178029  0  -0.300091  -0.494154  0  2.380462  0
O  O193  1  0.71129976  0.49017132  0.99561018  1  -1.178041  0  -0.300103  -0.4942  0  2.380451  0
O  O194  1  0.21129959  0.50982898  0.50438971  1  -1.178053  0  -0.300108  -0.494202  0  2.380497  0
O  O195  1  0.28870055  0.00982918  0.99561018  1  -1.178036  0  -0.300115  -0.494176  0  2.380515  0
O  O196  1  0.21130052  0.00982915  0.49561004  1  -1.178033  0  -0.300117  -0.494189  0  2.380431  0
O  O197  1  0.28869974  0.50982897  0.00439011  1  -1.178028  0  -0.300082  -0.494146  0  2.380504  0
O  O198  1  0.78869991  0.49017076  0.49561003  1  -1.178037  0  -0.300092  -0.494165  0  2.380515  0
O  O199  1  0.71129996  0.99017112  0.00438956  1  -1.178056  0  -0.300095  -0.494165  0  2.380484  0
O  O200  1  0.61643951  0.85024249  0.70223374  1  -1.169926  0  -0.308012  -0.495776  0  2.348665  0
O  O201  1  0.88356020  0.35024323  0.79776669  1  -1.169892  0  -0.308017  -0.495777  0  2.348614  0
O  O202  1  0.38356003  0.64975654  0.70223319  1  -1.169898  0  -0.308006  -0.495776  0  2.348645  0
O  O203  1  0.11643915  0.14975671  0.79776671  1  -1.169941  0  -0.307977  -0.495698  0  2.348628  0
O  O204  1  0.38355999  0.14975670  0.29776655  1  -1.169897  0  -0.308021  -0.49578  0  2.348638  0
O  O205  1  0.11643930  0.64975706  0.20223360  1  -1.169934  0  -0.307976  -0.495682  0  2.348639  0
O  O206  1  0.61643947  0.35024320  0.29776655  1  -1.169934  0  -0.307966  -0.495683  0  2.348619  0
O  O207  1  0.88356036  0.85024303  0.20223358  1  -1.169904  0  -0.308004  -0.495795  0  2.348661  0
O  O208  1  0.74486611  0.97864542  0.62550086  1  -1.191915  0  -0.316207  -0.548573  0  2.518266  0
O  O209  1  0.75513465  0.47864505  0.87449958  1  -1.191862  0  -0.316219  -0.548608  0  2.518272  0
O  O210  1  0.25513446  0.52135416  0.62550140  1  -1.191913  0  -0.316211  -0.548585  0  2.518223  0
O  O211  1  0.24486569  0.02135489  0.87449848  1  -1.191868  0  -0.316206  -0.548551  0  2.518224  0
O  O212  1  0.25513440  0.02135487  0.37449834  1  -1.191874  0  -0.316208  -0.548574  0  2.518209  0
O  O213  1  0.24486586  0.52135469  0.12550126  1  -1.191876  0  -0.316214  -0.548564  0  2.518241  0
O  O214  1  0.74486605  0.47864503  0.37449889  1  -1.191875  0  -0.316204  -0.548553  0  2.51826  0
O  O215  1  0.75513382  0.97864540  0.12550071  1  -1.191968  0  -0.316192  -0.548547  0  2.518232  0
