# generated using pymatgen
data_Hf3H2(C3O4)4
_symmetry_space_group_name_H-M   'P 1'
_cell_length_a   12.99953469
_cell_length_b   12.99938252
_cell_length_c   12.99998275
_cell_angle_alpha   90.01120563
_cell_angle_beta   119.99316325
_cell_angle_gamma   119.99137167
_symmetry_Int_Tables_number   1
_chemical_formula_structural   Hf3H2(C3O4)4
_chemical_formula_sum   'Hf6 H4 C24 O32'
_cell_volume   1553.59332342
_cell_formula_units_Z   2
loop_
 _symmetry_equiv_pos_site_id
 _symmetry_equiv_pos_as_xyz
  1  'x, y, z'
loop_
 _atom_site_type_symbol
 _atom_site_label
 _atom_site_symmetry_multiplicity
 _atom_site_fract_x
 _atom_site_fract_y
 _atom_site_fract_z
 _atom_site_occupancy
 _atom_site_pbe_bader_charge
 _atom_site_pbe_bader_spin_density
 _atom_site_pbe_cm5_charge
 _atom_site_pbe_ddec_charge
 _atom_site_pbe_ddec_spin_density
 _atom_site_pbe_ddec_sum_bond_order
 _atom_site_pbe_magmom
Hf  Hf0  1  0.00226955  0.86407697  0.86372879  1  2.625773  0  1.509951  2.142719  0  3.319364  0
Hf  Hf1  1  0.00228649  0.86408768  0.13364112  1  2.626948  0  1.51  2.142925  0  3.319015  0
Hf  Hf2  1  0.00226008  0.13400861  0.86373107  1  2.629294  0  1.509553  2.142913  0  3.31811  0
Hf  Hf3  1  0.27217609  0.13402356  0.13364526  1  2.626264  0  1.509557  2.144443  0  3.315765  0
Hf  Hf4  1  0.73237592  0.86412748  0.86374770  1  2.63179  0  1.50907  2.142139  0  3.321791  0
Hf  Hf5  1  0.00227086  0.13402209  0.13369540  1  2.628864  0  1.509803  2.143255  0  3.317751  0
H  H6  1  0.21548944  0.89246580  0.10530893  1  0.590362  0  0.341053  0.419572  0  0.853374  0
H  H7  1  0.78906532  0.89245908  0.67884909  1  0.614303  0  0.341227  0.419735  0  0.854528  0
H  H8  1  0.21551710  0.31894889  0.10534825  1  0.589963  0  0.341335  0.420593  0  0.854243  0
H  H9  1  0.78902247  0.89246006  0.10535737  1  0.607597  0  0.340949  0.419561  0  0.854107  0
C  C10  1  0.01180520  0.00374388  0.66135770  1  1.668557  0  0.258322  0.700313  0  4.145399  0
C  C11  1  0.99295996  0.65229064  0.99404267  1  1.677389  0  0.258866  0.702923  0  4.143857  0
C  C12  1  0.34424978  0.00366079  0.99396903  1  1.66113  0  0.258661  0.70129  0  4.145486  0
C  C13  1  0.66027694  0.65228093  0.66134009  1  1.687911  0  0.258727  0.70315  0  4.141872  0
C  C14  1  0.01181953  0.00375394  0.34552517  1  1.671004  0  0.258967  0.70167  0  4.144857  0
C  C15  1  0.99279590  0.33636790  0.99406022  1  1.672152  0  0.259131  0.703899  0  4.142096  0
C  C16  1  0.34436087  0.00371323  0.34548593  1  1.675249  0  0.25829  0.702077  0  4.144065  0
C  C17  1  0.66017327  0.65217851  0.99385447  1  1.686635  0  0.2589  0.703378  0  4.141111  0
C  C18  1  0.66020002  0.00379098  0.66136021  1  1.685939  0  0.258703  0.702104  0  4.143534  0
C  C19  1  0.34423417  0.33637140  0.99376297  1  1.689205  0  0.258566  0.702143  0  4.142315  0
C  C20  1  0.34441217  0.33640685  0.34553132  1  1.660759  0  0.258927  0.70319  0  4.142023  0
C  C21  1  0.66013404  0.00378448  0.99395127  1  1.681443  0  0.258648  0.702456  0  4.14326  0
C  C22  1  0.98914839  0.53914967  0.99214754  1  -0.112539  0  -0.008692  -0.106603  0  3.900781  0
C  C23  1  0.98905438  0.44573508  0.99220315  1  -0.052476  0  -0.008149  -0.106509  0  3.900728  0
C  C24  1  0.01567760  0.00561765  0.55205436  1  0.028765  0  -0.008119  -0.105119  0  3.90028  0
C  C25  1  0.01563406  0.00561994  0.45867133  1  -0.191225  0  -0.00881  -0.106517  0  3.901017  0
C  C26  1  0.45548709  0.00556178  0.99208055  1  -0.155014  0  -0.008405  -0.104978  0  3.899916  0
C  C27  1  0.54887511  0.00564828  0.99204357  1  -0.012996  0  -0.008716  -0.107343  0  3.900931  0
C  C28  1  0.54902584  0.53911395  0.55202283  1  -0.13644  0  -0.009186  -0.108067  0  3.901538  0
C  C29  1  0.45564027  0.44574388  0.45866421  1  -0.043031  0  -0.007833  -0.104811  0  3.901053  0
C  C30  1  0.54887883  0.53899314  0.99185945  1  0.036554  0  -0.008955  -0.107842  0  3.901521  0
C  C31  1  0.45546911  0.44559076  0.99176462  1  -0.210252  0  -0.008038  -0.105004  0  3.901538  0
C  C32  1  0.45558135  0.00561663  0.45865882  1  -0.202201  0  -0.008205  -0.10483  0  3.898988  0
C  C33  1  0.54893676  0.00564484  0.55204347  1  0.027756  0  -0.00864  -0.107443  0  3.901319  0
O  O34  1  0.00894375  0.09014132  0.70361510  1  -1.14552  0  -0.322287  -0.558142  0  2.242901  0
O  O35  1  0.99578151  0.69741577  0.08326572  1  -1.147433  0  -0.322668  -0.558976  0  2.243844  0
O  O36  1  0.21277721  0.91443092  0.90757156  1  -1.148502  0  -0.322842  -0.558812  0  2.243513  0
O  O37  1  0.79176496  0.69732905  0.70365721  1  -1.141854  0  -0.322843  -0.558446  0  2.240869  0
O  O38  1  0.61613387  0.69743945  0.70356501  1  -1.152347  0  -0.323135  -0.559847  0  2.242775  0
O  O39  1  0.38838833  0.09009930  0.08319747  1  -1.147833  0  -0.323242  -0.559074  0  2.243711  0
O  O40  1  0.99576807  0.69737825  0.90762719  1  -1.150566  0  -0.323073  -0.559549  0  2.24284  0
O  O41  1  0.00894486  0.91449385  0.70362757  1  -1.147792  0  -0.323122  -0.55884  0  2.2423  0
O  O42  1  0.89011900  0.83083124  0.94261479  1  -1.202645  0  -0.760909  -1.064849  0  2.232139  0
O  O43  1  0.11442741  0.05514932  0.94260972  1  -1.200417  0  -0.760837  -1.065874  0  2.233157  0
O  O44  1  0.15459268  0.92290678  0.07484906  1  -1.211923  0  -0.657953  -1.002089  0  2.427113  0
O  O45  1  0.84995448  0.92289806  0.77018373  1  -1.237516  0  -0.657988  -1.002301  0  2.428081  0
O  O46  1  0.00901610  0.91453951  0.30040540  1  -1.148303  0  -0.323269  -0.558915  0  2.242724  0
O  O47  1  0.99550419  0.29403745  0.90759168  1  -1.148677  0  -0.323238  -0.55999  0  2.242916  0
O  O48  1  0.38848918  0.09015588  0.30041348  1  -1.150994  0  -0.322981  -0.559464  0  2.242429  0
O  O49  1  0.61608467  0.69734409  0.90748445  1  -1.152448  0  -0.323137  -0.559722  0  2.242551  0
O  O50  1  0.61607508  0.91455633  0.70364855  1  -1.150631  0  -0.32327  -0.559397  0  2.242457  0
O  O51  1  0.38835281  0.29407562  0.08298855  1  -1.144766  0  -0.323137  -0.55954  0  2.240624  0
O  O52  1  0.21291871  0.29412814  0.30047092  1  -1.142665  0  -0.322749  -0.559899  0  2.241915  0
O  O53  1  0.79161776  0.09018439  0.08318818  1  -1.137886  0  -0.322478  -0.558294  0  2.241057  0
O  O54  1  0.38853826  0.29412299  0.30040609  1  -1.14897  0  -0.32363  -0.559941  0  2.240911  0
O  O55  1  0.61603434  0.91455324  0.90753641  1  -1.150321  0  -0.32308  -0.559492  0  2.242745  0
O  O56  1  0.21288229  0.91445808  0.30035762  1  -1.151164  0  -0.322716  -0.559515  0  2.24291  0
O  O57  1  0.21273749  0.29419293  0.90747760  1  -1.159563  0  -0.32305  -0.559635  0  2.241734  0
O  O58  1  0.79167506  0.09017044  0.70359841  1  -1.1487  0  -0.322734  -0.558151  0  2.241542  0
O  O59  1  0.79164921  0.69726904  0.08308841  1  -1.156673  0  -0.322879  -0.558689  0  2.240312  0
O  O60  1  0.00894576  0.09016025  0.30044618  1  -1.145621  0  -0.32265  -0.558581  0  2.242299  0
O  O61  1  0.99566378  0.29413416  0.08332478  1  -1.147268  0  -0.322645  -0.559261  0  2.24238  0
O  O62  1  0.89013821  0.05516308  0.94265971  1  -1.201386  0  -0.760721  -1.065006  0  2.231944  0
O  O63  1  0.11444136  0.05515697  0.16694966  1  -1.199811  0  -0.760723  -1.065854  0  2.233137  0
O  O64  1  0.15463838  0.22761208  0.07490838  1  -1.215419  0  -0.657889  -1.003208  0  2.427133  0
O  O65  1  0.84991574  0.92289447  0.07491157  1  -1.229813  0  -0.657582  -1.002027  0  2.425919  0
