# generated using pymatgen
data_CdH5C4N9
_symmetry_space_group_name_H-M   'P 1'
_cell_length_a   8.42550574
_cell_length_b   9.87881331
_cell_length_c   12.05957609
_cell_angle_alpha   114.20433565
_cell_angle_beta   104.01912865
_cell_angle_gamma   89.99822001
_symmetry_Int_Tables_number   1
_chemical_formula_structural   CdH5C4N9
_chemical_formula_sum   'Cd4 H20 C16 N36'
_cell_volume   882.64699546
_cell_formula_units_Z   4
loop_
 _symmetry_equiv_pos_site_id
 _symmetry_equiv_pos_as_xyz
  1  'x, y, z'
loop_
 _atom_site_type_symbol
 _atom_site_label
 _atom_site_symmetry_multiplicity
 _atom_site_fract_x
 _atom_site_fract_y
 _atom_site_fract_z
 _atom_site_occupancy
 _atom_site_hle17_bader_spin_density
 _atom_site_hle17_ddec_charge
 _atom_site_hle17_ddec_spin_density
 _atom_site_hle17_ddec_sum_bond_order
 _atom_site_hle17_magmom
 _atom_site_hse06_10hf_bader_spin_density
 _atom_site_hse06_10hf_ddec_charge
 _atom_site_hse06_10hf_ddec_spin_density
 _atom_site_hse06_10hf_ddec_sum_bond_order
 _atom_site_hse06_10hf_magmom
 _atom_site_hse06_bader_spin_density
 _atom_site_hse06_ddec_charge
 _atom_site_hse06_ddec_spin_density
 _atom_site_hse06_ddec_sum_bond_order
 _atom_site_hse06_magmom
 _atom_site_pbe_bader_spin_density
 _atom_site_pbe_cm5_charge
 _atom_site_pbe_ddec_charge
 _atom_site_pbe_ddec_spin_density
 _atom_site_pbe_ddec_sum_bond_order
 _atom_site_pbe_magmom
Cd  Cd0  1  0.00000045  0.50000017  0.50000019  1  0  0.949549  0  1.847031  0  0  0.71545  0  2.312007  0  0  0.765206  0  2.272076  0  0  0.810327  0.679425  0  2.339305  0
Cd  Cd1  1  0.50000023  0.99999995  0.50000003  1  0  0.948022  0  1.851136  0  0  0.714834  0  2.315804  0  0  0.764531  0  2.27588  0  0  0.810781  0.678941  0  2.343816  0
Cd  Cd2  1  0.25006086  0.09867513  0.99998628  1  0  0.902426  0  1.892612  0  0  0.673872  0  2.350981  0  0  0.72317  0  2.313753  0  0  0.800079  0.639232  0  2.375968  0
Cd  Cd3  1  0.74993857  0.90132364  0.00001318  1  0  0.902399  0  1.89261  0  0  0.673843  0  2.350982  0  0  0.723139  0  2.313756  0  0  0.800068  0.6392  0  2.37597  0
H  H4  1  0.17304735  0.27835118  0.85195090  1  0  0.251284  0  0.884385  0  0  0.252223  0  0.92526  0  0  0.257153  0  0.922629  0  0  0.301505  0.248587  0  0.927439  0
H  H5  1  0.32686149  0.42634216  0.14809380  1  0  0.250925  0  0.885519  0  0  0.251797  0  0.926121  0  0  0.25673  0  0.923497  0  0  0.301258  0.248179  0  0.928286  0
H  H6  1  0.82695343  0.72164870  0.14805000  1  0  0.251392  0  0.8843  0  0  0.252323  0  0.925184  0  0  0.257252  0  0.922553  0  0  0.301535  0.248683  0  0.927373  0
H  H7  1  0.67313930  0.57365775  0.85190463  1  0  0.250946  0  0.885505  0  0  0.251814  0  0.926113  0  0  0.256748  0  0.923488  0  0  0.301259  0.248196  0  0.928275  0
H  H8  1  0.13184994  0.97104255  0.66233199  1  0  0.107601  0  0.919986  0  0  0.117286  0  0.986066  0  0  0.118192  0  0.986072  0  0  0.120554  0.116539  0  0.986191  0
H  H9  1  0.36825624  0.30845998  0.33748942  1  0  0.108315  0  0.920161  0  0  0.118061  0  0.985759  0  0  0.119023  0  0.985713  0  0  0.12061  0.117367  0  0.985863  0
H  H10  1  0.86815099  0.02895846  0.33766849  1  0  0.1076  0  0.919957  0  0  0.117279  0  0.986028  0  0  0.118197  0  0.986023  0  0  0.120559  0.116533  0  0.98615  0
H  H11  1  0.63174074  0.69153881  0.66250880  1  0  0.108335  0  0.920191  0  0  0.118046  0  0.985814  0  0  0.119008  0  0.985768  0  0  0.120616  0.117353  0  0.985916  0
H  H12  1  0.19850002  0.13420655  0.65139132  1  0  0.098926  0  0.943171  0  0  0.104799  0  1.012723  0  0  0.106122  0  1.013023  0  0  0.11233  0.103805  0  1.012649  0
H  H13  1  0.30175510  0.48274949  0.34874996  1  0  0.099983  0  0.944188  0  0  0.105792  0  1.013293  0  0  0.107117  0  1.013584  0  0  0.112254  0.104844  0  1.013229  0
H  H14  1  0.80150091  0.86579445  0.34860917  1  0  0.098879  0  0.943204  0  0  0.104761  0  1.012731  0  0  0.106084  0  1.013032  0  0  0.112312  0.103762  0  1.012658  0
H  H15  1  0.69824460  0.51725152  0.65125032  1  0  0.099962  0  0.944226  0  0  0.105783  0  1.013314  0  0  0.107107  0  1.013606  0  0  0.112247  0.104832  0  1.013248  0
H  H16  1  0.90335959  0.21451364  0.86033641  1  0  0.087713  0  0.903257  0  0  0.102656  0  0.960288  0  0  0.103722  0  0.959477  0  0  0.110123  0.101891  0  0.960902  0
H  H17  1  0.59652295  0.35425345  0.13951422  1  0  0.087985  0  0.904361  0  0  0.102917  0  0.961236  0  0  0.103974  0  0.960467  0  0  0.110294  0.102151  0  0.961814  0
H  H18  1  0.09663997  0.78548625  0.13966429  1  0  0.087731  0  0.903254  0  0  0.102666  0  0.96028  0  0  0.103732  0  0.959469  0  0  0.110121  0.101895  0  0.960896  0
H  H19  1  0.40347648  0.64574532  0.86048525  1  0  0.088023  0  0.904355  0  0  0.102951  0  0.96123  0  0  0.104009  0  0.960461  0  0  0.110315  0.102182  0  0.961806  0
H  H20  1  0.90201447  0.03545185  0.74137679  1  0  0.098929  0  0.932957  0  0  0.105787  0  1.007166  0  0  0.10723  0  1.006038  0  0  0.114977  0.104678  0  1.008098  0
H  H21  1  0.59814247  0.29410041  0.25840659  1  0  0.098964  0  0.933063  0  0  0.106369  0  1.006813  0  0  0.107831  0  1.005652  0  0  0.115224  0.105336  0  1.007584  0
H  H22  1  0.09798618  0.96454694  0.25862205  1  0  0.098936  0  0.932976  0  0  0.105783  0  1.007184  0  0  0.107226  0  1.006057  0  0  0.114969  0.104669  0  1.008115  0
H  H23  1  0.40185587  0.70589947  0.74159389  1  0  0.098974  0  0.933043  0  0  0.106373  0  1.006791  0  0  0.107836  0  1.005629  0  0  0.115222  0.105336  0  1.007563  0
C  C24  1  0.37674615  0.05580714  0.76357219  1  0  0.323236  0  3.735535  0  0  0.294324  0  4.011409  0  0  0.307022  0  4.026507  0  0  0.224136  0.285805  0  4.001146  0
C  C25  1  0.12333732  0.29216590  0.23643918  1  0  0.325227  0  3.732757  0  0  0.295261  0  4.009549  0  0  0.307966  0  4.024633  0  0  0.224283  0.28673  0  3.999244  0
C  C26  1  0.62325478  0.94419386  0.23642912  1  0  0.32334  0  3.735572  0  0  0.294357  0  4.011513  0  0  0.307061  0  4.026602  0  0  0.224149  0.285831  0  4.00126  0
C  C27  1  0.87666118  0.70783513  0.76355923  1  0  0.325188  0  3.732739  0  0  0.295201  0  4.00952  0  0  0.307907  0  4.024602  0  0  0.22422  0.286673  0  3.999208  0
C  C28  1  0.20446617  0.08137539  0.71637613  1  0  -0.073761  0  3.659642  0  0  -0.124342  0  3.907118  0  0  -0.122996  0  3.917826  0  0  -0.064222  -0.125057  0  3.899647  0
C  C29  1  0.29567445  0.36489216  0.28362875  1  0  -0.076291  0  3.662068  0  0  -0.127278  0  3.910595  0  0  -0.125927  0  3.921191  0  0  -0.063928  -0.128182  0  3.903347  0
C  C30  1  0.79553476  0.91862561  0.28362435  1  0  -0.073736  0  3.659673  0  0  -0.124264  0  3.907097  0  0  -0.12293  0  3.917804  0  0  -0.064191  -0.124975  0  3.899622  0
C  C31  1  0.70432390  0.63510774  0.71637009  1  0  -0.07629  0  3.662092  0  0  -0.127251  0  3.910596  0  0  -0.125899  0  3.921195  0  0  -0.063907  -0.128149  0  3.903329  0
C  C32  1  0.89356341  0.20937880  0.67839269  1  0  0.283938  0  3.75172  0  0  0.271375  0  4.024155  0  0  0.280947  0  4.040592  0  0  0.202973  0.264939  0  4.013031  0
C  C33  1  0.60640904  0.53108458  0.32155867  1  0  0.284302  0  3.751314  0  0  0.27159  0  4.023897  0  0  0.281112  0  4.040394  0  0  0.202673  0.265184  0  4.012681  0
C  C34  1  0.10643860  0.79062109  0.32160760  1  0  0.283935  0  3.751763  0  0  0.271395  0  4.024159  0  0  0.280968  0  4.040595  0  0  0.202944  0.264967  0  4.013021  0
C  C35  1  0.39359053  0.46891531  0.67844120  1  0  0.284329  0  3.751296  0  0  0.271612  0  4.023879  0  0  0.281136  0  4.040376  0  0  0.202688  0.265204  0  4.012657  0
C  C36  1  0.95059238  0.15301143  0.77799033  1  0  -0.05117  0  3.66469  0  0  -0.112455  0  3.929255  0  0  -0.108767  0  3.937613  0  0  -0.0614  -0.114931  0  3.923473  0
C  C37  1  0.54941120  0.37505914  0.22188566  1  0  -0.052211  0  3.665552  0  0  -0.113835  0  3.929704  0  0  -0.110171  0  3.938143  0  0  -0.06203  -0.116198  0  3.923598  0
C  C38  1  0.04940841  0.84698846  0.22200975  1  0  -0.051235  0  3.664766  0  0  -0.112488  0  3.929279  0  0  -0.108799  0  3.937636  0  0  -0.061399  -0.114955  0  3.923489  0
C  C39  1  0.45058837  0.62494075  0.77811421  1  0  -0.052271  0  3.665572  0  0  -0.113874  0  3.929703  0  0  -0.110207  0  3.938139  0  0  -0.062051  -0.11622  0  3.923574  0
N  N40  1  0.43411325  0.05310015  0.87614026  1  0  -0.330535  0  3.153134  0  0  -0.273731  0  3.436103  0  0  -0.290657  0  3.451991  0  0  -0.248424  -0.262124  0  3.425045  0
N  N41  1  0.06586269  0.17690975  0.12381004  1  0  -0.33076  0  3.152266  0  0  -0.273975  0  3.435859  0  0  -0.290892  0  3.451709  0  0  -0.2486  -0.262239  0  3.424396  0
N  N42  1  0.56588754  0.94689973  0.12386064  1  0  -0.330511  0  3.153097  0  0  -0.273692  0  3.436077  0  0  -0.29062  0  3.451961  0  0  -0.248405  -0.262081  0  3.425017  0
N  N43  1  0.93413566  0.82309016  0.87618797  1  0  -0.330764  0  3.152246  0  0  -0.273985  0  3.435846  0  0  -0.290901  0  3.451697  0  0  -0.248616  -0.262248  0  3.424381  0
N  N44  1  0.58681197  0.01153938  0.87919934  1  0  -0.10827  0  3.18277  0  0  -0.062417  0  3.482309  0  0  -0.06992  0  3.497904  0  0  -0.120936  -0.057261  0  3.471579  0
N  N45  1  0.91313071  0.13236503  0.12074746  1  0  -0.108458  0  3.184169  0  0  -0.062455  0  3.483682  0  0  -0.069964  0  3.499282  0  0  -0.120671  -0.057087  0  3.472478  0
N  N46  1  0.41318896  0.98846162  0.12080197  1  0  -0.108368  0  3.182843  0  0  -0.062519  0  3.482387  0  0  -0.070023  0  3.497983  0  0  -0.120985  -0.057365  0  3.471657  0
N  N47  1  0.08686885  0.86763486  0.87925241  1  0  -0.108427  0  3.184174  0  0  -0.062426  0  3.483692  0  0  -0.069935  0  3.499292  0  0  -0.120642  -0.057054  0  3.472484  0
N  N48  1  0.62129867  0.99027484  0.77311340  1  0  -0.060047  0  2.960771  0  0  -0.058688  0  3.251071  0  0  -0.055632  0  3.26424  0  0  -0.086949  -0.060487  0  3.242268  0
N  N49  1  0.87871733  0.21720066  0.22688570  1  0  -0.059299  0  2.962242  0  0  -0.058507  0  3.252385  0  0  -0.055466  0  3.265581  0  0  -0.086875  -0.060254  0  3.243155  0
N  N50  1  0.37870212  0.00972505  0.22688668  1  0  -0.060013  0  2.960831  0  0  -0.058647  0  3.251119  0  0  -0.055591  0  3.26429  0  0  -0.086938  -0.060444  0  3.242316  0
N  N51  1  0.12128224  0.78279924  0.77311417  1  0  -0.059301  0  2.96231  0  0  -0.05853  0  3.252449  0  0  -0.055488  0  3.265643  0  0  -0.086885  -0.060277  0  3.243223  0
N  N52  1  0.49185555  0.01850121  0.69934544  1  0  -0.297688  0  3.127448  0  0  -0.241948  0  3.424982  0  0  -0.258613  0  3.437513  0  0  -0.222642  -0.230823  0  3.416608  0
N  N53  1  0.00827005  0.31912966  0.30069907  1  0  -0.299255  0  3.12887  0  0  -0.241955  0  3.42565  0  0  -0.258614  0  3.438125  0  0  -0.222467  -0.230513  0  3.416767  0
N  N54  1  0.50814538  0.98149978  0.30065587  1  0  -0.297766  0  3.127528  0  0  -0.242015  0  3.425097  0  0  -0.25868  0  3.437625  0  0  -0.222673  -0.230887  0  3.416725  0
N  N55  1  0.99172966  0.68087135  0.69930120  1  0  -0.299274  0  3.128963  0  0  -0.241916  0  3.425685  0  0  -0.258575  0  3.438162  0  0  -0.222437  -0.230478  0  3.416809  0
N  N56  1  0.97740012  0.32454688  0.67820420  1  0  -0.329852  0  2.932102  0  0  -0.32376  0  3.21092  0  0  -0.331812  0  3.223933  0  0  -0.251668  -0.318406  0  3.202195  0
N  N57  1  0.52269437  0.64650237  0.32174000  1  0  -0.33099  0  2.932871  0  0  -0.325167  0  3.211961  0  0  -0.333182  0  3.224947  0  0  -0.251618  -0.319845  0  3.203297  0
N  N58  1  0.02259944  0.67545300  0.32179649  1  0  -0.329864  0  2.932028  0  0  -0.323787  0  3.210839  0  0  -0.331839  0  3.223851  0  0  -0.251675  -0.318426  0  3.20211  0
N  N59  1  0.47730642  0.35349753  0.67825926  1  0  -0.331037  0  2.932843  0  0  -0.325215  0  3.211946  0  0  -0.333231  0  3.224931  0  0  -0.25164  -0.319893  0  3.203282  0
N  N60  1  0.89473475  0.33502182  0.57191869  1  0  -0.121694  0  3.217867  0  0  -0.063042  0  3.523905  0  0  -0.071939  0  3.538774  0  0  -0.119518  -0.056553  0  3.513449  0
N  N61  1  0.60530241  0.76328331  0.42809776  1  0  -0.120604  0  3.219595  0  0  -0.06167  0  3.525  0  0  -0.070573  0  3.539879  0  0  -0.119819  -0.05506  0  3.514639  0
N  N62  1  0.10526618  0.66497918  0.42808262  1  0  -0.121719  0  3.217834  0  0  -0.063058  0  3.523853  0  0  -0.071955  0  3.538722  0  0  -0.119515  -0.056579  0  3.513414  0
N  N63  1  0.39469838  0.23671658  0.57190232  1  0  -0.120562  0  3.219553  0  0  -0.061624  0  3.524952  0  0  -0.070527  0  3.539831  0  0  -0.11981  -0.05502  0  3.514597  0
N  N64  1  0.76617095  0.23313187  0.51083274  1  0  -0.092508  0  2.967463  0  0  -0.096751  0  3.260537  0  0  -0.094395  0  3.274303  0  0  -0.111822  -0.098162  0  3.251157  0
N  N65  1  0.73373957  0.72242618  0.48923718  1  0  -0.092773  0  2.967572  0  0  -0.097057  0  3.260556  0  0  -0.094697  0  3.274325  0  0  -0.111564  -0.098455  0  3.251222  0
N  N66  1  0.23382862  0.76686804  0.48916630  1  0  -0.092475  0  2.96746  0  0  -0.096722  0  3.260535  0  0  -0.094366  0  3.274299  0  0  -0.111818  -0.098133  0  3.251159  0
N  N67  1  0.26626108  0.27757259  0.51076249  1  0  -0.092809  0  2.967572  0  0  -0.097097  0  3.260558  0  0  -0.094736  0  3.274328  0  0  -0.111577  -0.098494  0  3.251223  0
N  N68  1  0.76299920  0.15084143  0.57608759  1  0  -0.331391  0  3.093207  0  0  -0.270906  0  3.377416  0  0  -0.288093  0  3.392822  0  0  -0.23634  -0.258886  0  3.366782  0
N  N69  1  0.73686635  0.57484043  0.42393135  1  0  -0.33062  0  3.091747  0  0  -0.270063  0  3.375846  0  0  -0.287241  0  3.391286  0  0  -0.235866  -0.258159  0  3.365088  0
N  N70  1  0.23699928  0.84915957  0.42391330  1  0  -0.33138  0  3.093234  0  0  -0.270907  0  3.377439  0  0  -0.288093  0  3.392843  0  0  -0.236313  -0.258888  0  3.3668  0
N  N71  1  0.26313308  0.42515834  0.57606812  1  0  -0.330602  0  3.091723  0  0  -0.270042  0  3.375818  0  0  -0.287222  0  3.391259  0  0  -0.235855  -0.258138  0  3.365058  0
N  N72  1  0.13277459  0.16801742  0.82200023  1  0  -0.380614  0  3.158324  0  0  -0.315366  0  3.409305  0  0  -0.332034  0  3.418568  0  0  -0.468596  -0.303712  0  3.402687  0
N  N73  1  0.36724239  0.34596718  0.17797742  1  0  -0.379712  0  3.159549  0  0  -0.313846  0  3.409587  0  0  -0.33056  0  3.418922  0  0  -0.467862  -0.302017  0  3.402901  0
N  N74  1  0.86722483  0.83198135  0.17799924  1  0  -0.38068  0  3.158376  0  0  -0.315461  0  3.409353  0  0  -0.33213  0  3.418617  0  0  -0.46861  -0.30381  0  3.402736  0
N  N75  1  0.63275732  0.65403384  0.82202203  1  0  -0.37971  0  3.159577  0  0  -0.313848  0  3.409601  0  0  -0.330565  0  3.418943  0  0  -0.467844  -0.302023  0  3.402904  0
