# generated using pymatgen
data_ErH3C4O9
_symmetry_space_group_name_H-M   'P 1'
_cell_length_a   10.53669869
_cell_length_b   9.89350730
_cell_length_c   11.96829053
_cell_angle_alpha   89.99936973
_cell_angle_beta   107.12260817
_cell_angle_gamma   89.99916549
_symmetry_Int_Tables_number   1
_chemical_formula_structural   ErH3C4O9
_chemical_formula_sum   'Er4 H12 C16 O36'
_cell_volume   1192.33435680
_cell_formula_units_Z   4
loop_
 _symmetry_equiv_pos_site_id
 _symmetry_equiv_pos_as_xyz
  1  'x, y, z'
loop_
 _atom_site_type_symbol
 _atom_site_label
 _atom_site_symmetry_multiplicity
 _atom_site_fract_x
 _atom_site_fract_y
 _atom_site_fract_z
 _atom_site_occupancy
 _atom_site_hle17_bader_spin_density
 _atom_site_hle17_ddec_charge
 _atom_site_hle17_ddec_spin_density
 _atom_site_hle17_ddec_sum_bond_order
 _atom_site_hle17_magmom
 _atom_site_hse06_10hf_bader_spin_density
 _atom_site_hse06_10hf_ddec_charge
 _atom_site_hse06_10hf_ddec_spin_density
 _atom_site_hse06_10hf_ddec_sum_bond_order
 _atom_site_hse06_10hf_magmom
 _atom_site_hse06_bader_spin_density
 _atom_site_hse06_ddec_charge
 _atom_site_hse06_ddec_spin_density
 _atom_site_hse06_ddec_sum_bond_order
 _atom_site_hse06_magmom
 _atom_site_pbe_bader_spin_density
 _atom_site_pbe_cm5_charge
 _atom_site_pbe_ddec_charge
 _atom_site_pbe_ddec_spin_density
 _atom_site_pbe_ddec_sum_bond_order
 _atom_site_pbe_magmom
Er  Er0  1  0.20596952  0.92940731  0.38456505  1  0  2.184858  0  1.649479  0  0  2.021776  0  2.150498  0  0  2.090199  0  2.072197  0  0  1.51525  1.985766  0  2.180125  0
Er  Er1  1  0.29403188  0.42941626  0.11543721  1  0  2.184857  0  1.649436  0  0  2.021761  0  2.15052  0  0  2.090247  0  2.072096  0  0  1.515276  1.985759  0  2.180029  0
Er  Er2  1  0.79404181  0.07058606  0.61544559  1  0  2.184914  0  1.64941  0  0  2.021859  0  2.150455  0  0  2.090362  0  2.072002  0  0  1.515229  1.985883  0  2.180006  0
Er  Er3  1  0.70595747  0.57058418  0.88455664  1  0  2.184862  0  1.649535  0  0  2.02182  0  2.150546  0  0  2.090314  0  2.072121  0  0  1.515178  1.98582  0  2.180107  0
H  H4  1  0.98243079  0.84014887  0.18619105  1  0  0.471514  0  0.764349  0  0  0.44981  0  0.818511  0  0  0.459176  0  0.807827  0  0  0.346021  0.443059  0  0.826449  0
H  H5  1  0.51759131  0.34013786  0.31379616  1  0  0.471649  0  0.764131  0  0  0.449884  0  0.818379  0  0  0.459252  0  0.807695  0  0  0.346031  0.44312  0  0.826321  0
H  H6  1  0.01757282  0.15987684  0.81385163  1  0  0.471407  0  0.764461  0  0  0.449814  0  0.81849  0  0  0.459127  0  0.80788  0  0  0.346035  0.443092  0  0.826371  0
H  H7  1  0.48240706  0.65986561  0.68614828  1  0  0.471539  0  0.763997  0  0  0.449906  0  0.818092  0  0  0.459238  0  0.807471  0  0  0.345972  0.443168  0  0.825997  0
H  H8  1  0.13204805  0.95004168  0.11247195  1  0  0.409607  0  0.868125  0  0  0.376774  0  0.950443  0  0  0.388648  0  0.938097  0  0  0.314852  0.368321  0  0.959277  0
H  H9  1  0.36796517  0.45003419  0.38751974  1  0  0.409197  0  0.868558  0  0  0.376429  0  0.95079  0  0  0.3883  0  0.938454  0  0  0.314707  0.367969  0  0.959614  0
H  H10  1  0.86792237  0.04999616  0.88752749  1  0  0.409574  0  0.868093  0  0  0.376607  0  0.950622  0  0  0.388473  0  0.938294  0  0  0.314743  0.368154  0  0.959457  0
H  H11  1  0.63206085  0.54998646  0.61247108  1  0  0.409597  0  0.868088  0  0  0.37659  0  0.950636  0  0  0.388458  0  0.938306  0  0  0.314764  0.368141  0  0.959444  0
H  H12  1  0.09173289  0.74308280  0.16236411  1  0  0.449212  0  0.841955  0  0  0.416481  0  0.906524  0  0  0.427977  0  0.889939  0  0  0.308304  0.408291  0  0.918322  0
H  H13  1  0.40828882  0.24308626  0.33764186  1  0  0.449365  0  0.841782  0  0  0.416563  0  0.90646  0  0  0.428088  0  0.88984  0  0  0.308306  0.408353  0  0.918275  0
H  H14  1  0.90824633  0.25694492  0.83762528  1  0  0.44948  0  0.841718  0  0  0.416742  0  0.906279  0  0  0.428243  0  0.889685  0  0  0.308329  0.40856  0  0.918063  0
H  H15  1  0.59174001  0.75693035  0.66236878  1  0  0.449539  0  0.841654  0  0  0.416808  0  0.906207  0  0  0.42831  0  0.889611  0  0  0.308367  0.408643  0  0.917972  0
C  C16  1  0.28366071  0.62441638  0.39347170  1  0  0.558585  0  3.780609  0  0  0.507762  0  4.090093  0  0  0.538033  0  4.07942  0  0  0.247948  0.486969  0  4.097806  0
C  C17  1  0.21634964  0.12442229  0.10652163  1  0  0.558474  0  3.781296  0  0  0.507827  0  4.090464  0  0  0.538087  0  4.079818  0  0  0.24795  0.487033  0  4.098186  0
C  C18  1  0.71633660  0.37558304  0.60651362  1  0  0.558464  0  3.781289  0  0  0.507752  0  4.0905  0  0  0.538027  0  4.079832  0  0  0.248028  0.486948  0  4.098229  0
C  C19  1  0.78365365  0.87557815  0.89347573  1  0  0.558327  0  3.781094  0  0  0.507664  0  4.09028  0  0  0.53793  0  4.079636  0  0  0.247911  0.486885  0  4.097986  0
C  C20  1  0.34457309  0.68373457  0.30026970  1  0  0.588935  0  3.944616  0  0  0.546427  0  4.240287  0  0  0.577598  0  4.231579  0  0  0.229254  0.525109  0  4.24684  0
C  C21  1  0.15543611  0.18375261  0.19972445  1  0  0.589168  0  3.944261  0  0  0.546691  0  4.239784  0  0  0.577862  0  4.231077  0  0  0.22934  0.525374  0  4.246356  0
C  C22  1  0.65542141  0.31625373  0.69971676  1  0  0.589172  0  3.944279  0  0  0.546695  0  4.239808  0  0  0.577854  0  4.231123  0  0  0.229325  0.525383  0  4.246379  0
C  C23  1  0.84457000  0.81625894  0.80029273  1  0  0.58922  0  3.943652  0  0  0.54664  0  4.23944  0  0  0.5778  0  4.230758  0  0  0.229329  0.525316  0  4.246013  0
C  C24  1  0.49616207  0.05942191  0.45750763  1  0  0.584237  0  3.892314  0  0  0.540227  0  4.183978  0  0  0.570837  0  4.175785  0  0  0.230212  0.51915  0  4.190383  0
C  C25  1  0.00383265  0.55942342  0.04249789  1  0  0.584056  0  3.892299  0  0  0.539937  0  4.184126  0  0  0.570549  0  4.175944  0  0  0.230081  0.518852  0  4.190506  0
C  C26  1  0.50383615  0.94058358  0.54251894  1  0  0.58409  0  3.891987  0  0  0.540096  0  4.183691  0  0  0.570703  0  4.175504  0  0  0.23016  0.519019  0  4.190103  0
C  C27  1  0.99616581  0.44058712  0.95748933  1  0  0.584036  0  3.892161  0  0  0.540163  0  4.183684  0  0  0.570761  0  4.175505  0  0  0.230122  0.519088  0  4.19005  0
C  C28  1  0.94680130  0.95958446  0.45287644  1  0  0.578275  0  3.924987  0  0  0.538248  0  4.216781  0  0  0.567965  0  4.210401  0  0  0.22621  0.517889  0  4.222099  0
C  C29  1  0.55318524  0.45958115  0.04711103  1  0  0.578013  0  3.925053  0  0  0.538112  0  4.21662  0  0  0.567774  0  4.210352  0  0  0.226266  0.517785  0  4.221853  0
C  C30  1  0.05320615  0.04036645  0.54713429  1  0  0.577803  0  3.925462  0  0  0.537728  0  4.217358  0  0  0.567431  0  4.21101  0  0  0.226207  0.517416  0  4.222608  0
C  C31  1  0.44679802  0.54039300  0.95287997  1  0  0.577768  0  3.925136  0  0  0.537701  0  4.216937  0  0  0.567403  0  4.210626  0  0  0.22602  0.517361  0  4.222179  0
O  O32  1  0.20771418  0.69629278  0.42950170  1  0  -0.565582  0  2.02106  0  0  -0.523463  0  2.249914  0  0  -0.545927  0  2.239209  0  0  -0.320738  -0.509498  0  2.256343  0
O  O33  1  0.29231088  0.19629471  0.07050740  1  0  -0.56555  0  2.021351  0  0  -0.523507  0  2.250119  0  0  -0.545979  0  2.23942  0  0  -0.32071  -0.50954  0  2.256547  0
O  O34  1  0.79229481  0.30370463  0.57049424  1  0  -0.565551  0  2.021272  0  0  -0.523503  0  2.250079  0  0  -0.545985  0  2.239374  0  0  -0.320773  -0.50954  0  2.256508  0
O  O35  1  0.70768596  0.80370471  0.92949376  1  0  -0.565437  0  2.021016  0  0  -0.523409  0  2.249786  0  0  -0.545877  0  2.239089  0  0  -0.320659  -0.509444  0  2.256204  0
O  O36  1  0.31478063  0.50135742  0.43224504  1  0  -0.456266  0  2.083058  0  0  -0.408552  0  2.284084  0  0  -0.428759  0  2.269392  0  0  -0.295075  -0.394639  0  2.294107  0
O  O37  1  0.18523128  0.00137236  0.06774506  1  0  -0.456515  0  2.083084  0  0  -0.408828  0  2.284079  0  0  -0.429033  0  2.26939  0  0  -0.29515  -0.394911  0  2.29411  0
O  O38  1  0.68524174  0.49864402  0.56774844  1  0  -0.456582  0  2.083091  0  0  -0.408689  0  2.284228  0  0  -0.42889  0  2.269536  0  0  -0.295175  -0.394776  0  2.294248  0
O  O39  1  0.81473657  0.99865840  0.93223712  1  0  -0.456459  0  2.082808  0  0  -0.408607  0  2.28384  0  0  -0.42881  0  2.269159  0  0  -0.295009  -0.394692  0  2.293862  0
O  O40  1  0.34375116  0.81078342  0.29494025  1  0  -0.633116  0  2.024029  0  0  -0.590794  0  2.256187  0  0  -0.616787  0  2.246718  0  0  -0.36038  -0.574205  0  2.261574  0
O  O41  1  0.15626201  0.31078252  0.20506804  1  0  -0.633145  0  2.024241  0  0  -0.59085  0  2.256392  0  0  -0.61684  0  2.246915  0  0  -0.360399  -0.57426  0  2.261778  0
O  O42  1  0.65625107  0.18921802  0.70507702  1  0  -0.633134  0  2.023962  0  0  -0.590836  0  2.256093  0  0  -0.616833  0  2.246632  0  0  -0.360302  -0.574247  0  2.261472  0
O  O43  1  0.84373990  0.68920983  0.79492487  1  0  -0.633124  0  2.023453  0  0  -0.59081  0  2.255668  0  0  -0.6168  0  2.246199  0  0  -0.360292  -0.574209  0  2.261047  0
O  O44  1  0.38527164  0.60181687  0.23776384  1  0  -0.671839  0  2.066996  0  0  -0.624792  0  2.312609  0  0  -0.651463  0  2.300029  0  0  -0.392675  -0.607864  0  2.319603  0
O  O45  1  0.11474045  0.10180932  0.26223772  1  0  -0.672054  0  2.066501  0  0  -0.625046  0  2.312109  0  0  -0.651714  0  2.299533  0  0  -0.392759  -0.608118  0  2.31913  0
O  O46  1  0.61473540  0.39819064  0.76222166  1  0  -0.672007  0  2.066784  0  0  -0.624997  0  2.312388  0  0  -0.65167  0  2.299815  0  0  -0.392797  -0.608067  0  2.319399  0
O  O47  1  0.88526451  0.89820729  0.73777756  1  0  -0.672062  0  2.066406  0  0  -0.625011  0  2.31209  0  0  -0.651692  0  2.299519  0  0  -0.392856  -0.608085  0  2.319103  0
O  O48  1  0.38080380  0.08843780  0.38987204  1  0  -0.671412  0  2.044479  0  0  -0.613812  0  2.275298  0  0  -0.642415  0  2.26479  0  0  -0.347539  -0.595461  0  2.281469  0
O  O49  1  0.11919374  0.58844458  0.11013834  1  0  -0.671309  0  2.044336  0  0  -0.613719  0  2.275203  0  0  -0.642323  0  2.264689  0  0  -0.347517  -0.595374  0  2.281358  0
O  O50  1  0.61920160  0.91156365  0.61015841  1  0  -0.671387  0  2.044238  0  0  -0.61386  0  2.275082  0  0  -0.642464  0  2.264567  0  0  -0.347577  -0.595524  0  2.281254  0
O  O51  1  0.88080155  0.41156293  0.88985665  1  0  -0.671371  0  2.044318  0  0  -0.61387  0  2.275079  0  0  -0.642476  0  2.264567  0  0  -0.34753  -0.595538  0  2.281236  0
O  O52  1  0.60186048  0.12028562  0.46128865  1  0  -0.637067  0  2.057783  0  0  -0.589508  0  2.293446  0  0  -0.615379  0  2.283873  0  0  -0.354554  -0.573201  0  2.29929  0
O  O53  1  0.89813397  0.62028242  0.03872002  1  0  -0.636897  0  2.057847  0  0  -0.589299  0  2.293544  0  0  -0.615177  0  2.283987  0  0  -0.354415  -0.572999  0  2.299382  0
O  O54  1  0.39814512  0.87970168  0.53873346  1  0  -0.636882  0  2.057631  0  0  -0.589309  0  2.293297  0  0  -0.615178  0  2.283738  0  0  -0.354362  -0.572993  0  2.299147  0
O  O55  1  0.10185340  0.37970791  0.96127345  1  0  -0.636804  0  2.057677  0  0  -0.589263  0  2.293277  0  0  -0.615135  0  2.283715  0  0  -0.354362  -0.57297  0  2.299107  0
O  O56  1  0.98715965  0.89950299  0.37639280  1  0  -0.652048  0  2.023251  0  0  -0.607034  0  2.259631  0  0  -0.632447  0  2.246959  0  0  -0.381117  -0.590364  0  2.26693  0
O  O57  1  0.51282020  0.39948076  0.12359239  1  0  -0.651863  0  2.023186  0  0  -0.606897  0  2.259483  0  0  -0.63229  0  2.246836  0  0  -0.381097  -0.590249  0  2.266742  0
O  O58  1  0.01283330  0.10049845  0.62358750  1  0  -0.651705  0  2.02346  0  0  -0.606706  0  2.259891  0  0  -0.632122  0  2.247216  0  0  -0.381055  -0.590051  0  2.267159  0
O  O59  1  0.48717110  0.60051866  0.87641189  1  0  -0.65177  0  2.023035  0  0  -0.606769  0  2.259429  0  0  -0.63218  0  2.246764  0  0  -0.381016  -0.59012  0  2.266705  0
O  O60  1  0.82973266  0.96117279  0.46074257  1  0  -0.646507  0  2.004476  0  0  -0.604534  0  2.237788  0  0  -0.629616  0  2.225499  0  0  -0.384987  -0.58905  0  2.245208  0
O  O61  1  0.67026035  0.46115752  0.03924270  1  0  -0.646441  0  2.004291  0  0  -0.604524  0  2.237539  0  0  -0.629575  0  2.225286  0  0  -0.385076  -0.589063  0  2.24494  0
O  O62  1  0.17028664  0.03873668  0.53930145  1  0  -0.646427  0  2.004644  0  0  -0.604428  0  2.237965  0  0  -0.629488  0  2.225705  0  0  -0.385091  -0.588949  0  2.245359  0
O  O63  1  0.32971570  0.53880450  0.96073351  1  0  -0.646279  0  2.004388  0  0  -0.604304  0  2.237713  0  0  -0.629367  0  2.225446  0  0  -0.384978  -0.588837  0  2.245099  0
O  O64  1  0.07579963  0.83677977  0.18808519  1  0  -0.891143  0  1.92588  0  0  -0.834782  0  2.12113  0  0  -0.857439  0  2.09096  0  0  -0.580956  -0.820032  0  2.141439  0
O  O65  1  0.42421156  0.33677279  0.31191547  1  0  -0.891257  0  1.925607  0  0  -0.834798  0  2.121008  0  0  -0.857492  0  2.090767  0  0  -0.580892  -0.820028  0  2.141362  0
O  O66  1  0.92419012  0.16324998  0.81191292  1  0  -0.891331  0  1.925821  0  0  -0.835042  0  2.121087  0  0  -0.857642  0  2.090995  0  0  -0.580978  -0.820337  0  2.141318  0
O  O67  1  0.57581422  0.66323977  0.68807279  1  0  -0.891469  0  1.925465  0  0  -0.835143  0  2.120689  0  0  -0.857766  0  2.0906  0  0  -0.580879  -0.820443  0  2.140881  0
