# generated using pymatgen
data_SnH10(C5O2)2
_symmetry_space_group_name_H-M   'P 1'
_cell_length_a   9.24058299
_cell_length_b   10.52586048
_cell_length_c   11.31492546
_cell_angle_alpha   90.00012388
_cell_angle_beta   97.26752806
_cell_angle_gamma   89.99945275
_symmetry_Int_Tables_number   1
_chemical_formula_structural   SnH10(C5O2)2
_chemical_formula_sum   'Sn4 H40 C40 O16'
_cell_volume   1091.70574170
_cell_formula_units_Z   4
loop_
 _symmetry_equiv_pos_site_id
 _symmetry_equiv_pos_as_xyz
  1  'x, y, z'
loop_
 _atom_site_type_symbol
 _atom_site_label
 _atom_site_symmetry_multiplicity
 _atom_site_fract_x
 _atom_site_fract_y
 _atom_site_fract_z
 _atom_site_occupancy
 _atom_site_hle17_bader_spin_density
 _atom_site_hle17_ddec_charge
 _atom_site_hle17_ddec_spin_density
 _atom_site_hle17_ddec_sum_bond_order
 _atom_site_hle17_magmom
 _atom_site_hse06_10hf_bader_spin_density
 _atom_site_hse06_10hf_ddec_charge
 _atom_site_hse06_10hf_ddec_spin_density
 _atom_site_hse06_10hf_ddec_sum_bond_order
 _atom_site_hse06_10hf_magmom
 _atom_site_hse06_bader_spin_density
 _atom_site_hse06_ddec_charge
 _atom_site_hse06_ddec_spin_density
 _atom_site_hse06_ddec_sum_bond_order
 _atom_site_hse06_magmom
 _atom_site_pbe_bader_spin_density
 _atom_site_pbe_cm5_charge
 _atom_site_pbe_ddec_charge
 _atom_site_pbe_ddec_spin_density
 _atom_site_pbe_ddec_sum_bond_order
 _atom_site_pbe_magmom
Sn  Sn0  1  0.13608171  0.17565162  0.04094498  1  0  1.510994  0  2.725504  0  0  1.364337  0  3.219297  0  0  1.418191  0  3.18885  0  0  0.62774  1.326837  0  3.240419  0
Sn  Sn1  1  0.13607469  0.32435075  0.54095220  1  0  1.511237  0  2.725576  0  0  1.364519  0  3.21931  0  0  1.418373  0  3.188862  0  0  0.62785  1.327022  0  3.240429  0
Sn  Sn2  1  0.86392583  0.82434814  0.95905032  1  0  1.511004  0  2.72543  0  0  1.364342  0  3.219226  0  0  1.418197  0  3.188774  0  0  0.627807  1.326839  0  3.240353  0
Sn  Sn3  1  0.86392523  0.67564996  0.45904763  1  0  1.511216  0  2.725513  0  0  1.364478  0  3.219256  0  0  1.418335  0  3.188798  0  0  0.627824  1.326983  0  3.240381  0
H  H4  1  0.40059308  0.55177458  0.01302081  1  0  0.100683  0  0.951958  0  0  0.110619  0  1.013821  0  0  0.113708  0  1.012095  0  0  0.107532  0.108332  0  1.015271  0
H  H5  1  0.40057705  0.94825108  0.51301057  1  0  0.100786  0  0.951772  0  0  0.110553  0  1.013841  0  0  0.113641  0  1.012119  0  0  0.107533  0.108265  0  1.015295  0
H  H6  1  0.59941337  0.44822613  0.98697615  1  0  0.100555  0  0.951903  0  0  0.110501  0  1.013758  0  0  0.11359  0  1.012033  0  0  0.1075  0.108212  0  1.015215  0
H  H7  1  0.59943272  0.05174298  0.48700175  1  0  0.100833  0  0.951839  0  0  0.110564  0  1.013937  0  0  0.113652  0  1.012214  0  0  0.10752  0.108277  0  1.015386  0
H  H8  1  0.32688353  0.73258149  0.40650906  1  0  0.095911  0  0.964368  0  0  0.107172  0  1.024883  0  0  0.109733  0  1.024389  0  0  0.10487  0.10539  0  1.025271  0
H  H9  1  0.32690868  0.76741534  0.90649468  1  0  0.095837  0  0.964271  0  0  0.107032  0  1.02488  0  0  0.109586  0  1.024384  0  0  0.104779  0.105254  0  1.025273  0
H  H10  1  0.67310764  0.26742777  0.59348548  1  0  0.095784  0  0.964319  0  0  0.107089  0  1.024813  0  0  0.109647  0  1.024313  0  0  0.104839  0.105308  0  1.025201  0
H  H11  1  0.67308145  0.23257777  0.09351036  1  0  0.095767  0  0.964273  0  0  0.107004  0  1.024843  0  0  0.109557  0  1.024351  0  0  0.104771  0.105231  0  1.025238  0
H  H12  1  0.46780450  0.85399883  0.27108155  1  0  0.087649  0  0.966063  0  0  0.096247  0  1.030044  0  0  0.098469  0  1.029852  0  0  0.101277  0.09427  0  1.031292  0
H  H13  1  0.46783307  0.64601073  0.77105314  1  0  0.087774  0  0.966091  0  0  0.096329  0  1.030089  0  0  0.098543  0  1.029913  0  0  0.101393  0.094356  0  1.031331  0
H  H14  1  0.53217574  0.14600473  0.72890481  1  0  0.087737  0  0.966068  0  0  0.096335  0  1.030051  0  0  0.098556  0  1.02986  0  0  0.101327  0.094358  0  1.031299  0
H  H15  1  0.53215597  0.35398903  0.22895355  1  0  0.087637  0  0.96618  0  0  0.096311  0  1.030046  0  0  0.098528  0  1.029863  0  0  0.101373  0.094337  0  1.031291  0
H  H16  1  0.51178002  0.76162877  0.07672778  1  0  0.109854  0  0.965058  0  0  0.114978  0  1.032219  0  0  0.119205  0  1.028995  0  0  0.104333  0.111951  0  1.034459  0
H  H17  1  0.51177598  0.73839421  0.57670067  1  0  0.109871  0  0.965021  0  0  0.115066  0  1.032094  0  0  0.119305  0  1.02887  0  0  0.104366  0.112038  0  1.034337  0
H  H18  1  0.48821116  0.23837574  0.92326675  1  0  0.109805  0  0.965083  0  0  0.114967  0  1.032203  0  0  0.119195  0  1.02898  0  0  0.104333  0.11194  0  1.034444  0
H  H19  1  0.48823162  0.26160080  0.42331232  1  0  0.109703  0  0.965208  0  0  0.114913  0  1.032289  0  0  0.11915  0  1.029067  0  0  0.104337  0.111886  0  1.03453  0
H  H20  1  0.01980195  0.31473055  0.85594057  1  0  0.173304  0  0.968301  0  0  0.192065  0  1.02249  0  0  0.195113  0  1.023137  0  0  0.098274  0.189886  0  1.022124  0
H  H21  1  0.01980561  0.18527261  0.35593745  1  0  0.173293  0  0.9683  0  0  0.192026  0  1.022529  0  0  0.195075  0  1.023174  0  0  0.098261  0.189847  0  1.022161  0
H  H22  1  0.98021215  0.68526921  0.14406158  1  0  0.173358  0  0.968188  0  0  0.192076  0  1.022434  0  0  0.195124  0  1.02308  0  0  0.098281  0.189894  0  1.022068  0
H  H23  1  0.98020520  0.81472620  0.64405642  1  0  0.17335  0  0.968245  0  0  0.192058  0  1.022482  0  0  0.195101  0  1.023131  0  0  0.098302  0.18988  0  1.022112  0
H  H24  1  0.90927062  0.32513082  0.97545984  1  0  0.164282  0  0.979837  0  0  0.181867  0  1.035242  0  0  0.184473  0  1.036669  0  0  0.092751  0.179982  0  1.034353  0
H  H25  1  0.90927004  0.17486888  0.47546068  1  0  0.164276  0  0.979829  0  0  0.181846  0  1.03525  0  0  0.184453  0  1.036675  0  0  0.09274  0.179961  0  1.034363  0
H  H26  1  0.09073800  0.67486894  0.02453292  1  0  0.164394  0  0.979602  0  0  0.181904  0  1.03509  0  0  0.184515  0  1.036514  0  0  0.092775  0.18002  0  1.034201  0
H  H27  1  0.09073748  0.82513278  0.52453108  1  0  0.164407  0  0.979592  0  0  0.181911  0  1.035095  0  0  0.184517  0  1.036522  0  0  0.092778  0.180025  0  1.034207  0
H  H28  1  0.89518573  0.18876472  0.87919058  1  0  0.16677  0  0.993815  0  0  0.183331  0  1.052429  0  0  0.185885  0  1.054443  0  0  0.092967  0.181437  0  1.051366  0
H  H29  1  0.89517168  0.31122822  0.37918325  1  0  0.166804  0  0.993681  0  0  0.183339  0  1.052323  0  0  0.185892  0  1.054341  0  0  0.092927  0.181443  0  1.051263  0
H  H30  1  0.10481197  0.81124549  0.12079931  1  0  0.166774  0  0.993838  0  0  0.18331  0  1.052464  0  0  0.185856  0  1.054495  0  0  0.093021  0.181415  0  1.051403  0
H  H31  1  0.10483586  0.68876869  0.62081116  1  0  0.166856  0  0.993569  0  0  0.18338  0  1.052223  0  0  0.185931  0  1.054245  0  0  0.092982  0.181486  0  1.051162  0
H  H32  1  0.33721447  0.04521789  0.17985111  1  0  0.163752  0  0.980673  0  0  0.180932  0  1.03735  0  0  0.183173  0  1.039865  0  0  0.093348  0.179258  0  1.036164  0
H  H33  1  0.33721041  0.45477360  0.67985447  1  0  0.163786  0  0.980629  0  0  0.180981  0  1.037298  0  0  0.183221  0  1.039812  0  0  0.093356  0.179308  0  1.03611  0
H  H34  1  0.66277671  0.95477997  0.82014165  1  0  0.163731  0  0.980648  0  0  0.180887  0  1.037368  0  0  0.183129  0  1.039884  0  0  0.093346  0.179228  0  1.036161  0
H  H35  1  0.66278513  0.54522996  0.32014139  1  0  0.163738  0  0.9807  0  0  0.18094  0  1.03737  0  0  0.183194  0  1.039868  0  0  0.093337  0.179268  0  1.036183  0
H  H36  1  0.15896901  0.98887645  0.20545072  1  0  0.17369  0  0.984085  0  0  0.191103  0  1.038456  0  0  0.194735  0  1.03819  0  0  0.094909  0.188346  0  1.039418  0
H  H37  1  0.15896970  0.51113653  0.70546166  1  0  0.173745  0  0.984065  0  0  0.191138  0  1.038446  0  0  0.19477  0  1.038178  0  0  0.094927  0.188382  0  1.039407  0
H  H38  1  0.84103637  0.01112236  0.79455143  1  0  0.173611  0  0.984084  0  0  0.191042  0  1.038446  0  0  0.194673  0  1.038183  0  0  0.094882  0.188285  0  1.039408  0
H  H39  1  0.84102584  0.48886228  0.29453155  1  0  0.173729  0  0.984097  0  0  0.191114  0  1.038485  0  0  0.194743  0  1.03822  0  0  0.094917  0.188361  0  1.039449  0
H  H40  1  0.23019558  0.13511609  0.27183039  1  0  0.174283  0  0.979414  0  0  0.190187  0  1.036834  0  0  0.1935  0  1.037497  0  0  0.096315  0.187787  0  1.036679  0
H  H41  1  0.23018591  0.36488033  0.77182505  1  0  0.174342  0  0.979408  0  0  0.190255  0  1.036815  0  0  0.193569  0  1.037475  0  0  0.096375  0.187853  0  1.036662  0
H  H42  1  0.76980106  0.86488177  0.72816734  1  0  0.174306  0  0.97933  0  0  0.190206  0  1.036757  0  0  0.193519  0  1.037421  0  0  0.096352  0.187805  0  1.036605  0
H  H43  1  0.76981290  0.63512228  0.22817025  1  0  0.174312  0  0.97939  0  0  0.190244  0  1.036782  0  0  0.193557  0  1.037445  0  0  0.09636  0.187842  0  1.036629  0
C  C44  1  0.21664833  0.49926323  0.37683678  1  0  0.669154  0  3.866134  0  0  0.612804  0  4.166363  0  0  0.648756  0  4.155395  0  0  0.233636  0.588481  0  4.172827  0
C  C45  1  0.21666112  0.00072311  0.87684803  1  0  0.669561  0  3.865403  0  0  0.613247  0  4.165625  0  0  0.649196  0  4.154654  0  0  0.233784  0.588928  0  4.172099  0
C  C46  1  0.78336140  0.50073273  0.62316051  1  0  0.669425  0  3.865865  0  0  0.613112  0  4.166038  0  0  0.649063  0  4.155065  0  0  0.233743  0.588791  0  4.172507  0
C  C47  1  0.78333881  0.99927950  0.12315534  1  0  0.669564  0  3.865466  0  0  0.613125  0  4.165905  0  0  0.649073  0  4.154939  0  0  0.233759  0.588806  0  4.172376  0
C  C48  1  0.28790779  0.57353608  0.28754165  1  0  -0.047257  0  3.716186  0  0  -0.032393  0  3.947601  0  0  -0.036167  0  3.967412  0  0  0.000625  -0.030066  0  3.934479  0
C  C49  1  0.28792039  0.92646079  0.78754222  1  0  -0.047543  0  3.716231  0  0  -0.03265  0  3.947658  0  0  -0.036418  0  3.967462  0  0  0.000507  -0.03033  0  3.934549  0
C  C50  1  0.71208556  0.42646653  0.71245222  1  0  -0.047374  0  3.716238  0  0  -0.032465  0  3.947624  0  0  -0.036236  0  3.967432  0  0  0.000602  -0.03014  0  3.934507  0
C  C51  1  0.71208284  0.07354182  0.21247033  1  0  -0.047235  0  3.715888  0  0  -0.032269  0  3.947271  0  0  -0.036036  0  3.967073  0  0  0.00074  -0.029953  0  3.934159  0
C  C52  1  0.30715801  0.52295663  0.17532688  1  0  -0.082066  0  3.758916  0  0  -0.067552  0  3.993378  0  0  -0.074387  0  4.015194  0  0  -0.012484  -0.063006  0  3.97885  0
C  C53  1  0.30713734  0.97705122  0.67532418  1  0  -0.082063  0  3.758802  0  0  -0.067606  0  3.993309  0  0  -0.07444  0  4.015119  0  0  -0.012498  -0.063068  0  3.978802  0
C  C54  1  0.69283971  0.47705263  0.82466920  1  0  -0.082163  0  3.758878  0  0  -0.067712  0  3.993359  0  0  -0.074542  0  4.015176  0  0  -0.012551  -0.063175  0  3.978846  0
C  C55  1  0.69285934  0.02294569  0.32468682  1  0  -0.082405  0  3.759204  0  0  -0.067952  0  3.993737  0  0  -0.074785  0  4.01555  0  0  -0.012631  -0.063397  0  3.979199  0
C  C56  1  0.38740875  0.59166222  0.09986631  1  0  -0.073702  0  3.732669  0  0  -0.099085  0  3.987166  0  0  -0.098786  0  4.006074  0  0  -0.080506  -0.098881  0  3.973839  0
C  C57  1  0.38739533  0.90835712  0.59985714  1  0  -0.073671  0  3.732592  0  0  -0.098892  0  3.987102  0  0  -0.098599  0  4.00602  0  0  -0.080456  -0.098687  0  3.973778  0
C  C58  1  0.61259988  0.40833469  0.90012733  1  0  -0.073413  0  3.732505  0  0  -0.098772  0  3.986994  0  0  -0.098469  0  4.0059  0  0  -0.080391  -0.098568  0  3.973667  0
C  C59  1  0.61259371  0.09163504  0.40015131  1  0  -0.07372  0  3.732894  0  0  -0.098931  0  3.987425  0  0  -0.098636  0  4.006341  0  0  -0.080475  -0.098727  0  3.974094  0
C  C60  1  0.23420047  0.40216866  0.13369594  1  0  0.626291  0  3.894346  0  0  0.577927  0  4.183877  0  0  0.611843  0  4.177147  0  0  0.219557  0.554304  0  4.188701  0
C  C61  1  0.23417405  0.09784165  0.63370253  1  0  0.626495  0  3.894408  0  0  0.578117  0  4.183956  0  0  0.612036  0  4.177225  0  0  0.219759  0.554495  0  4.188784  0
C  C62  1  0.76580164  0.59783680  0.86630765  1  0  0.626303  0  3.894105  0  0  0.578035  0  4.183531  0  0  0.611935  0  4.176827  0  0  0.219668  0.554418  0  4.18835  0
C  C63  1  0.76582044  0.90215526  0.36630294  1  0  0.626651  0  3.894309  0  0  0.578246  0  4.183842  0  0  0.612156  0  4.177119  0  0  0.219804  0.554621  0  4.188674  0
C  C64  1  0.34365504  0.69368568  0.32007310  1  0  -0.079267  0  3.718883  0  0  -0.099161  0  3.960377  0  0  -0.100972  0  3.980224  0  0  -0.079846  -0.098197  0  3.947446  0
C  C65  1  0.34368414  0.80631175  0.82006185  1  0  -0.079028  0  3.718729  0  0  -0.098864  0  3.960214  0  0  -0.100664  0  3.980045  0  0  -0.079738  -0.097908  0  3.947297  0
C  C66  1  0.65633178  0.30632073  0.67992364  1  0  -0.079013  0  3.718826  0  0  -0.098962  0  3.96033  0  0  -0.100767  0  3.98017  0  0  -0.079771  -0.097998  0  3.947398  0
C  C67  1  0.65632018  0.19368991  0.17995081  1  0  -0.079163  0  3.71883  0  0  -0.099048  0  3.960371  0  0  -0.100848  0  3.980203  0  0  -0.079862  -0.0981  0  3.947463  0
C  C68  1  0.42262373  0.76146214  0.24377411  1  0  -0.035869  0  3.732452  0  0  -0.051591  0  3.984552  0  0  -0.051405  0  4.004103  0  0  -0.077941  -0.051831  0  3.972472  0
C  C69  1  0.42265352  0.73854584  0.74375484  1  0  -0.036199  0  3.73273  0  0  -0.051865  0  3.984796  0  0  -0.051677  0  4.004349  0  0  -0.078102  -0.052105  0  3.972713  0
C  C70  1  0.57736198  0.23853667  0.75621722  1  0  -0.036105  0  3.732506  0  0  -0.051837  0  3.984661  0  0  -0.051652  0  4.004221  0  0  -0.078083  -0.052077  0  3.972578  0
C  C71  1  0.57734098  0.26145487  0.25625594  1  0  -0.035998  0  3.732857  0  0  -0.051762  0  3.984974  0  0  -0.051582  0  4.004542  0  0  -0.07802  -0.052003  0  3.972891  0
C  C72  1  0.44641095  0.70992408  0.13422755  1  0  -0.066391  0  3.733622  0  0  -0.08201  0  3.991159  0  0  -0.083983  0  4.009668  0  0  -0.083779  -0.080233  0  3.978235  0
C  C73  1  0.44642713  0.79010054  0.63421231  1  0  -0.066364  0  3.734064  0  0  -0.082057  0  3.991498  0  0  -0.084043  0  4.010014  0  0  -0.08376  -0.080275  0  3.978563  0
C  C74  1  0.55358677  0.29007568  0.86576941  1  0  -0.066342  0  3.733544  0  0  -0.082013  0  3.991115  0  0  -0.083984  0  4.009613  0  0  -0.083753  -0.080236  0  3.978191  0
C  C75  1  0.55356845  0.20988972  0.36579239  1  0  -0.066092  0  3.734289  0  0  -0.081808  0  3.991766  0  0  -0.083791  0  4.01028  0  0  -0.083709  -0.080027  0  3.978826  0
C  C76  1  0.96823004  0.26119559  0.92223017  1  0  -0.682178  0  3.477157  0  0  -0.734808  0  3.713371  0  0  -0.750623  0  3.721239  0  0  -0.313446  -0.723734  0  3.707884  0
C  C77  1  0.96822878  0.23880348  0.42223018  1  0  -0.682269  0  3.477081  0  0  -0.734833  0  3.713302  0  0  -0.750651  0  3.721169  0  0  -0.313435  -0.723755  0  3.707812  0
C  C78  1  0.03177641  0.73880322  0.07776503  1  0  -0.682326  0  3.476961  0  0  -0.734805  0  3.713235  0  0  -0.750627  0  3.721103  0  0  -0.313536  -0.723728  0  3.707751  0
C  C79  1  0.03178093  0.76119438  0.57776269  1  0  -0.682491  0  3.476687  0  0  -0.734949  0  3.713038  0  0  -0.750764  0  3.720902  0  0  -0.313574  -0.723873  0  3.707551  0
C  C80  1  0.22635061  0.07232875  0.19438730  1  0  -0.692904  0  3.461494  0  0  -0.740805  0  3.690729  0  0  -0.756818  0  3.697147  0  0  -0.311295  -0.730005  0  3.687785  0
C  C81  1  0.22634248  0.42767607  0.69438842  1  0  -0.693107  0  3.46149  0  0  -0.740982  0  3.690697  0  0  -0.756996  0  3.697114  0  0  -0.311402  -0.730179  0  3.687755  0
C  C82  1  0.77364602  0.92767101  0.80560955  1  0  -0.692795  0  3.461299  0  0  -0.740674  0  3.690526  0  0  -0.756688  0  3.69695  0  0  -0.311303  -0.729886  0  3.687564  0
C  C83  1  0.77365633  0.57232464  0.30560600  1  0  -0.693005  0  3.461511  0  0  -0.740906  0  3.690709  0  0  -0.75693  0  3.697109  0  0  -0.311356  -0.730109  0  3.687769  0
O  O84  1  0.29086230  0.33567875  0.05417536  1  0  -0.609963  0  1.964415  0  0  -0.542441  0  2.19528  0  0  -0.569725  0  2.188974  0  0  -0.281669  -0.523469  0  2.199416  0
O  O85  1  0.29084501  0.16432994  0.55419007  1  0  -0.610222  0  1.964701  0  0  -0.542583  0  2.195443  0  0  -0.569868  0  2.18914  0  0  -0.281761  -0.523609  0  2.199578  0
O  O86  1  0.70914744  0.66433336  0.94582812  1  0  -0.609984  0  1.96431  0  0  -0.542522  0  2.195171  0  0  -0.5698  0  2.188871  0  0  -0.281761  -0.523552  0  2.199305  0
O  O87  1  0.70915385  0.83566507  0.44581849  1  0  -0.610299  0  1.964677  0  0  -0.542617  0  2.195396  0  0  -0.569897  0  2.189092  0  0  -0.281804  -0.523646  0  2.199538  0
O  O88  1  0.10636774  0.54058388  0.41965319  1  0  -0.644808  0  2.009873  0  0  -0.577215  0  2.244731  0  0  -0.60493  0  2.237364  0  0  -0.271101  -0.557528  0  2.248675  0
O  O89  1  0.10638546  0.95940630  0.91965876  1  0  -0.644937  0  2.009823  0  0  -0.577318  0  2.244687  0  0  -0.605032  0  2.237313  0  0  -0.271073  -0.557637  0  2.248633  0
O  O90  1  0.89363652  0.45941303  0.58034001  1  0  -0.644975  0  2.009792  0  0  -0.577407  0  2.24463  0  0  -0.605144  0  2.237303  0  0  -0.271173  -0.557721  0  2.248573  0
O  O91  1  0.89361666  0.04059631  0.08034395  1  0  -0.644974  0  2.009835  0  0  -0.577309  0  2.244744  0  0  -0.605027  0  2.237382  0  0  -0.271072  -0.557628  0  2.248691  0
O  O92  1  0.11913955  0.36591468  0.17335723  1  0  -0.598026  0  1.924149  0  0  -0.539207  0  2.134988  0  0  -0.564152  0  2.12886  0  0  -0.282642  -0.521396  0  2.139159  0
O  O93  1  0.11912148  0.13411285  0.67336827  1  0  -0.598054  0  1.924288  0  0  -0.539248  0  2.135127  0  0  -0.564192  0  2.129002  0  0  -0.282765  -0.521439  0  2.139294  0
O  O94  1  0.88086583  0.63408508  0.82664581  1  0  -0.598013  0  1.924289  0  0  -0.539201  0  2.135063  0  0  -0.564138  0  2.128943  0  0  -0.282633  -0.521399  0  2.139247  0
O  O95  1  0.88087301  0.86588501  0.32663808  1  0  -0.598063  0  1.924206  0  0  -0.539229  0  2.135033  0  0  -0.564171  0  2.12891  0  0  -0.282736  -0.52142  0  2.139196  0
O  O96  1  0.27895548  0.39390345  0.41424963  1  0  -0.604251  0  1.989535  0  0  -0.53733  0  2.223561  0  0  -0.564852  0  2.215563  0  0  -0.273476  -0.517968  0  2.228177  0
O  O97  1  0.27896492  0.10609385  0.91424572  1  0  -0.604274  0  1.989088  0  0  -0.537507  0  2.223242  0  0  -0.565033  0  2.215246  0  0  -0.273523  -0.518098  0  2.227762  0
O  O98  1  0.72105536  0.60609536  0.58575396  1  0  -0.604298  0  1.98949  0  0  -0.537422  0  2.223531  0  0  -0.564946  0  2.215541  0  0  -0.273476  -0.518044  0  2.228119  0
O  O99  1  0.72103720  0.89390876  0.08575964  1  0  -0.604317  0  1.988957  0  0  -0.537535  0  2.223189  0  0  -0.565063  0  2.215196  0  0  -0.273605  -0.518123  0  2.227694  0
