# generated using pymatgen
data_Zn2H13C24N8O
_symmetry_space_group_name_H-M   'P 1'
_cell_length_a   15.62618525
_cell_length_b   15.74475478
_cell_length_c   17.79228118
_cell_angle_alpha   107.84130831
_cell_angle_beta   103.19254593
_cell_angle_gamma   112.68574145
_symmetry_Int_Tables_number   1
_chemical_formula_structural   Zn2H13C24N8O
_chemical_formula_sum   'Zn4 H26 C48 N16 O2'
_cell_volume   3532.90243247
_cell_formula_units_Z   2
loop_
 _symmetry_equiv_pos_site_id
 _symmetry_equiv_pos_as_xyz
  1  'x, y, z'
loop_
 _atom_site_type_symbol
 _atom_site_label
 _atom_site_symmetry_multiplicity
 _atom_site_fract_x
 _atom_site_fract_y
 _atom_site_fract_z
 _atom_site_occupancy
 _atom_site_pbe_bader_charge
 _atom_site_pbe_bader_spin_density
 _atom_site_pbe_cm5_charge
 _atom_site_pbe_ddec_charge
 _atom_site_pbe_ddec_spin_density
 _atom_site_pbe_ddec_sum_bond_order
 _atom_site_pbe_magmom
Zn  Zn0  1  0.13515494  0.13128763  0.50261490  1  1.18902  0  0.74751  0.621109  0  2.441452  0
Zn  Zn1  1  0.85584798  0.84723108  0.49821108  1  1.216799  0  0.740661  0.65963  0  2.344702  0
Zn  Zn2  1  0.00919691  0.88449769  0.39443495  1  1.188505  0  0.74125  0.603485  0  2.471476  0
Zn  Zn3  1  0.98116094  0.10511239  0.60137875  1  1.191897  0  0.746471  0.621442  0  2.424106  0
H  H4  1  0.23286887  0.19151825  0.36081168  1  0.140157  0  0.124558  0.114718  0  0.98472  0
H  H5  1  0.79174638  0.60116801  0.45374586  1  0.09622  0  0.118875  0.107387  0  1.007568  0
H  H6  1  0.14827457  0.82184698  0.50350978  1  0.076376  0  0.123227  0.116354  0  0.995545  0
H  H7  1  0.16761302  0.14053811  0.75539660  1  0.128488  0  0.123726  0.117239  0  0.996686  0
H  H8  1  0.12993696  0.32794955  0.78265362  1  0.096626  0  0.12594  0.117797  0  0.984392  0
H  H9  1  0.99189587  0.65270275  0.32022725  1  0.069839  0  0.123172  0.113436  0  0.985629  0
H  H10  1  0.55756456  0.67840233  0.94368570  1  0.077613  0  0.11279  0.11891  0  0.966327  0
H  H11  1  0.41477182  0.62933604  0.03745591  1  0.094253  0  0.110756  0.112929  0  0.967948  0
H  H12  1  0.23349199  0.13273100  0.05546488  1  0.094206  0  0.113719  0.117093  0  0.965461  0
H  H13  1  0.64670388  0.81151013  0.54144803  1  0.103662  0  0.123331  0.11235  0  0.989451  0
H  H14  1  0.12482008  0.89616055  0.96541416  1  0.098832  0  0.116989  0.123584  0  0.957532  0
H  H15  1  0.87005988  0.88073005  0.22974791  1  0.082062  0  0.121133  0.111545  0  0.998251  0
H  H16  1  0.02346640  0.16535677  0.35161129  1  0.088312  0  0.121098  0.111802  0  1.000497  0
H  H17  1  0.82173026  0.14170328  0.68312518  1  0.10449  0  0.123841  0.112245  0  0.991386  0
H  H18  1  0.05779166  0.86109214  0.21760084  1  0.100349  0  0.126519  0.117526  0  0.983263  0
H  H19  1  0.31804933  0.37350620  0.63804171  1  0.098251  0  0.123387  0.112057  0  0.986201  0
H  H20  1  0.80956355  0.68149500  0.60499635  1  0.6321  0  0.346632  0.383901  0  0.852576  0
H  H21  1  0.34745267  0.21812585  0.71248028  1  0.062033  0  0.09943  0.142206  0  0.984055  0
H  H22  1  0.43154497  0.18108335  0.67904431  1  0.071526  0  0.102816  0.14987  0  0.984297  0
H  H23  1  0.36958022  0.23003348  0.62189441  1  0.031957  0  0.092201  0.125389  0  1.004361  0
H  H24  1  0.78961105  0.22433786  0.48182819  1  0.068011  0  0.102539  0.149807  0  0.984461  0
H  H25  1  0.75397175  0.11022948  0.49610552  1  0.055864  0  0.099892  0.144362  0  0.987509  0
H  H26  1  0.85778947  0.22804855  0.57862902  1  0.021208  0  0.093852  0.127471  0  0.997853  0
H  H27  1  0.62343204  0.86170567  0.39275851  1  0.041422  0  0.099411  0.143144  0  0.985512  0
H  H28  1  0.56147758  0.75359247  0.29066994  1  0.076632  0  0.101125  0.146337  0  0.987616  0
H  H29  1  0.62458709  0.74677296  0.38368266  1  0.021365  0  0.091841  0.123493  0  1.00483  0
C  C30  1  0.18614259  0.10965430  0.33815129  1  0.381665  0  0.019551  -0.049096  0  3.965921  0
C  C31  1  0.69791781  0.97723460  0.62184768  1  0.123399  0  -0.031338  0.029135  0  4.2196  0
C  C32  1  0.72752326  0.82992137  0.25499767  1  0.150613  0  -0.028715  -0.023307  0  4.165372  0
C  C33  1  0.91447994  0.19210530  0.40657727  1  0.098717  0  -0.029253  -0.030815  0  4.173745  0
C  C34  1  0.25910670  0.34603138  0.66109317  1  0.49909  0  0.018957  -0.04883  0  3.96505  0
C  C35  1  0.84248002  0.63113659  0.42449307  1  0.457154  0  0.013327  -0.043844  0  3.971586  0
C  C36  1  0.18010430  0.90440610  0.53013588  1  0.4683  0  0.019318  -0.033913  0  3.944609  0
C  C37  1  0.11052278  0.06035836  0.71871126  1  0.442022  0  0.02076  -0.045913  0  3.904353  0
C  C38  1  0.00576612  0.89411183  0.66988097  1  0.43043  0  0.089888  -3.4e-05  0  3.944145  0
C  C39  1  0.27679713  0.07498269  0.59971833  1  0.436363  0  0.102454  0.224284  0  3.949289  0
C  C40  1  0.16316330  0.32266454  0.73525485  1  0.427415  0  0.015042  -0.057508  0  3.965689  0
C  C41  1  0.70372079  0.89183790  0.57240018  1  0.435951  0  0.018696  -0.045192  0  3.970665  0
C  C42  1  0.94473851  0.65701397  0.35596504  1  0.47232  0  0.018224  -0.049634  0  3.963345  0
C  C43  1  0.25717416  0.39322346  0.74160171  1  0.088272  0  -0.027185  0.046965  0  4.211349  0
C  C44  1  0.88548643  0.58253990  0.37780792  1  0.098639  0  -0.030787  0.032621  0  4.221539  0
C  C45  1  0.27879994  0.98255942  0.58832998  1  0.126435  0  -0.02869  -0.032564  0  4.167251  0
C  C46  1  0.09019318  0.97999861  0.74316858  1  0.139636  0  -0.006665  0.052149  0  4.134156  0
C  C47  1  0.88978681  0.25577741  0.37683863  1  0.088128  0  -0.033856  -0.067451  0  4.109567  0
C  C48  1  0.87779341  0.32356717  0.36399860  1  -0.307047  0  -0.053731  -0.057591  0  4.334483  0
C  C49  1  0.87351865  0.40587940  0.35942987  1  -0.157805  0  -0.053484  -0.0527  0  4.342596  0
C  C50  1  0.87659504  0.48640857  0.36366393  1  -0.048737  0  -0.040652  -0.084879  0  4.108437  0
C  C51  1  0.61345952  0.97792605  0.63600700  1  -0.170194  0  -0.040305  -0.086752  0  4.108995  0
C  C52  1  0.83121496  0.86850023  0.27199420  1  0.446764  0  0.0171  -0.037823  0  3.952554  0
C  C53  1  0.53489483  0.97610713  0.63862985  1  -0.086699  0  -0.054471  -0.051673  0  4.342363  0
C  C54  1  0.44697401  0.97563737  0.63249326  1  -0.248053  0  -0.053878  -0.059969  0  4.328377  0
C  C55  1  0.36590830  0.97514918  0.61694745  1  0.057427  0  -0.032136  -0.06251  0  4.099792  0
C  C56  1  0.64576129  0.78571223  0.17654556  1  -0.222517  0  -0.050267  -0.092753  0  4.166892  0
C  C57  1  0.48634513  0.66754846  0.03152142  1  0.078985  0  -0.080082  -0.055972  0  4.107118  0
C  C58  1  0.48701443  0.64003618  0.95093776  1  0.074875  0  -0.083854  -0.068227  0  4.103944  0
C  C59  1  0.40340298  0.55999010  0.87673451  1  -0.146359  0  -0.05688  -0.07056  0  4.221957  0
C  C60  1  0.57181256  0.73575585  0.10814434  1  -0.178187  0  -0.058119  -0.085286  0  4.208067  0
C  C61  1  0.33366178  0.48466060  0.81272357  1  -0.207745  0  -0.059503  -0.121169  0  4.168109  0
C  C62  1  0.13055502  0.98408032  0.82385017  1  0.040533  0  -0.047364  -0.102422  0  4.132255  0
C  C63  1  0.88775335  0.16292267  0.46938153  1  0.471645  0  0.103083  0.228336  0  3.934252  0
C  C64  1  0.15897494  0.97409172  0.97090190  1  0.132033  0  -0.075819  -0.060956  0  4.085817  0
C  C65  1  0.19840820  0.05477503  0.04972282  1  0.043266  0  -0.076487  -0.055808  0  4.098906  0
C  C66  1  0.19058085  0.04405374  0.12340775  1  0.049121  0  -0.055725  -0.075329  0  4.211377  0
C  C67  1  0.15093664  0.98308095  0.89413525  1  -0.384738  0  -0.040939  -0.046448  0  4.170394  0
C  C68  1  0.17682706  0.03697424  0.18678281  1  -0.434927  0  -0.052849  -0.108205  0  4.162997  0
C  C69  1  0.72091487  0.83129536  0.33359185  1  0.471544  0  0.10111  0.226084  0  3.943584  0
C  C70  1  0.98396284  0.15859015  0.39415099  1  0.443437  0  0.01577  -0.039084  0  3.959544  0
C  C71  1  0.79305133  0.06070223  0.64506314  1  0.438449  0  0.01698  -0.050786  0  3.972584  0
C  C72  1  0.09647605  0.94062611  0.26478849  1  0.440031  0  0.019086  -0.050912  0  3.956034  0
C  C73  1  0.15611317  0.02934135  0.25773206  1  0.152584  0  -0.029705  0.04098  0  4.217801  0
C  C74  1  0.94231628  0.79419583  0.66456625  1  1.487775  0  0.228938  0.559496  0  4.132815  0
C  C75  1  0.36051878  0.18171934  0.65603517  1  -0.032562  0  -0.228793  -0.421116  0  3.973607  0
C  C76  1  0.81846307  0.18193833  0.50852702  1  -0.024781  0  -0.228357  -0.424423  0  3.972978  0
C  C77  1  0.62798946  0.79679034  0.35149820  1  -0.036326  0  -0.229791  -0.421235  0  3.979817  0
N  N78  1  0.14758818  0.07161320  0.38796322  1  -0.793806  0  -0.266351  -0.175013  0  3.547637  0
N  N79  1  0.87404754  0.72605036  0.43039063  1  -0.78113  0  -0.264266  -0.181438  0  3.531674  0
N  N80  1  0.12500581  0.94698731  0.50728799  1  -0.812075  0  -0.284262  -0.189616  0  3.645898  0
N  N81  1  0.04355383  0.02474892  0.63823854  1  -0.771346  0  -0.262793  -0.169318  0  3.614492  0
N  N82  1  0.98061522  0.92376912  0.60832446  1  -0.733618  0  -0.257133  -0.185889  0  3.589084  0
N  N83  1  0.18423781  0.05109525  0.54977455  1  -0.782543  0  -0.282026  -0.247736  0  3.586264  0
N  N84  1  0.11455381  0.24098806  0.65805593  1  -0.797875  0  -0.267458  -0.17902  0  3.553953  0
N  N85  1  0.93712943  0.74181260  0.38737698  1  -0.807406  0  -0.271572  -0.173788  0  3.567259  0
N  N86  1  0.79334292  0.92224365  0.56597835  1  -0.769389  0  -0.26095  -0.176151  0  3.529631  0
N  N87  1  0.88137495  0.88909805  0.35310095  1  -0.790889  0  -0.282584  -0.181018  0  3.660108  0
N  N88  1  0.93971623  0.11721935  0.49210209  1  -0.800491  0  -0.281287  -0.24124  0  3.558461  0
N  N89  1  0.81406834  0.86682850  0.39106276  1  -0.810357  0  -0.275997  -0.255777  0  3.543874  0
N  N90  1  0.99903346  0.11519791  0.44658159  1  -0.78926  0  -0.285017  -0.197719  0  3.658939  0
N  N91  1  0.84913093  0.02727726  0.61126069  1  -0.819562  0  -0.271519  -0.178196  0  3.558541  0
N  N92  1  0.09182406  0.96658807  0.34243165  1  -0.7968  0  -0.266366  -0.167048  0  3.543758  0
N  N93  1  0.17442014  0.25541512  0.61207064  1  -0.821155  0  -0.270544  -0.175765  0  3.547816  0
O  O94  1  0.96553117  0.75661711  0.71077463  1  -1.103718  0  -0.284398  -0.460375  0  2.047501  0
O  O95  1  0.84582994  0.74586216  0.60174720  1  -1.142991  0  -0.342772  -0.510873  0  2.270385  0
