# generated using pymatgen
data_ZnH38C30(N2O3)2
_symmetry_space_group_name_H-M   'P 1'
_cell_length_a   8.84874051
_cell_length_b   9.12980725
_cell_length_c   10.53497666
_cell_angle_alpha   93.45461033
_cell_angle_beta   114.82150073
_cell_angle_gamma   89.98225150
_symmetry_Int_Tables_number   1
_chemical_formula_structural   ZnH38C30(N2O3)2
_chemical_formula_sum   'Zn1 H38 C30 N4 O6'
_cell_volume   770.77138587
_cell_formula_units_Z   1
loop_
 _symmetry_equiv_pos_site_id
 _symmetry_equiv_pos_as_xyz
  1  'x, y, z'
loop_
 _atom_site_type_symbol
 _atom_site_label
 _atom_site_symmetry_multiplicity
 _atom_site_fract_x
 _atom_site_fract_y
 _atom_site_fract_z
 _atom_site_occupancy
 _atom_site_hle17_bader_spin_density
 _atom_site_hle17_ddec_charge
 _atom_site_hle17_ddec_spin_density
 _atom_site_hle17_ddec_sum_bond_order
 _atom_site_hle17_magmom
 _atom_site_hse06_10hf_bader_spin_density
 _atom_site_hse06_10hf_ddec_charge
 _atom_site_hse06_10hf_ddec_spin_density
 _atom_site_hse06_10hf_ddec_sum_bond_order
 _atom_site_hse06_10hf_magmom
 _atom_site_hse06_bader_spin_density
 _atom_site_hse06_ddec_charge
 _atom_site_hse06_ddec_spin_density
 _atom_site_hse06_ddec_sum_bond_order
 _atom_site_hse06_magmom
 _atom_site_pbe_bader_spin_density
 _atom_site_pbe_cm5_charge
 _atom_site_pbe_ddec_charge
 _atom_site_pbe_ddec_spin_density
 _atom_site_pbe_ddec_sum_bond_order
 _atom_site_pbe_magmom
Zn  Zn0  1  0.85683471  0.00003014  0.99986478  1  0  0.973089  0  1.929904  0  0  0.773951  0  2.42323  0  0  0.82217  0  2.36691  0  0  0.686044  0.740265  0  2.461843  0
H  H1  1  0.14743796  0.59766643  0.68138154  1  0  0.305697  0  0.860429  0  0  0.297808  0  0.9056  0  0  0.303891  0  0.901979  0  0  0.333707  0.293262  0  0.908689  0
H  H2  1  0.46615519  0.40243005  0.31878172  1  0  0.30555  0  0.860502  0  0  0.297757  0  0.905557  0  0  0.303877  0  0.901922  0  0  0.33366  0.293176  0  0.908698  0
H  H3  1  0.59072613  0.49303648  0.79567248  1  0  0.137319  0  0.963268  0  0  0.144615  0  1.021931  0  0  0.14899  0  1.019941  0  0  0.115206  0.141183  0  1.02412  0
H  H4  1  0.79502996  0.50720227  0.20417346  1  0  0.137358  0  0.963044  0  0  0.144615  0  1.021882  0  0  0.14892  0  1.01995  0  0  0.115256  0.141246  0  1.023997  0
H  H5  1  0.81897049  0.68354453  0.91625945  1  0  0.090551  0  0.924573  0  0  0.101801  0  0.982273  0  0  0.104413  0  0.97957  0  0  0.125181  0.099751  0  0.984567  0
H  H6  1  0.90252883  0.31663462  0.08347745  1  0  0.090339  0  0.925517  0  0  0.101142  0  0.983525  0  0  0.103724  0  0.980868  0  0  0.125114  0.099116  0  0.985778  0
H  H7  1  0.48085845  0.01291872  0.86471824  1  0  0.077511  0  0.949888  0  0  0.087206  0  1.01135  0  0  0.0895  0  1.009466  0  0  0.120433  0.085291  0  1.013064  0
H  H8  1  0.61594967  0.98740527  0.13491819  1  0  0.077761  0  0.949001  0  0  0.087247  0  1.010721  0  0  0.089543  0  1.008818  0  0  0.120716  0.085333  0  1.012443  0
H  H9  1  0.23861376  0.83741171  0.75468623  1  0  0.131876  0  0.947115  0  0  0.141167  0  1.007086  0  0  0.145355  0  1.005004  0  0  0.117449  0.137959  0  1.008995  0
H  H10  1  0.48404617  0.16301680  0.24516716  1  0  0.132395  0  0.946175  0  0  0.14118  0  1.006708  0  0  0.145344  0  1.00465  0  0  0.117553  0.137986  0  1.008604  0
H  H11  1  0.99233816  0.41190889  0.55190044  1  0  0.071317  0  0.931266  0  0  0.082887  0  0.990261  0  0  0.084924  0  0.989614  0  0  0.099969  0.081397  0  0.990986  0
H  H12  1  0.44020048  0.58791016  0.44825688  1  0  0.07241  0  0.929769  0  0  0.083349  0  0.989643  0  0  0.085376  0  0.989002  0  0  0.100182  0.081862  0  0.990358  0
H  H13  1  0.99311166  0.21429400  0.40132446  1  0  0.066705  0  0.957988  0  0  0.082657  0  1.022105  0  0  0.082695  0  1.02457  0  0  0.082936  0.082666  0  1.020299  0
H  H14  1  0.59099528  0.78557526  0.59890736  1  0  0.06646  0  0.959263  0  0  0.082143  0  1.023742  0  0  0.082199  0  1.026202  0  0  0.082824  0.082142  0  1.021933  0
H  H15  1  0.18648266  0.15402928  0.51958548  1  0  0.07955  0  0.950535  0  0  0.093617  0  1.016047  0  0  0.095579  0  1.01482  0  0  0.090406  0.092209  0  1.016952  0
H  H16  1  0.66633150  0.84598007  0.48084756  1  0  0.079262  0  0.949741  0  0  0.093847  0  1.014615  0  0  0.095769  0  1.013408  0  0  0.090297  0.092403  0  1.015566  0
H  H17  1  0.86964142  0.02427859  0.47586948  1  0  0.07346  0  0.937887  0  0  0.093257  0  0.995775  0  0  0.094039  0  0.996275  0  0  0.089201  0.092688  0  0.995437  0
H  H18  1  0.39289415  0.97568736  0.52423569  1  0  0.073643  0  0.938878  0  0  0.093474  0  0.996593  0  0  0.094229  0  0.997113  0  0  0.089195  0.092917  0  0.996249  0
H  H19  1  0.06082979  0.99217293  0.61538601  1  0  0.062533  0  0.981958  0  0  0.073886  0  1.055498  0  0  0.075634  0  1.054139  0  0  0.08323  0.072276  0  1.05711  0
H  H20  1  0.44475379  0.00768392  0.38476379  1  0  0.062104  0  0.981541  0  0  0.073904  0  1.054623  0  0  0.075615  0  1.05328  0  0  0.083066  0.072324  0  1.056209  0
H  H21  1  0.26519110  0.13353255  0.80269204  1  0  0.100249  0  0.969649  0  0  0.123935  0  1.029085  0  0  0.124683  0  1.030264  0  0  0.088111  0.123314  0  1.028556  0
H  H22  1  0.46212777  0.86621009  0.19724415  1  0  0.100668  0  0.96915  0  0  0.124458  0  1.028449  0  0  0.125167  0  1.029664  0  0  0.088293  0.123872  0  1.027861  0
H  H23  1  0.19785042  0.18829197  0.93513801  1  0  0.115489  0  0.947465  0  0  0.13777  0  1.005722  0  0  0.13936  0  1.005973  0  0  0.092538  0.136667  0  1.005455  0
H  H24  1  0.26242871  0.81125285  0.06498092  1  0  0.115528  0  0.947899  0  0  0.137695  0  1.006323  0  0  0.139277  0  1.006584  0  0  0.092407  0.13659  0  1.006073  0
H  H25  1  0.32237231  0.30986724  0.89147155  1  0  0.093989  0  0.957562  0  0  0.113577  0  1.021801  0  0  0.114933  0  1.022559  0  0  0.080891  0.112702  0  1.021095  0
H  H26  1  0.43060498  0.68970019  0.10869097  1  0  0.093757  0  0.95747  0  0  0.113477  0  1.021649  0  0  0.114817  0  1.022411  0  0  0.080979  0.112613  0  1.02094  0
H  H27  1  0.11263970  0.49617754  0.86431549  1  0  0.0942  0  0.963781  0  0  0.114033  0  1.028418  0  0  0.115361  0  1.028868  0  0  0.082531  0.112818  0  1.028761  0
H  H28  1  0.24858717  0.50363491  0.13611044  1  0  0.093464  0  0.964739  0  0  0.113703  0  1.028793  0  0  0.115003  0  1.029297  0  0  0.082439  0.112519  0  1.029094  0
H  H29  1  0.96554396  0.37764400  0.88272396  1  0  0.11512  0  0.962451  0  0  0.135855  0  1.023939  0  0  0.137651  0  1.023655  0  0  0.090457  0.134477  0  1.024466  0
H  H30  1  0.08278970  0.62188653  0.11734418  1  0  0.115211  0  0.962105  0  0  0.135682  0  1.024024  0  0  0.13746  0  1.023775  0  0  0.090169  0.134324  0  1.024511  0
H  H31  1  0.90603751  0.47821247  0.73025504  1  0  0.096205  0  0.953976  0  0  0.118297  0  1.015102  0  0  0.119439  0  1.015459  0  0  0.085122  0.117588  0  1.014784  0
H  H32  1  0.17576670  0.52147484  0.27002866  1  0  0.09659  0  0.95258  0  0  0.118511  0  1.013855  0  0  0.119678  0  1.014193  0  0  0.08522  0.11779  0  1.013554  0
H  H33  1  0.70741395  0.28186302  0.66545529  1  0  0.116031  0  0.956655  0  0  0.135269  0  1.018468  0  0  0.137644  0  1.016979  0  0  0.088712  0.133189  0  1.020086  0
H  H34  1  0.04120079  0.71804170  0.33401253  1  0  0.115626  0  0.956867  0  0  0.134939  0  1.018659  0  0  0.137281  0  1.017189  0  0  0.088493  0.1329  0  1.020222  0
H  H35  1  0.65920880  0.13822661  0.53348532  1  0  0.101882  0  0.967869  0  0  0.125773  0  1.027989  0  0  0.126361  0  1.029173  0  0  0.088019  0.12544  0  1.026884  0
H  H36  1  0.12434681  0.86172883  0.46596708  1  0  0.101589  0  0.969061  0  0  0.125597  0  1.029126  0  0  0.126158  0  1.030338  0  0  0.088085  0.125275  0  1.028011  0
H  H37  1  0.75025358  0.30454834  0.51666932  1  0  0.086523  0  0.988683  0  0  0.104792  0  1.0586  0  0  0.105857  0  1.059609  0  0  0.078137  0.103974  0  1.057796  0
H  H38  1  0.23239741  0.69543169  0.48319048  1  0  0.086247  0  0.98962  0  0  0.105064  0  1.058885  0  0  0.106098  0  1.059946  0  0  0.077979  0.104234  0  1.058089  0
C  C39  1  0.56221862  0.60656974  0.81093873  1  0  -0.226603  0  3.689919  0  0  -0.245174  0  3.94071  0  0  -0.255971  0  3.960026  0  0  -0.090104  -0.238403  0  3.928353  0
C  C40  1  0.75110605  0.39374331  0.18884385  1  0  -0.227065  0  3.690821  0  0  -0.245552  0  3.94215  0  0  -0.256238  0  3.96145  0  0  -0.090426  -0.238856  0  3.92979  0
C  C41  1  0.68814019  0.71209266  0.87667635  1  0  0.152012  0  3.712862  0  0  0.119322  0  3.965443  0  0  0.128766  0  3.981833  0  0  0.054977  0.113379  0  3.954274  0
C  C42  1  0.81127700  0.28817834  0.12305029  1  0  0.152144  0  3.714756  0  0  0.120154  0  3.96722  0  0  0.129632  0  3.983579  0  0  0.055181  0.114195  0  3.956094  0
C  C43  1  0.49950563  0.89632360  0.84925772  1  0  0.140246  0  3.735202  0  0  0.10824  0  3.987545  0  0  0.116651  0  4.00598  0  0  0.049862  0.102915  0  3.974833  0
C  C44  1  0.65013203  0.10397316  0.15038337  1  0  0.14048  0  3.734145  0  0  0.108911  0  3.98635  0  0  0.117363  0  4.004762  0  0  0.05009  0.103565  0  3.97367  0
C  C45  1  0.36534579  0.79893659  0.78593442  1  0  -0.217918  0  3.68652  0  0  -0.235334  0  3.93931  0  0  -0.246112  0  3.959393  0  0  -0.082304  -0.227889  0  3.925344  0
C  C46  1  0.57940693  0.20144205  0.21379334  1  0  -0.219973  0  3.688277  0  0  -0.236734  0  3.941651  0  0  -0.247486  0  3.961735  0  0  -0.083226  -0.229306  0  3.927675  0
C  C47  1  0.39586581  0.65027543  0.76408727  1  0  0.315876  0  3.792032  0  0  0.303504  0  4.044017  0  0  0.317919  0  4.061792  0  0  0.124661  0.293816  0  4.031887  0
C  C48  1  0.63166176  0.35006402  0.23573769  1  0  0.317439  0  3.793583  0  0  0.303956  0  4.046885  0  0  0.318365  0  4.064738  0  0  0.124907  0.294287  0  4.034704  0
C  C49  1  0.25719489  0.40897969  0.65033688  1  0  0.575555  0  3.752363  0  0  0.532437  0  4.043661  0  0  0.560262  0  4.043149  0  0  0.248977  0.513941  0  4.042635  0
C  C50  1  0.60672073  0.59116038  0.34993836  1  0  0.57346  0  3.755683  0  0  0.531855  0  4.044631  0  0  0.559833  0  4.043961  0  0  0.248745  0.513271  0  4.043694  0
C  C51  1  0.08933790  0.33318180  0.60612493  1  0  -0.172091  0  3.602015  0  0  -0.177704  0  3.836871  0  0  -0.18354  0  3.850776  0  0  -0.084393  -0.173886  0  3.827331  0
C  C52  1  0.48284472  0.66676538  0.39409249  1  0  -0.172623  0  3.605108  0  0  -0.178464  0  3.838956  0  0  -0.184342  0  3.852831  0  0  -0.084422  -0.174587  0  3.829364  0
C  C53  1  0.06536371  0.19221155  0.51152561  1  0  -0.11269  0  3.637356  0  0  -0.15803  0  3.895679  0  0  -0.158358  0  3.908618  0  0  -0.169768  -0.157565  0  3.886628  0
C  C54  1  0.55322641  0.80767998  0.48874527  1  0  -0.112254  0  3.639343  0  0  -0.157661  0  3.897058  0  0  -0.157992  0  3.91005  0  0  -0.169882  -0.15715  0  3.887977  0
C  C55  1  0.97712253  0.07945318  0.56231058  1  0  -0.146721  0  3.651485  0  0  -0.194316  0  3.908822  0  0  -0.19506  0  3.921984  0  0  -0.169944  -0.193824  0  3.900139  0
C  C56  1  0.41412820  0.92044785  0.43787399  1  0  -0.147239  0  3.651882  0  0  -0.19516  0  3.909366  0  0  -0.195813  0  3.922425  0  0  -0.169974  -0.194703  0  3.90069  0
C  C57  1  0.92385709  0.16279176  0.66752974  1  0  -0.012779  0  3.518482  0  0  0.018198  0  3.737859  0  0  0.012301  0  3.756541  0  0  -0.01333  0.021935  0  3.725371  0
C  C58  1  0.25578100  0.83713918  0.33251067  1  0  -0.009508  0  3.515433  0  0  0.02067  0  3.735262  0  0  0.014738  0  3.754066  0  0  -0.012352  0.024346  0  3.722883  0
C  C59  1  0.06199573  0.28876615  0.73741705  1  0  0.168172  0  3.467806  0  0  0.198843  0  3.694248  0  0  0.199587  0  3.714596  0  0  -0.00238  0.198544  0  3.680357  0
C  C60  1  0.32421840  0.71110948  0.26275320  1  0  0.167751  0  3.469915  0  0  0.198975  0  3.695606  0  0  0.199793  0  3.715793  0  0  -0.002018  0.198646  0  3.681782  0
C  C61  1  0.22107661  0.22629448  0.84775517  1  0  -0.346982  0  3.668846  0  0  -0.4293  0  3.904627  0  0  -0.433095  0  3.916552  0  0  -0.24873  -0.426189  0  3.895943  0
C  C62  1  0.37305233  0.77339470  0.15237122  1  0  -0.3475  0  3.670711  0  0  -0.429897  0  3.905976  0  0  -0.433633  0  3.917883  0  0  -0.249154  -0.426822  0  3.897295  0
C  C63  1  0.00808527  0.41815637  0.80689081  1  0  -0.350307  0  3.69383  0  0  -0.434981  0  3.936183  0  0  -0.438292  0  3.947483  0  0  -0.25149  -0.432693  0  3.929034  0
C  C64  1  0.20113828  0.58159836  0.19339165  1  0  -0.349773  0  3.693686  0  0  -0.434584  0  3.935856  0  0  -0.437863  0  3.947125  0  0  -0.25097  -0.432317  0  3.928654  0
C  C65  1  0.75032641  0.22654285  0.59198217  1  0  -0.317221  0  3.670499  0  0  -0.400763  0  3.90806  0  0  -0.402617  0  3.918488  0  0  -0.249313  -0.398824  0  3.900643  0
C  C66  1  0.15737474  0.77340817  0.40771194  1  0  -0.317748  0  3.670228  0  0  -0.401769  0  3.908011  0  0  -0.403547  0  3.91849  0  0  -0.249908  -0.399877  0  3.900586  0
C  C67  1  0.92173142  0.06477071  0.78027946  1  0  0.642731  0  3.839262  0  0  0.598297  0  4.128239  0  0  0.630301  0  4.123987  0  0  0.202569  0.576527  0  4.13025  0
C  C68  1  0.14112637  0.93526590  0.21969219  1  0  0.641514  0  3.838713  0  0  0.597489  0  4.127146  0  0  0.629473  0  4.122886  0  0  0.202448  0.575747  0  4.129128  0
N  N69  1  0.65890313  0.85477315  0.89525112  1  0  -0.341214  0  3.308666  0  0  -0.260907  0  3.589332  0  0  -0.280568  0  3.602835  0  0  -0.338778  -0.247979  0  3.580038  0
N  N70  1  0.76362165  0.14547712  0.10448121  1  0  -0.340468  0  3.309562  0  0  -0.260688  0  3.590482  0  0  -0.280408  0  3.604034  0  0  -0.338541  -0.247761  0  3.58121  0
N  N71  1  0.25999767  0.55476301  0.69870344  1  0  -0.459312  0  3.338468  0  0  -0.404286  0  3.576353  0  0  -0.426337  0  3.583514  0  0  -0.396707  -0.38899  0  3.570839  0
N  N72  1  0.56131924  0.44541957  0.30141935  1  0  -0.458694  0  3.339364  0  0  -0.403582  0  3.576227  0  0  -0.42579  0  3.583514  0  0  -0.396424  -0.388235  0  3.570687  0
O  O73  1  0.38187327  0.34904218  0.65033614  1  0  -0.509736  0  1.89314  0  0  -0.469601  0  2.096336  0  0  -0.488273  0  2.090873  0  0  -0.27819  -0.456336  0  2.099912  0
O  O74  1  0.73136092  0.65118100  0.35000129  1  0  -0.509396  0  1.892921  0  0  -0.469739  0  2.095083  0  0  -0.48844  0  2.089511  0  0  -0.278508  -0.456464  0  2.098721  0
O  O75  1  0.86871431  0.13112506  0.86634196  1  0  -0.660216  0  2.07257  0  0  -0.583101  0  2.346407  0  0  -0.613025  0  2.332235  0  0  -0.341881  -0.562181  0  2.355427  0
O  O76  1  0.00224457  0.86887787  0.13336058  1  0  -0.660935  0  2.0714  0  0  -0.583392  0  2.344772  0  0  -0.613312  0  2.330575  0  0  -0.342152  -0.562477  0  2.353814  0
O  O77  1  0.96861226  0.93530288  0.78869184  1  0  -0.623303  0  1.864178  0  0  -0.580333  0  2.075623  0  0  -0.60171  0  2.066787  0  0  -0.338786  -0.565082  0  2.081319  0
O  O78  1  0.17951590  0.06478928  0.21152859  1  0  -0.62237  0  1.864946  0  0  -0.57974  0  2.076227  0  0  -0.601173  0  2.067512  0  0  -0.338564  -0.564455  0  2.081832  0
