# generated using pymatgen
data_K2CuH6C6N4O9
_symmetry_space_group_name_H-M   'P 1'
_cell_length_a   8.83826899
_cell_length_b   12.36472232
_cell_length_c   13.22690425
_cell_angle_alpha   90.00030475
_cell_angle_beta   108.58675881
_cell_angle_gamma   90.00077793
_symmetry_Int_Tables_number   1
_chemical_formula_structural   K2CuH6C6N4O9
_chemical_formula_sum   'K8 Cu4 H24 C24 N16 O36'
_cell_volume   1370.07955426
_cell_formula_units_Z   4
loop_
 _symmetry_equiv_pos_site_id
 _symmetry_equiv_pos_as_xyz
  1  'x, y, z'
loop_
 _atom_site_type_symbol
 _atom_site_label
 _atom_site_symmetry_multiplicity
 _atom_site_fract_x
 _atom_site_fract_y
 _atom_site_fract_z
 _atom_site_occupancy
 _atom_site_pbe_bader_charge
 _atom_site_pbe_bader_spin_density
 _atom_site_pbe_cm5_charge
 _atom_site_pbe_ddec_charge
 _atom_site_pbe_ddec_spin_density
 _atom_site_pbe_ddec_sum_bond_order
 _atom_site_pbe_magmom
K  K0  1  0.10018680  0.38548047  0.93732009  1  0.889437  -8e-05  0.75895  0.862464  -7e-06  0.670639  0.0
K  K1  1  0.89981696  0.88547996  0.56268724  1  0.889439  0.001167  0.758949  0.862472  0.001045  0.670593  0.0
K  K2  1  0.89979308  0.61451572  0.06265848  1  0.889386  0.000103  0.758949  0.86247  -6.9e-05  0.670611  0.0
K  K3  1  0.10020372  0.11451866  0.43734075  1  0.889386  0.00115  0.758931  0.862455  0.001042  0.670621  0.0
K  K4  1  0.86165266  0.61297416  0.38569978  1  0.891718  0.000259  0.753152  0.868254  0.000192  0.634215  0.0
K  K5  1  0.13835599  0.11297240  0.11429211  1  0.891721  0.000138  0.753169  0.86826  0.000142  0.634224  0.0
K  K6  1  0.13836558  0.38703092  0.61431863  1  0.89172  8.9e-05  0.753137  0.868281  1.4e-05  0.634142  0.0
K  K7  1  0.86164177  0.88702379  0.88568418  1  0.891693  -0.000211  0.753137  0.868266  -0.000283  0.634189  0.0
Cu  Cu8  1  0.53268364  0.52781751  0.14069927  1  1.035973  -0.50322  0.733379  0.686761  -0.723624  2.415223  -0.502
Cu  Cu9  1  0.46731701  0.02782114  0.35928900  1  1.036109  0.502167  0.733456  0.686731  0.683067  2.415271  0.502
Cu  Cu10  1  0.46732495  0.47217625  0.85929745  1  1.035907  0.504046  0.733497  0.686813  0.685283  2.41545  0.503
Cu  Cu11  1  0.53267725  0.97218071  0.64070318  1  1.035769  0.502977  0.733404  0.686746  0.684092  2.415271  0.502
H  H12  1  0.47223109  0.46422472  0.32488623  1  0.65778  0.000366  0.291245  0.395653  0.000359  0.936028  0.0
H  H13  1  0.52776806  0.96422124  0.17511526  1  0.657765  -0.000366  0.291263  0.395631  -0.000374  0.936025  0.0
H  H14  1  0.52776800  0.53577551  0.67511605  1  0.657803  0.000311  0.291264  0.395615  0.000344  0.936054  0.0
H  H15  1  0.47222982  0.03577414  0.82488601  1  0.65782  0.000309  0.291273  0.395663  0.000342  0.936004  0.0
H  H16  1  0.51111817  0.59239524  0.34094104  1  0.648452  0.000447  0.287814  0.388116  0.000423  0.950428  0.0
H  H17  1  0.48887693  0.09239795  0.15906151  1  0.648491  -0.000444  0.287893  0.388273  -0.000439  0.950203  0.0
H  H18  1  0.48887972  0.40760499  0.65906099  1  0.648424  0.000355  0.287901  0.388249  0.0004  0.95023  0.0
H  H19  1  0.51111856  0.90760471  0.84093850  1  0.648322  0.000352  0.28787  0.388183  0.000391  0.950323  0.0
H  H20  1  0.01491580  0.36747342  0.16869528  1  0.610719  -0.000357  0.292282  0.364624  -0.00035  0.978597  0.0
H  H21  1  0.98508226  0.86747203  0.33130776  1  0.610783  0.000363  0.292137  0.364372  0.000413  0.978928  0.0
H  H22  1  0.98508206  0.63252681  0.83130144  1  0.610779  0.000355  0.292244  0.364566  0.000323  0.978668  0.0
H  H23  1  0.01491330  0.13252739  0.66870436  1  0.610781  0.000361  0.292205  0.364575  0.000408  0.978655  0.0
H  H24  1  0.19889614  0.35195284  0.20399845  1  0.632169  2.4e-05  0.294866  0.382235  -2e-06  0.949372  0.0
H  H25  1  0.80110028  0.85194622  0.29599132  1  0.632075  6.6e-05  0.294894  0.382215  4.2e-05  0.949429  0.0
H  H26  1  0.80110052  0.64804982  0.79599727  1  0.632095  -9e-05  0.294881  0.382178  -4.9e-05  0.94948  0.0
H  H27  1  0.19889393  0.14804996  0.70399254  1  0.632198  0.0  0.294864  0.382258  -6e-06  0.949349  0.0
H  H28  1  0.20125813  0.14810629  0.88310983  1  0.626163  -3.2e-05  0.294607  0.384091  3e-06  0.949668  0.0
H  H29  1  0.79873759  0.64810753  0.61689386  1  0.626055  -3.4e-05  0.294622  0.384054  -6e-06  0.949703  0.0
H  H30  1  0.79873973  0.85189313  0.11688765  1  0.625913  1.2e-05  0.29462  0.384063  -3e-06  0.949711  0.0
H  H31  1  0.20125915  0.35189594  0.38311700  1  0.626026  -1.4e-05  0.294627  0.384143  -2.1e-05  0.949631  0.0
H  H32  1  0.01729218  0.12886184  0.84790033  1  0.62731  0.000668  0.293462  0.36691  0.000695  0.97441  0.0
H  H33  1  0.98270186  0.62886102  0.65209761  1  0.627342  0.000666  0.293424  0.366761  0.000701  0.974564  0.0
H  H34  1  0.98270210  0.87114082  0.15209639  1  0.627409  0.000672  0.293411  0.366817  0.000714  0.974459  0.0
H  H35  1  0.01729600  0.37114002  0.34789912  1  0.627275  -0.000675  0.293467  0.366897  -0.000757  0.974387  0.0
C  C36  1  0.77223979  0.23401362  0.20185045  1  0.833342  -0.002301  0.197451  0.269855  -0.001732  4.042177  -0.001
C  C37  1  0.22776821  0.73401682  0.29815175  1  0.833143  0.002358  0.19737  0.269809  0.001632  4.042099  0.001
C  C38  1  0.22776878  0.76598580  0.79814173  1  0.833299  0.002387  0.19743  0.269871  0.001624  4.042197  0.001
C  C39  1  0.77224046  0.26598745  0.70186010  1  0.833566  0.002447  0.197427  0.269844  0.001658  4.042257  0.001
C  C40  1  0.28613799  0.81737132  0.06307668  1  0.844341  -0.003617  0.200996  0.284274  -0.002777  4.039527  -0.001
C  C41  1  0.71385764  0.31737860  0.43691879  1  0.844439  0.003611  0.200954  0.28427  0.002571  4.039544  0.001
C  C42  1  0.71386581  0.18261678  0.93691600  1  0.844413  0.003725  0.201017  0.284283  0.00264  4.039785  0.002
C  C43  1  0.28613431  0.68262406  0.56308803  1  0.844309  0.003717  0.200974  0.28428  0.00263  4.039524  0.001
C  C44  1  0.66682756  0.32217512  0.16713976  1  0.622607  -0.002232  0.086032  -0.084891  -0.003313  4.053068  -0.004
C  C45  1  0.33317297  0.82217064  0.33285903  1  0.622474  0.002339  0.085981  -0.08492  0.00289  4.053116  0.004
C  C46  1  0.33316792  0.67782511  0.83285873  1  0.622376  0.002512  0.085973  -0.084904  0.002958  4.053324  0.005
C  C47  1  0.66683324  0.17782231  0.66713794  1  0.622595  0.002594  0.085963  -0.084917  0.003032  4.053361  0.005
C  C48  1  0.39762282  0.73248691  0.09639604  1  0.522452  -0.005075  0.076519  -0.111369  -0.006379  4.051625  -0.008
C  C49  1  0.60237439  0.23249130  0.40360161  1  0.521939  0.00505  0.076548  -0.111348  0.00559  4.051349  0.008
C  C50  1  0.60238221  0.26750927  0.90360447  1  0.522071  0.005368  0.076508  -0.11155  0.005872  4.051326  0.008
C  C51  1  0.39763065  0.76751378  0.59639966  1  0.522325  0.005313  0.076532  -0.111529  0.005755  4.05133  0.008
C  C52  1  0.49222002  0.30688304  0.11304756  1  1.590392  0.001722  0.202455  0.54455  -0.000313  4.295277  0.002
C  C53  1  0.50778137  0.80690159  0.38695588  1  1.590165  -0.001827  0.202339  0.54426  -8.4e-05  4.295107  -0.002
C  C54  1  0.50777787  0.69310264  0.88695370  1  1.590767  -0.001661  0.202396  0.544336  8.1e-05  4.295188  -0.002
C  C55  1  0.49222604  0.19311724  0.61304211  1  1.590437  -0.001765  0.202432  0.544467  -6.1e-05  4.295592  -0.002
C  C56  1  0.57109034  0.75078026  0.14661282  1  1.605482  0.0022  0.216996  0.566464  0.000313  4.232038  0.002
C  C57  1  0.42890612  0.25076327  0.35338779  1  1.605889  -0.002192  0.217066  0.566629  -0.000548  4.231488  -0.002
C  C58  1  0.42891708  0.24922887  0.85338668  1  1.605961  -0.002133  0.217063  0.566796  -0.00053  4.231392  -0.002
C  C59  1  0.57108819  0.74922079  0.64661424  1  1.605919  -0.002142  0.217204  0.566871  -0.000531  4.231467  -0.002
N  N60  1  0.71718079  0.42403212  0.17969028  1  -0.42204  -0.072295  -0.229955  0.028059  -0.054813  3.769611  -0.063
N  N61  1  0.28281982  0.92404164  0.32031585  1  -0.421965  0.071935  -0.229846  0.028229  0.051584  3.769071  0.062
N  N62  1  0.28280407  0.57596407  0.82032865  1  -0.42195  0.072323  -0.230043  0.02794  0.051825  3.769402  0.063
N  N63  1  0.71718991  0.07597153  0.67966901  1  -0.421973  0.071944  -0.229966  0.028043  0.051583  3.769778  0.062
N  N64  1  0.35191823  0.62859592  0.08128145  1  -0.32441  -0.09099  -0.205356  0.050467  -0.068069  3.815057  -0.077
N  N65  1  0.64807177  0.12858789  0.41872096  1  -0.324785  0.090662  -0.205359  0.05043  0.06414  3.81441  0.077
N  N66  1  0.64809766  0.37140593  0.91874327  1  -0.324704  0.091027  -0.205278  0.050623  0.064385  3.814523  0.077
N  N67  1  0.35190928  0.87140506  0.58125332  1  -0.324371  0.090696  -0.205245  0.050622  0.064153  3.81511  0.077
N  N68  1  0.86224615  0.16264174  0.23191693  1  -1.148833  -0.002719  -0.348309  -0.391999  -0.0019  2.795728  -0.002
N  N69  1  0.13774940  0.66263338  0.26808153  1  -1.148609  0.002879  -0.348238  -0.391949  0.001725  2.795199  0.002
N  N70  1  0.13775291  0.83736173  0.76808080  1  -1.148832  0.002755  -0.348377  -0.392047  0.001637  2.7955  0.002
N  N71  1  0.86224846  0.33735958  0.73191520  1  -1.149018  0.002895  -0.348401  -0.392056  0.001735  2.795814  0.002
N  N72  1  0.19149139  0.88628377  0.03446162  1  -1.145574  -0.002639  -0.367626  -0.40534  -0.001753  2.835915  -0.002
N  N73  1  0.80850948  0.38629051  0.46553832  1  -1.145717  0.002781  -0.367541  -0.405254  0.001574  2.835868  0.002
N  N74  1  0.80851129  0.11371646  0.96554368  1  -1.145842  0.002737  -0.367635  -0.405267  0.001541  2.836398  0.002
N  N75  1  0.19148957  0.61372023  0.53445714  1  -1.145835  0.002867  -0.367646  -0.405301  0.001611  2.836202  0.002
O  O76  1  0.86520324  0.44892232  0.22313003  1  -0.596832  -0.049604  -0.223704  -0.39797  -0.034665  2.155377  -0.04
O  O77  1  0.13479551  0.94892368  0.27686525  1  -0.596828  0.049542  -0.223712  -0.39799  0.032688  2.155599  0.04
O  O78  1  0.13477796  0.55108277  0.77687150  1  -0.597119  0.049368  -0.223685  -0.39798  0.032583  2.155536  0.04
O  O79  1  0.86521424  0.05108544  0.72312642  1  -0.597084  0.049277  -0.223698  -0.398  0.032479  2.155442  0.04
O  O80  1  0.20804760  0.60130940  0.03784471  1  -0.550829  -0.08178  -0.216756  -0.346361  -0.057541  2.119366  -0.066
O  O81  1  0.79195962  0.10130869  0.46215515  1  -0.550319  0.081681  -0.216798  -0.346389  0.054286  2.11907  0.066
O  O82  1  0.79196703  0.39868597  0.96216765  1  -0.550418  0.081555  -0.216875  -0.346461  0.054261  2.119219  0.066
O  O83  1  0.20805368  0.89868426  0.53782971  1  -0.550731  0.081423  -0.216808  -0.346431  0.054099  2.119695  0.066
O  O84  1  0.41077746  0.39455375  0.08388574  1  -1.124708  -0.087462  -0.371714  -0.58275  -0.063316  2.449548  -0.079
O  O85  1  0.58923077  0.89455628  0.41611656  1  -1.125003  0.086372  -0.371701  -0.582656  0.058697  2.44987  0.078
O  O86  1  0.58921792  0.60543111  0.91609232  1  -1.125115  0.087597  -0.371734  -0.582658  0.059889  2.449877  0.079
O  O87  1  0.41078152  0.10544072  0.58390362  1  -1.124889  0.08651  -0.371684  -0.582718  0.058772  2.449753  0.079
O  O88  1  0.65982079  0.66566117  0.16810060  1  -1.13832  -0.079149  -0.387868  -0.589745  -0.057365  2.400176  -0.072
O  O89  1  0.34017484  0.16566260  0.33189940  1  -1.13861  0.079346  -0.387848  -0.589654  0.054356  2.400572  0.072
O  O90  1  0.34019729  0.33435443  0.83188678  1  -1.13837  0.079366  -0.387911  -0.589809  0.054299  2.400222  0.072
O  O91  1  0.65981598  0.83435218  0.66811928  1  -1.138364  0.079571  -0.38797  -0.589947  0.054513  2.399994  0.072
O  O92  1  0.43356027  0.21371442  0.09722132  1  -1.173507  -0.008215  -0.325274  -0.521836  -0.005665  2.191715  -0.006
O  O93  1  0.56645681  0.71371179  0.40278571  1  -1.173014  0.007807  -0.325236  -0.521723  0.004971  2.190752  0.006
O  O94  1  0.56645196  0.78627853  0.90278750  1  -1.17311  0.008231  -0.325213  -0.521728  0.005289  2.191348  0.006
O  O95  1  0.43357087  0.28628035  0.59721352  1  -1.17329  0.007686  -0.325242  -0.521745  0.004878  2.191805  0.006
O  O96  1  0.62576782  0.84597156  0.16632836  1  -1.180576  -0.005805  -0.281301  -0.51383  -0.004008  2.209086  -0.004
O  O97  1  0.37421538  0.34598223  0.33366917  1  -1.180427  0.00579  -0.281428  -0.514125  0.003707  2.207961  0.004
O  O98  1  0.37421457  0.15403271  0.83367417  1  -1.18045  0.005819  -0.281337  -0.514021  0.003684  2.208525  0.004
O  O99  1  0.62577172  0.65403256  0.66632226  1  -1.180573  0.005701  -0.281421  -0.513903  0.003603  2.208782  0.004
O  O100  1  0.52999094  0.52538847  0.30556036  1  -1.293497  0.001777  -0.633646  -0.827492  0.000895  2.151739  0.0
O  O101  1  0.47001455  0.02538958  0.19445311  1  -1.29352  -0.001827  -0.633652  -0.827549  -0.000961  2.151724  0.0
O  O102  1  0.47000459  0.47461257  0.69444721  1  -1.293517  0.00157  -0.633674  -0.827501  0.001154  2.151671  0.002
O  O103  1  0.52999651  0.97461308  0.80555925  1  -1.293471  0.001485  -0.633672  -0.82748  0.001156  2.151687  0.002
O  O104  1  0.10115531  0.34231024  0.14275254  1  -1.265217  -0.000303  -0.68745  -0.828164  -9.8e-05  1.996538  0.0
O  O105  1  0.89882424  0.84231382  0.35724572  1  -1.26515  0.001338  -0.687304  -0.827878  0.000977  1.996661  0.001
O  O106  1  0.89883183  0.65768513  0.85724495  1  -1.265078  0.000602  -0.687432  -0.828002  0.000293  1.996567  0.001
O  O107  1  0.10115217  0.15768803  0.64275329  1  -1.265244  0.001634  -0.687379  -0.828078  0.001221  1.996479  0.001
O  O108  1  0.10674211  0.15739442  0.90655050  1  -1.273909  0.002015  -0.701278  -0.841116  0.001363  2.009864  0.002
O  O109  1  0.89324664  0.65739078  0.59344723  1  -1.273865  0.001975  -0.701218  -0.840925  0.001287  2.009984  0.002
O  O110  1  0.89324381  0.84260015  0.09344447  1  -1.273802  0.001279  -0.701169  -0.840978  0.000731  2.009909  0.001
O  O111  1  0.10673691  0.34260460  0.40654950  1  -1.273699  -0.001331  -0.701256  -0.841153  -0.000891  2.009888  -0.001
