# generated using pymatgen
data_Zn4H8C30Cl4O13
_symmetry_space_group_name_H-M   'P 1'
_cell_length_a   18.50097445
_cell_length_b   18.50091835
_cell_length_c   18.96649378
_cell_angle_alpha   119.18287537
_cell_angle_beta   119.18267536
_cell_angle_gamma   89.99643660
_symmetry_Int_Tables_number   1
_chemical_formula_structural   Zn4H8C30Cl4O13
_chemical_formula_sum   'Zn8 H16 C60 Cl8 O26'
_cell_volume   4701.74495552
_cell_formula_units_Z   2
loop_
 _symmetry_equiv_pos_site_id
 _symmetry_equiv_pos_as_xyz
  1  'x, y, z'
loop_
 _atom_site_type_symbol
 _atom_site_label
 _atom_site_symmetry_multiplicity
 _atom_site_fract_x
 _atom_site_fract_y
 _atom_site_fract_z
 _atom_site_occupancy
 _atom_site_pbe_bader_charge
 _atom_site_pbe_bader_spin_density
 _atom_site_pbe_cm5_charge
 _atom_site_pbe_ddec_charge
 _atom_site_pbe_ddec_spin_density
 _atom_site_pbe_ddec_sum_bond_order
 _atom_site_pbe_magmom
Zn  Zn0  1  0.54124981  0.12954882  0.08259069  1  1.295789  0  0.670589  0.967268  0  2.35645  0
Zn  Zn1  1  0.96390933  0.37230909  0.92787240  1  1.321935  0  0.670389  0.984196  0  2.310565  0
Zn  Zn2  1  0.55553092  0.96394269  0.92786306  1  1.320644  0  0.670401  0.984178  0  2.309847  0
Zn  Zn3  1  0.96394252  0.55553213  0.92786356  1  1.320644  0  0.670426  0.984191  0  2.309795  0
Zn  Zn4  1  0.37230815  0.96390844  0.92787085  1  1.321971  0  0.670369  0.984179  0  2.310662  0
Zn  Zn5  1  0.95294845  0.54126689  0.08256693  1  1.321717  0  0.670591  0.966974  0  2.356852  0
Zn  Zn6  1  0.54126355  0.95294824  0.08256499  1  1.321797  0  0.670601  0.967009  0  2.35677  0
Zn  Zn7  1  0.12954648  0.54125014  0.08258914  1  1.295754  0  0.670596  0.967266  0  2.356496  0
H  H8  1  0.76974553  0.27504114  0.14005805  1  0.084766  0  0.113783  0.118067  0  0.975206  0
H  H9  1  0.86502588  0.76986491  0.13997681  1  0.090668  0  0.113816  0.118263  0  0.974883  0
H  H10  1  0.37019779  0.86491710  0.14005767  1  0.101009  0  0.113715  0.118301  0  0.974589  0
H  H11  1  0.27500346  0.37017263  0.13997003  1  0.095603  0  0.113738  0.118544  0  0.97459  0
H  H12  1  0.76986357  0.86502631  0.13997720  1  0.09065  0  0.113815  0.118268  0  0.974865  0
H  H13  1  0.86491540  0.37019959  0.14005734  1  0.100993  0  0.113689  0.118285  0  0.974566  0
H  H14  1  0.37017259  0.27500574  0.13997062  1  0.095631  0  0.113731  0.118534  0  0.974544  0
H  H15  1  0.27503963  0.76974622  0.14005776  1  0.084754  0  0.113768  0.118079  0  0.975205  0
H  H16  1  0.48825884  0.06809068  0.65159790  1  0.09814  0  0.112429  0.12646  0  0.975557  0
H  H17  1  0.58354023  0.48824586  0.65156003  1  0.083708  0  0.112519  0.126542  0  0.975335  0
H  H18  1  0.16347346  0.58346309  0.65161764  1  0.076085  0  0.112235  0.125842  0  0.974845  0
H  H19  1  0.06817260  0.16346676  0.65153134  1  0.11075  0  0.112464  0.126349  0  0.974935  0
H  H20  1  0.48824855  0.58353926  0.65155952  1  0.083716  0  0.1125  0.126476  0  0.975344  0
H  H21  1  0.58346217  0.16347240  0.65161715  1  0.076076  0  0.112239  0.125863  0  0.974841  0
H  H22  1  0.16346545  0.06817071  0.65153041  1  0.110739  0  0.112457  0.126318  0  0.974918  0
H  H23  1  0.06808979  0.48825913  0.65159714  1  0.098132  0  0.112437  0.126472  0  0.97556  0
C  C24  1  0.37446288  0.87450086  0.74897786  1  1.640555  0  0.226083  0.658303  0  4.254495  0
C  C25  1  0.27743122  0.77745083  0.55483918  1  0.170013  0  -0.008443  0.027745  0  4.221756  0
C  C26  1  0.19949193  0.67827450  0.98574659  1  -0.009868  0  -0.005113  -0.045909  0  3.910334  0
C  C27  1  0.75216449  0.26606174  0.07183862  1  -0.031242  0  -0.077325  -0.086293  0  3.981576  0
C  C28  1  0.80580262  0.75226677  0.07175411  1  -0.069393  0  -0.077311  -0.086584  0  3.983398  0
C  C29  1  0.31958782  0.80570170  0.07182928  1  -0.018904  0  -0.076942  -0.086529  0  3.98296  0
C  C30  1  0.26600594  0.31954786  0.07174042  1  0.047822  0  -0.077268  -0.087396  0  3.9853  0
C  C31  1  0.75226561  0.80580309  0.07175394  1  0.052097  0  -0.077351  -0.086652  0  3.983275  0
C  C32  1  0.80570044  0.31958959  0.07182934  1  -0.018851  0  -0.076914  -0.086533  0  3.983076  0
C  C33  1  0.31954692  0.26600706  0.07174002  1  -0.073982  0  -0.07721  -0.087342  0  3.98528  0
C  C34  1  0.26606091  0.75216572  0.07183917  1  -0.031228  0  -0.077313  -0.086339  0  3.981674  0
C  C35  1  0.77744995  0.27743189  0.55484413  1  0.169947  0  -0.008421  0.02791  0  4.22189  0
C  C36  1  0.68369740  0.18366201  0.36753560  1  -0.118826  0  -0.009966  -0.147426  0  3.86251  0
C  C37  1  0.18366509  0.68369704  0.36753722  1  -0.11875  0  -0.009977  -0.147471  0  3.862429  0
C  C38  1  0.82196650  0.32194166  0.64388188  1  -0.217079  0  -0.007713  -0.132139  0  3.856144  0
C  C39  1  0.32194622  0.82197042  0.64388711  1  -0.217007  0  -0.007685  -0.13205  0  3.856004  0
C  C40  1  0.63119125  0.13119388  0.26258808  1  1.697056  0  0.234552  0.668905  0  4.246812  0
C  C41  1  0.13119463  0.63119245  0.26258709  1  1.696884  0  0.23465  0.668912  0  4.246665  0
C  C42  1  0.87450234  0.37446179  0.74897821  1  1.640623  0  0.226127  0.658351  0  4.254213  0
C  C43  1  0.36239987  0.14085193  0.99636237  1  1.575195  0  0.222258  0.599945  0  4.211326  0
C  C44  1  0.85547937  0.36240135  0.99640130  1  1.589672  0  0.22229  0.600142  0  4.211728  0
C  C45  1  0.63403912  0.85557951  0.99635704  1  1.567423  0  0.221784  0.600123  0  4.21231  0
C  C46  1  0.14085906  0.63399529  0.99644491  1  1.571013  0  0.221834  0.599704  0  4.212948  0
C  C47  1  0.36239787  0.85548070  0.99639985  1  1.589659  0  0.222237  0.599978  0  4.211912  0
C  C48  1  0.85557961  0.63404116  0.99635630  1  1.567335  0  0.221664  0.59992  0  4.212367  0
C  C49  1  0.63399429  0.14086197  0.99644689  1  1.57126  0  0.22186  0.59964  0  4.213018  0
C  C50  1  0.14084983  0.36239884  0.99636133  1  1.575281  0  0.222267  0.599928  0  4.211401  0
C  C51  1  0.57068754  0.12825744  0.80536104  1  0.021937  0  0.015479  0.099918  0  4.016992  0
C  C52  1  0.67709294  0.57067498  0.80532781  1  0.004589  0  0.016171  0.10002  0  4.017504  0
C  C53  1  0.23474466  0.67703271  0.80537928  1  0.0193  0  0.016223  0.099938  0  4.017047  0
C  C54  1  0.12830527  0.23471870  0.80528680  1  -0.028386  0  0.015647  0.100876  0  4.016958  0
C  C55  1  0.57067534  0.67709229  0.80532654  1  0.004636  0  0.016167  0.100397  0  4.017907  0
C  C56  1  0.67703228  0.23474386  0.80537809  1  0.019403  0  0.016264  0.099995  0  4.016954  0
C  C57  1  0.23471834  0.12830546  0.80528678  1  -0.0283  0  0.015618  0.100803  0  4.016959  0
C  C58  1  0.12825684  0.57068720  0.80536060  1  0.021924  0  0.015449  0.099846  0  4.017064  0
C  C59  1  0.72828098  0.22826039  0.45658464  1  -0.011034  0  -0.005515  0.037082  0  4.23002  0
C  C60  1  0.54952957  0.11595539  0.71888562  1  0.025496  0  -0.093113  -0.134001  0  4.032882  0
C  C61  1  0.60295869  0.54953077  0.71884768  1  0.120497  0  -0.093368  -0.133689  0  4.032535  0
C  C62  1  0.16942269  0.60291008  0.71889567  1  0.072147  0  -0.092992  -0.13202  0  4.031524  0
C  C63  1  0.11601491  0.16943677  0.71881003  1  0.131  0  -0.09306  -0.133518  0  4.032733  0
C  C64  1  0.54953218  0.60295713  0.71884705  1  -0.002121  0  -0.093268  -0.133437  0  4.032276  0
C  C65  1  0.60290936  0.16942255  0.71889488  1  0.072057  0  -0.09299  -0.132045  0  4.031486  0
C  C66  1  0.16943639  0.11601489  0.71881018  1  0.008241  0  -0.093042  -0.133452  0  4.032648  0
C  C67  1  0.22826381  0.72828365  0.45658516  1  -0.011162  0  -0.005544  0.037169  0  4.230176  0
C  C68  1  0.11595433  0.54952967  0.71888544  1  0.025496  0  -0.093128  -0.134023  0  4.032856  0
C  C69  1  0.70723278  0.24385676  0.89536719  1  0.072583  0  0.003768  0.013966  0  3.896215  0
C  C70  1  0.65153108  0.70728463  0.89531879  1  -0.024201  0  0.004172  0.013272  0  3.898211  0
C  C71  1  0.18808190  0.65149863  0.89536628  1  0.072823  0  0.004145  0.014263  0  3.89621  0
C  C72  1  0.24384107  0.18808475  0.89527586  1  0.079943  0  0.004385  0.013518  0  3.898416  0
C  C73  1  0.70728493  0.65153077  0.89531908  1  0.087008  0  0.004154  0.015242  0  3.896449  0
C  C74  1  0.65149850  0.18808364  0.89536708  1  0.07283  0  0.004088  0.014139  0  3.896252  0
C  C75  1  0.18808499  0.24384127  0.89527595  1  -0.030868  0  0.00438  0.013459  0  3.898423  0
C  C76  1  0.24385521  0.70723347  0.89536714  1  0.072577  0  0.003781  0.013943  0  3.896217  0
C  C77  1  0.67827304  0.19949315  0.98574668  1  -0.009946  0  -0.005089  -0.045837  0  3.910258  0
C  C78  1  0.78626567  0.67833524  0.98567067  1  0.020775  0  -0.005177  -0.045678  0  3.911119  0
C  C79  1  0.30742901  0.78618286  0.98573858  1  -0.024499  0  -0.004757  -0.044609  0  3.910154  0
C  C80  1  0.19946484  0.30739943  0.98565178  1  0.018279  0  -0.005278  -0.04423  0  3.910394  0
C  C81  1  0.67833433  0.78626606  0.98567091  1  0.021064  0  -0.005163  -0.045209  0  3.911383  0
C  C82  1  0.78618197  0.30743187  0.98573907  1  -0.024516  0  -0.00476  -0.044706  0  3.910318  0
C  C83  1  0.30739918  0.19946576  0.98565131  1  0.01839  0  -0.005274  -0.044233  0  3.91046  0
Cl  Cl84  1  0.48927063  0.07400909  0.79875687  1  -0.201863  0  0.004854  -0.066951  0  1.693162  0
Cl  Cl85  1  0.72475835  0.48926601  0.79876619  1  -0.198834  0  0.004644  -0.067276  0  1.69304  0
Cl  Cl86  1  0.30959261  0.72466093  0.79880374  1  -0.199481  0  0.004974  -0.066984  0  1.692649  0
Cl  Cl87  1  0.07402263  0.30952643  0.79869983  1  -0.194665  0  0.004839  -0.067501  0  1.692519  0
Cl  Cl88  1  0.48926799  0.72475970  0.79876370  1  -0.198816  0  0.004663  -0.067228  0  1.692986  0
Cl  Cl89  1  0.72466266  0.30958919  0.79880082  1  -0.199519  0  0.004936  -0.067021  0  1.692596  0
Cl  Cl90  1  0.30952414  0.07402032  0.79869722  1  -0.194653  0  0.004842  -0.067487  0  1.692505  0
Cl  Cl91  1  0.07400871  0.48927000  0.79875609  1  -0.201874  0  0.004866  -0.066919  0  1.693219  0
O  O92  1  0.50129596  0.00129931  0.00264102  1  -1.221343  0  -0.568265  -1.031888  0  2.484436  0
O  O93  1  0.89462378  0.45659895  0.78916543  1  -1.152065  0  -0.304855  -0.54123  0  2.340238  0
O  O94  1  0.33248714  0.89453085  0.78914374  1  -1.153747  0  -0.305044  -0.541443  0  2.339849  0
O  O95  1  0.89453185  0.33248629  0.78914338  1  -1.153796  0  -0.305078  -0.541504  0  2.339793  0
O  O96  1  0.61082664  0.17292316  0.22202801  1  -1.141346  0  -0.30433  -0.529772  0  2.270937  0
O  O97  1  0.04891435  0.61097873  0.22202507  1  -1.114188  0  -0.304297  -0.529615  0  2.270262  0
O  O98  1  0.61097433  0.04891376  0.22202375  1  -1.114287  0  -0.304259  -0.529655  0  2.270374  0
O  O99  1  0.17292278  0.61082909  0.22202686  1  -1.141283  0  -0.304352  -0.529765  0  2.271011  0
O  O100  1  0.00129776  0.50129745  0.00264105  1  -1.221323  0  -0.568269  -1.031888  0  2.484449  0
O  O101  1  0.32314006  0.06118461  0.95404729  1  -1.159875  0  -0.315281  -0.543747  0  2.343528  0
O  O102  1  0.89283128  0.32313008  0.95407526  1  -1.158441  0  -0.315489  -0.544031  0  2.343556  0
O  O103  1  0.63100151  0.89293042  0.95403224  1  -1.159516  0  -0.314847  -0.543685  0  2.343595  0
O  O104  1  0.06119170  0.63094496  0.95409461  1  -1.159656  0  -0.315453  -0.544114  0  2.34334  0
O  O105  1  0.32312489  0.89283120  0.95407121  1  -1.158596  0  -0.315411  -0.543958  0  2.343669  0
O  O106  1  0.89292773  0.63100064  0.95402821  1  -1.159465  0  -0.314835  -0.543632  0  2.343576  0
O  O107  1  0.63094328  0.06119247  0.95409518  1  -1.159806  0  -0.31547  -0.544128  0  2.343345  0
O  O108  1  0.06118520  0.32314045  0.95404732  1  -1.15992  0  -0.315283  -0.543733  0  2.343612  0
O  O109  1  0.60933418  0.87524188  0.05374240  1  -1.149416  0  -0.313418  -0.543043  0  2.33893  0
O  O110  1  0.17856516  0.60929946  0.05384210  1  -1.15194  0  -0.313258  -0.54261  0  2.339991  0
O  O111  1  0.44446774  0.17857339  0.05374797  1  -1.159246  0  -0.313413  -0.543098  0  2.33839  0
O  O112  1  0.87511562  0.44448215  0.05374455  1  -1.167418  0  -0.313618  -0.543178  0  2.338089  0
O  O113  1  0.60929946  0.17856732  0.05384363  1  -1.151958  0  -0.313234  -0.542507  0  2.34005  0
O  O114  1  0.17857174  0.44446881  0.05374777  1  -1.159252  0  -0.313402  -0.54306  0  2.338363  0
O  O115  1  0.44447673  0.87511734  0.05374173  1  -1.167324  0  -0.313598  -0.543103  0  2.338117  0
O  O116  1  0.87524691  0.60934025  0.05374704  1  -1.1493  0  -0.313323  -0.542912  0  2.33886  0
O  O117  1  0.45660033  0.89462174  0.78916607  1  -1.152124  0  -0.304865  -0.541263  0  2.340309  0
