# generated using pymatgen
data_MnH14C20NO7
_symmetry_space_group_name_H-M   'P 1'
_cell_length_a   6.77326372
_cell_length_b   9.86022190
_cell_length_c   13.18488395
_cell_angle_alpha   94.38019212
_cell_angle_beta   100.25832024
_cell_angle_gamma   96.35571951
_symmetry_Int_Tables_number   1
_chemical_formula_structural   MnH14C20NO7
_chemical_formula_sum   'Mn2 H28 C40 N2 O14'
_cell_volume   856.99572882
_cell_formula_units_Z   2
loop_
 _symmetry_equiv_pos_site_id
 _symmetry_equiv_pos_as_xyz
  1  'x, y, z'
loop_
 _atom_site_type_symbol
 _atom_site_label
 _atom_site_symmetry_multiplicity
 _atom_site_fract_x
 _atom_site_fract_y
 _atom_site_fract_z
 _atom_site_occupancy
 _atom_site_hle17_ddec_charge
 _atom_site_hle17_ddec_spin_density
 _atom_site_hle17_ddec_sum_bond_order
 _atom_site_hle17_magmom
 _atom_site_hse06_10hf_ddec_charge
 _atom_site_hse06_10hf_ddec_spin_density
 _atom_site_hse06_10hf_ddec_sum_bond_order
 _atom_site_hse06_10hf_magmom
 _atom_site_hse06_ddec_charge
 _atom_site_hse06_ddec_spin_density
 _atom_site_hse06_ddec_sum_bond_order
 _atom_site_hse06_magmom
 _atom_site_pbe_cm5_charge
 _atom_site_pbe_ddec_charge
 _atom_site_pbe_ddec_spin_density
 _atom_site_pbe_ddec_sum_bond_order
 _atom_site_pbe_magmom
Mn  Mn0  1  0.68592867  0.96075035  0.59507542  1  1.167611  4.800668  1.72225  4.668  1.007552  4.726418  2.207443  4.526  1.067341  4.771484  2.138109  4.592  0.612029  0.961447  4.678589  2.259928  4.458
Mn  Mn1  1  0.31407269  0.03924779  0.40492214  1  1.167529  4.800688  1.722258  4.668  1.007535  4.726435  2.207396  4.526  1.067321  4.771498  2.138069  4.592  0.612029  0.961436  4.678611  2.259852  4.458
H  H2  1  0.69002586  0.50888481  0.96150564  1  0.09771  -1.8e-05  0.957352  0.0  0.108427  3e-06  1.018646  0.0  0.111311  3e-06  1.017217  0.0  0.103802  0.10637  5e-06  1.019663  0.0
H  H3  1  0.30998265  0.49111949  0.03849747  1  0.097713  -3e-06  0.95728  0.0  0.108399  3e-06  1.018619  0.0  0.111282  3e-06  1.017191  0.0  0.103765  0.106342  5e-06  1.01963  0.0
H  H4  1  0.97832461  0.15666643  0.04609193  1  0.093124  -2.8e-05  0.962086  0.0  0.102614  -1.1e-05  1.025985  0.0  0.10589  -2.3e-05  1.023918  0.0  0.102009  0.100279  8e-06  1.027444  0.0
H  H5  1  0.02168201  0.84333582  0.95390861  1  0.09311  -2.8e-05  0.962026  0.0  0.102596  -1.1e-05  1.025939  0.0  0.105867  -2.3e-05  1.023876  0.0  0.101984  0.10026  8e-06  1.0274  0.0
H  H6  1  0.94786369  0.21109279  0.22962836  1  0.105913  -0.000311  0.958921  0.0  0.113919  -0.000392  1.024876  0.0  0.117459  -0.000395  1.022761  0.0  0.1058  0.111312  -0.000382  1.026512  0.0
H  H7  1  0.05214349  0.78890434  0.77037042  1  0.105895  -0.000306  0.958978  0.0  0.113891  -0.000392  1.024932  0.0  0.11743  -0.000395  1.022819  0.0  0.105767  0.111283  -0.000382  1.026561  0.0
H  H8  1  0.65216788  0.56176312  0.14344456  1  0.095499  1.5e-05  0.953177  0.0  0.105983  1.5e-05  1.015565  0.0  0.109126  1.2e-05  1.014071  0.0  0.101569  0.10369  1.9e-05  1.016807  0.0
H  H9  1  0.34783802  0.43823502  0.85655795  1  0.095447  8e-06  0.953203  0.0  0.105955  1.5e-05  1.015569  0.0  0.109097  1.2e-05  1.014077  0.0  0.101547  0.103662  1.9e-05  1.016811  0.0
H  H10  1  0.81707125  0.64568740  0.30443736  1  0.098263  -0.000279  0.950673  0.0  0.106345  -1.6e-05  1.018429  0.0  0.110407  -8.5e-05  1.01463  0.0  0.104772  0.103307  5.1e-05  1.021339  0.0
H  H11  1  0.18292714  0.35431072  0.69556600  1  0.098245  -0.00026  0.950689  0.0  0.106336  -1.6e-05  1.018429  0.0  0.110396  -8.5e-05  1.014633  0.0  0.104769  0.103301  5.1e-05  1.02134  0.0
H  H12  1  0.72195015  0.50785043  0.59496481  1  0.113408  -0.000301  0.935195  0.0  0.121599  -0.000127  0.997802  0.0  0.126004  -0.000205  0.994211  0.0  0.11049  0.118426  -4.9e-05  1.00036  0.0
H  H13  1  0.27802779  0.49214251  0.40503413  1  0.113457  -0.000295  0.935038  0.0  0.12166  -0.000127  0.997641  0.0  0.126042  -0.000205  0.994075  0.0  0.110527  0.11849  -4.9e-05  1.000202  0.0
H  H14  1  0.74583860  0.21252562  0.34217214  1  0.106358  -0.000834  0.958212  0.0  0.114073  -0.000724  1.024662  0.0  0.117463  -0.000775  1.02236  0.0  0.110469  0.111689  -0.000621  1.026209  0.0
H  H15  1  0.25416261  0.78747148  0.65783065  1  0.106405  -0.000846  0.958134  0.0  0.114107  -0.000724  1.02458  0.0  0.117495  -0.000775  1.022287  0.0  0.110469  0.11172  -0.000621  1.026131  0.0
H  H16  1  0.41545518  0.12562722  0.71321337  1  0.092272  0.000254  0.950006  0.0  0.098346  0.000949  1.016124  0.001  0.101606  0.000673  1.01266  0.001  0.122819  0.095713  0.001221  1.019045  0.001
H  H17  1  0.58454731  0.87437706  0.28678768  1  0.092257  0.000264  0.94996  0.0  0.098323  0.000949  1.016098  0.001  0.101591  0.000673  1.012625  0.001  0.122799  0.095683  0.001221  1.019019  0.001
H  H18  1  0.72684550  0.79576442  0.78009685  1  0.089071  0.000173  0.945438  0.0  0.098752  0.000658  1.006063  0.001  0.101218  0.000477  1.004139  0.001  0.124941  0.096802  0.000823  1.007721  0.001
H  H19  1  0.27316673  0.20424399  0.21990456  1  0.088953  0.000181  0.945501  0.0  0.098683  0.000658  1.006074  0.001  0.10115  0.000477  1.004145  0.001  0.124915  0.096735  0.000824  1.007735  0.001
H  H20  1  0.68116992  0.81508235  0.96249440  1  0.106208  0.000217  0.960529  0.0  0.117407  0.000216  1.019473  0.0  0.120473  0.000156  1.018443  0.0  0.110242  0.115145  0.000283  1.020505  0.0
H  H21  1  0.31883839  0.18492093  0.03750635  1  0.106303  0.000221  0.960391  0.0  0.117437  0.000216  1.019409  0.0  0.120505  0.000156  1.018376  0.0  0.110243  0.115173  0.000283  1.020442  0.0
H  H22  1  0.34402829  0.15568927  0.89056931  1  0.112491  0.000235  0.956313  0.0  0.123322  0.000228  1.014708  0.0  0.126749  0.000162  1.013245  0.0  0.110077  0.120774  0.000303  1.016109  0.0
H  H23  1  0.65597177  0.84430988  0.10943199  1  0.112481  0.000227  0.956324  0.0  0.123307  0.000228  1.014723  0.0  0.126741  0.000162  1.013242  0.0  0.110077  0.120756  0.000303  1.016127  0.0
H  H24  1  0.76149273  0.33720814  0.74271680  1  0.424656  -0.000126  0.871074  0.0  0.393526  -8.8e-05  0.941681  0.0  0.406222  -0.000113  0.923472  0.0  0.311215  0.384505  -4.5e-05  0.954624  0.0
H  H25  1  0.23849495  0.66278893  0.25728174  1  0.424713  -0.000128  0.871016  0.0  0.393564  -8.8e-05  0.941643  0.0  0.406261  -0.000112  0.923432  0.0  0.311225  0.384541  -4.5e-05  0.954589  0.0
H  H26  1  0.97295188  0.11234412  0.73838773  1  0.421256  8.4e-05  0.880014  0.001  0.390132  0.000839  0.945187  0.002  0.400797  0.000557  0.929725  0.002  0.292759  0.382773  0.001093  0.955801  0.002
H  H27  1  0.02704214  0.88766322  0.26160971  1  0.421269  8.3e-05  0.879986  0.001  0.390151  0.00084  0.945152  0.002  0.400815  0.000558  0.929692  0.002  0.292727  0.382794  0.001093  0.955762  0.002
H  H28  1  0.06486886  0.09739422  0.63472147  1  0.435314  -4.2e-05  0.865574  0.001  0.403691  0.000814  0.930615  0.002  0.414572  0.000471  0.914888  0.002  0.296442  0.396064  0.001129  0.941533  0.002
H  H29  1  0.93512010  0.90261003  0.36527533  1  0.435289  -4.2e-05  0.865624  0.001  0.403647  0.000815  0.930692  0.002  0.414529  0.000471  0.914964  0.002  0.296423  0.396015  0.001129  0.941616  0.002
C  C30  1  0.86293020  0.29744730  0.88383673  1  0.654892  -5.3e-05  3.837955  0.0  0.60295  -1.9e-05  4.140412  0.0  0.635822  -4.7e-05  4.13372  0.0  0.22942  0.580735  2.1e-05  4.144252  0.0
C  C31  1  0.13707190  0.70255495  0.11616113  1  0.65507  -6e-05  3.837944  0.0  0.60303  -2e-05  4.140415  0.0  0.635898  -4.7e-05  4.133728  0.0  0.22948  0.580815  2.1e-05  4.144254  0.0
C  C32  1  0.84031764  0.33080588  0.99258102  1  -0.096179  -0.000414  3.797418  0.0  -0.073228  -0.000151  4.033646  0.0  -0.083394  -0.000255  4.059396  0.0  -0.026105  -0.066604  -2.8e-05  4.016048  0.0
C  C33  1  0.15969234  0.66919843  0.00741843  1  -0.096405  -0.000416  3.797569  0.0  -0.073183  -0.000151  4.033506  0.0  -0.083343  -0.000257  4.059252  0.0  -0.026108  -0.066566  -2.8e-05  4.015916  0.0
C  C34  1  0.74695045  0.44445447  0.02067377  1  -0.061216  0.000256  3.746941  0.0  -0.087556  0.0001  3.998097  0.0  -0.086409  0.000124  4.019158  0.0  -0.085507  -0.088008  8.1e-05  3.983649  0.0
C  C35  1  0.25305636  0.55554880  0.97932761  1  -0.0611  0.000211  3.746827  0.0  -0.08751  0.000101  3.997949  0.0  -0.086364  0.000124  4.019011  0.0  -0.085449  -0.087952  8.1e-05  3.98349  0.0
C  C36  1  0.91066304  0.24679127  0.06870067  1  -0.063998  0.000226  3.752788  0.0  -0.089523  9.2e-05  4.002625  0.0  -0.088334  0.000112  4.023017  0.0  -0.084598  -0.08979  9.5e-05  3.988332  0.0
C  C37  1  0.08934676  0.75321201  0.93129946  1  -0.063891  0.000232  3.752752  0.0  -0.089518  9.3e-05  4.002541  0.0  -0.088326  0.000113  4.022936  0.0  -0.084582  -0.089788  9.5e-05  3.988255  0.0
C  C38  1  0.89181495  0.27695960  0.17101272  1  -0.113899  -0.000594  3.708797  0.0  -0.132293  -0.000351  3.95873  0.0  -0.136865  -0.000452  3.979301  0.0  -0.086046  -0.12932  -0.000285  3.944808  0.0
C  C39  1  0.10819412  0.72303958  0.82898862  1  -0.113892  -0.000627  3.708848  0.0  -0.132274  -0.00035  3.958738  0.0  -0.136846  -0.000456  3.979306  0.0  -0.086017  -0.129291  -0.000285  3.944812  0.0
C  C40  1  0.72816468  0.47457082  0.12294737  1  -0.120203  -0.000497  3.731569  0.0  -0.13853  -0.000169  3.982202  0.0  -0.143463  -0.000282  4.003312  0.0  -0.091255  -0.135333  -5.6e-05  3.967898  0.0
C  C41  1  0.27184288  0.52542835  0.87705383  1  -0.120211  -0.000454  3.731649  0.0  -0.138576  -0.000169  3.982272  0.0  -0.143511  -0.000284  4.003382  0.0  -0.091278  -0.135382  -5.6e-05  3.967974  0.0
C  C42  1  0.80207109  0.39232978  0.20014833  1  0.078176  0.00041  3.760204  0.0  0.08937  0.000187  3.990534  0.0  0.091918  0.000235  4.014506  0.0  0.002214  0.087825  0.000143  3.974237  0.0
C  C43  1  0.19793330  0.60766836  0.79985329  1  0.078156  0.000417  3.760362  0.0  0.0894  0.000186  3.990601  0.0  0.091951  0.000238  4.014566  0.0  0.002226  0.087843  0.000143  3.974316  0.0
C  C44  1  0.78273427  0.42501597  0.30880889  1  0.038586  -0.002976  3.767991  -0.002  0.058719  -0.00142  4.003059  -0.001  0.055225  -0.001967  4.026173  -0.001  -0.00501  0.060754  -0.001286  3.987359  -0.001
C  C45  1  0.21726824  0.57498012  0.69119244  1  0.038671  -0.002981  3.768079  -0.002  0.058779  -0.001421  4.003112  -0.001  0.055287  -0.001968  4.026224  -0.001  -0.00498  0.060813  -0.001286  3.987418  -0.001
C  C46  1  0.79089777  0.56113757  0.35103383  1  -0.072631  0.004689  3.650495  0.004  -0.109254  0.00527  3.899823  0.004  -0.105928  0.00434  3.916262  0.004  -0.069831  -0.111105  0.006075  3.888917  0.005
C  C47  1  0.20910063  0.43886055  0.64896952  1  -0.07265  0.004658  3.650546  0.004  -0.109284  0.005271  3.899884  0.004  -0.105958  0.004339  3.916323  0.004  -0.069856  -0.111134  0.006075  3.888977  0.005
C  C48  1  0.77127624  0.59073875  0.45403187  1  -0.073311  -0.004388  3.779096  -0.003  -0.046499  -0.003049  4.016056  -0.002  -0.056906  -0.003603  4.040682  -0.002  -0.017761  -0.040231  -0.002752  4.000266  -0.002
C  C49  1  0.22872159  0.40925630  0.54596973  1  -0.073408  -0.004401  3.778976  -0.003  -0.046562  -0.003047  4.015906  -0.002  -0.05697  -0.003604  4.040527  -0.002  -0.017802  -0.040291  -0.002752  4.000118  -0.002
C  C50  1  0.77396444  0.73430307  0.49933525  1  0.63999  0.005223  3.902578  0.003  0.58862  0.009636  4.191826  0.007  0.62229  0.007765  4.188351  0.005  0.210069  0.56575  0.011675  4.192585  0.008
C  C51  1  0.22603076  0.26569402  0.50066549  1  0.640003  0.005237  3.902579  0.003  0.588653  0.009634  4.19183  0.007  0.622324  0.007765  4.18836  0.005  0.210043  0.565779  0.011674  4.192594  0.008
C  C52  1  0.74069069  0.48398914  0.51557581  1  -0.045107  0.003558  3.686084  0.003  -0.08494  0.003793  3.936512  0.003  -0.081223  0.003172  3.955171  0.003  -0.067507  -0.08741  0.006176  3.924606  0.005
C  C53  1  0.25929945  0.51600486  0.48442505  1  -0.045015  0.003557  3.685915  0.003  -0.084879  0.003794  3.936344  0.003  -0.08115  0.003174  3.955017  0.003  -0.067476  -0.087356  0.006175  3.924452  0.005
C  C54  1  0.75376928  0.31932624  0.37204947  1  -0.06146  0.004145  3.643078  0.004  -0.100925  0.004446  3.895105  0.004  -0.097265  0.003636  3.911637  0.003  -0.065123  -0.103011  0.004844  3.883998  0.004
C  C55  1  0.24623210  0.68067189  0.62795264  1  -0.061634  0.004181  3.643105  0.004  -0.101078  0.004446  3.895121  0.004  -0.097419  0.003639  3.911647  0.003  -0.065171  -0.103157  0.004844  3.884008  0.004
C  C56  1  0.47121002  0.05945370  0.77160026  1  0.146569  0.005479  3.67725  0.005  0.113298  0.00824  3.935319  0.007  0.121641  0.007049  3.950677  0.006  0.056773  0.107349  0.009777  3.925732  0.008
C  C57  1  0.52879529  0.94054957  0.22840023  1  0.146495  0.005423  3.677112  0.005  0.113243  0.008242  3.935241  0.007  0.12158  0.007052  3.9506  0.006  0.056747  0.107299  0.009781  3.925639  0.008
C  C58  1  0.64727888  0.87611685  0.80930227  1  0.135406  0.005014  3.691606  0.005  0.106132  0.007535  3.940853  0.006  0.113319  0.006474  3.958919  0.005  0.05651  0.101072  0.009025  3.929093  0.007
C  C59  1  0.35272961  0.12388746  0.19069780  1  0.135521  0.004973  3.691599  0.005  0.106271  0.007536  3.940843  0.006  0.113459  0.006475  3.958913  0.005  0.056572  0.101202  0.009026  3.929087  0.007
C  C60  1  0.61959820  0.88755023  0.91111338  1  -0.149958  -0.002001  3.699122  -0.001  -0.1688  -0.000427  3.94646  0.0  -0.176438  -0.00156  3.967761  -0.001  -0.076445  -0.164088  0.000821  3.93277  0.001
C  C61  1  0.38040730  0.11245406  0.08888870  1  -0.150063  -0.001989  3.699031  -0.001  -0.168836  -0.000427  3.946414  0.0  -0.176475  -0.001563  3.967716  -0.001  -0.076472  -0.164121  0.00082  3.932723  0.001
C  C62  1  0.43499763  0.07628591  0.87189189  1  -0.145921  -0.00201  3.672396  -0.001  -0.164361  -0.00041  3.91958  0.0  -0.172067  -0.001501  3.93993  -0.001  -0.075763  -0.159601  0.00061  3.906713  0.001
C  C63  1  0.56500581  0.92371530  0.12810907  1  -0.145911  -0.001939  3.672435  -0.001  -0.164312  -0.000411  3.919654  0.0  -0.172015  -0.001503  3.94001  -0.001  -0.075775  -0.15955  0.000608  3.906785  0.001
C  C64  1  0.51388787  0.99126220  0.94564683  1  0.096743  0.003595  3.746232  0.003  0.107427  0.005479  3.977655  0.004  0.11149  0.004577  3.999571  0.004  0.016109  0.104562  0.007297  3.963131  0.005
C  C65  1  0.48611687  0.00873799  0.05435342  1  0.096762  0.003585  3.74613  0.003  0.10733  0.00548  3.977657  0.004  0.111392  0.004582  3.999578  0.004  0.016113  0.104456  0.0073  3.963139  0.005
C  C66  1  0.73067524  0.34827514  0.47433531  1  -0.081235  -0.004649  3.788386  -0.003  -0.054779  -0.003625  4.026555  -0.002  -0.06569  -0.004152  4.04985  -0.002  -0.018052  -0.047947  -0.002986  4.011722  -0.002
C  C67  1  0.26932108  0.65171991  0.52566464  1  -0.081087  -0.004653  3.788454  -0.003  -0.054672  -0.003628  4.026558  -0.002  -0.065578  -0.004153  4.049844  -0.002  -0.017953  -0.047839  -0.002986  4.011723  -0.002
C  C68  1  0.69091146  0.23462880  0.53856163  1  0.673826  0.009592  3.862881  0.009  0.617413  0.017371  4.154442  0.014  0.654104  0.012415  4.145925  0.011  0.226719  0.591322  0.023493  4.159997  0.019
C  C69  1  0.30907566  0.76536520  0.46143668  1  0.67386  0.009575  3.862871  0.009  0.617587  0.01737  4.15426  0.014  0.654274  0.012411  4.145735  0.011  0.22674  0.591494  0.023489  4.159815  0.019
N  N70  1  0.57830073  0.96222476  0.74059470  1  -0.338243  0.028775  3.252075  0.013  -0.266034  0.032245  3.53071  0.011  -0.286299  0.027647  3.544555  0.007  -0.326026  -0.25179  0.037255  3.521701  0.015
N  N71  1  0.42170495  0.03778056  0.25940670  1  -0.338083  0.0288  3.251785  0.013  -0.265995  0.032244  3.53056  0.011  -0.286265  0.027645  3.54441  0.007  -0.326014  -0.251747  0.037255  3.521536  0.015
O  O72  1  0.96337764  0.20651142  0.85852627  1  -0.589881  -0.000271  1.952706  0.0  -0.540691  -0.00015  2.172857  0.0  -0.562204  -0.000234  2.164643  0.0  -0.295271  -0.525967  -1.9e-05  2.178125  0.0
O  O73  1  0.03662126  0.79348979  0.14147049  1  -0.589986  -0.000258  1.952672  0.0  -0.540799  -0.00015  2.172872  0.0  -0.562317  -0.000233  2.164665  0.0  -0.295352  -0.526067  -1.9e-05  2.178122  0.0
O  O74  1  0.76478033  0.37337093  0.81760306  1  -0.558449  -0.000147  2.084237  0.0  -0.505551  -0.000129  2.293881  0.0  -0.527862  -0.000174  2.277527  0.0  -0.331424  -0.490035  -5e-05  2.304899  0.0
O  O75  1  0.23521709  0.62663027  0.18239584  1  -0.558525  -0.00014  2.084161  0.0  -0.50561  -0.000129  2.293841  0.0  -0.52792  -0.000173  2.277489  0.0  -0.331434  -0.490101  -5e-05  2.304878  0.0
O  O76  1  0.74057303  0.75227186  0.59184119  1  -0.641109  0.03483  1.998417  0.025  -0.576074  0.037835  2.253974  0.025  -0.608867  0.033057  2.246037  0.021  -0.313445  -0.551041  0.042584  2.257828  0.03
O  O77  1  0.25942536  0.24772626  0.40816140  1  -0.641077  0.034824  1.99854  0.025  -0.576038  0.037834  2.254069  0.025  -0.608834  0.033056  2.246134  0.021  -0.313455  -0.551001  0.042581  2.257918  0.03
O  O78  1  0.79764144  0.83608448  0.44653168  1  -0.646083  0.015886  1.977179  0.011  -0.580207  0.024027  2.208651  0.019  -0.607744  0.020517  2.197523  0.016  -0.300739  -0.559806  0.027406  2.215814  0.022
O  O79  1  0.20235320  0.16390953  0.55346882  1  -0.646013  0.015874  1.976972  0.011  -0.580253  0.024025  2.20855  0.019  -0.607784  0.020514  2.197414  0.016  -0.300704  -0.559866  0.027403  2.21575  0.022
O  O80  1  0.64101589  0.11162606  0.49112907  1  -0.690464  0.05337  2.110929  0.027  -0.609469  0.063539  2.397351  0.029  -0.644163  0.057893  2.380013  0.025  -0.311353  -0.58319  0.068336  2.4091  0.033
O  O81  1  0.35897873  0.88836796  0.50886840  1  -0.690535  0.053381  2.111125  0.027  -0.609482  0.063533  2.397326  0.029  -0.644204  0.057889  2.380058  0.025  -0.311336  -0.583214  0.068332  2.409082  0.033
O  O82  1  0.70313324  0.25600227  0.63487080  1  -0.634195  0.00922  2.041461  0.008  -0.581842  0.018288  2.282452  0.017  -0.606729  0.014461  2.271121  0.013  -0.298338  -0.564282  0.022175  2.290134  0.02
O  O83  1  0.29683550  0.74398962  0.36512574  1  -0.634303  0.009218  2.041286  0.008  -0.58201  0.018287  2.282227  0.017  -0.606893  0.01446  2.270893  0.013  -0.298408  -0.564443  0.022174  2.289904  0.02
O  O84  1  0.98261129  0.04666189  0.67902125  1  -0.839841  0.034019  1.876992  0.022  -0.77906  0.04303  2.081763  0.027  -0.804584  0.03835  2.047069  0.023  -0.571643  -0.759085  0.047137  2.105498  0.03
O  O85  1  0.01738501  0.95334135  0.32097919  1  -0.839777  0.034015  1.877052  0.022  -0.779013  0.043026  2.081838  0.027  -0.804534  0.038347  2.047146  0.023  -0.571569  -0.759042  0.047134  2.10557  0.03
