# generated using pymatgen
data_Co2H14C6Cl4O3
_symmetry_space_group_name_H-M   'P 1'
_cell_length_a   7.57945159
_cell_length_b   7.57964921
_cell_length_c   12.31666259
_cell_angle_alpha   103.29429696
_cell_angle_beta   103.31724039
_cell_angle_gamma   97.64749040
_symmetry_Int_Tables_number   1
_chemical_formula_structural   Co2H14C6Cl4O3
_chemical_formula_sum   'Co4 H28 C12 Cl8 O6'
_cell_volume   657.04963556
_cell_formula_units_Z   2
loop_
 _symmetry_equiv_pos_site_id
 _symmetry_equiv_pos_as_xyz
  1  'x, y, z'
loop_
 _atom_site_type_symbol
 _atom_site_label
 _atom_site_symmetry_multiplicity
 _atom_site_fract_x
 _atom_site_fract_y
 _atom_site_fract_z
 _atom_site_occupancy
 _atom_site_hle17_ddec_charge
 _atom_site_hle17_ddec_spin_density
 _atom_site_hle17_ddec_sum_bond_order
 _atom_site_hle17_magmom
 _atom_site_hse06_10hf_ddec_charge
 _atom_site_hse06_10hf_ddec_spin_density
 _atom_site_hse06_10hf_ddec_sum_bond_order
 _atom_site_hse06_10hf_magmom
 _atom_site_hse06_ddec_charge
 _atom_site_hse06_ddec_spin_density
 _atom_site_hse06_ddec_sum_bond_order
 _atom_site_hse06_magmom
 _atom_site_pbe_cm5_charge
 _atom_site_pbe_ddec_charge
 _atom_site_pbe_ddec_spin_density
 _atom_site_pbe_ddec_sum_bond_order
 _atom_site_pbe_magmom
Co  Co0  1  0.96538501  0.96535062  0.61195996  1  0.730631  -2.662756  2.354332  -2.409  0.721802  -2.688762  2.846441  -2.497  0.828103  -2.785905  2.749472  -2.62  0.388808  0.634389  -2.581456  2.922845  -2.369
Co  Co1  1  0.03477571  0.03467185  0.38811831  1  0.730684  2.662854  2.354207  2.409  0.721884  2.688815  2.8463  2.497  0.828201  2.785972  2.749376  2.62  0.388759  0.63452  2.581656  2.922613  2.369
Co  Co2  1  0.37345326  0.37345883  0.86553319  1  0.849576  -2.805995  2.064657  -2.534  0.840149  -2.823708  2.442028  -2.617  0.937732  -2.878187  2.358606  -2.705  0.514249  0.754756  -2.766421  2.515409  -2.531
Co  Co3  1  0.62673550  0.62658304  0.13452334  1  0.849582  2.805959  2.064789  2.534  0.840579  2.823726  2.442026  2.617  0.938079  2.878191  2.358688  2.705  0.514201  0.755059  2.766292  2.515604  2.531
H  H4  1  0.00713480  0.72191342  0.87011471  1  0.095841  -0.001219  0.935684  -0.002  0.112815  -0.000958  1.000178  -0.001  0.114152  -0.000563  0.998357  -0.001  0.095946  0.111855  -0.0014  1.001653  -0.002
H  H5  1  0.27714384  0.99193619  0.12941596  1  0.095527  0.00122  0.936088  0.002  0.112626  0.000961  1.000288  0.001  0.11392  0.000566  0.998527  0.001  0.095849  0.111677  0.001399  1.001747  0.002
H  H6  1  0.99263992  0.27768463  0.12994612  1  0.095579  0.00122  0.936354  0.002  0.112744  0.000956  1.000377  0.001  0.114075  0.000562  0.998569  0.001  0.096068  0.111784  0.001402  1.001855  0.002
H  H7  1  0.72199588  0.00727364  0.87021344  1  0.095726  -0.001215  0.936285  -0.002  0.11263  -0.000959  1.00075  -0.001  0.113958  -0.000563  0.998946  -0.001  0.095975  0.11168  -0.0014  1.002202  -0.002
H  H8  1  0.10143174  0.60463935  0.97509050  1  0.102017  -4.9e-05  0.946964  0.0  0.117997  -7.4e-05  1.013471  0.0  0.118231  -5.7e-05  1.013744  0.0  0.102376  0.117918  -9.2e-05  1.013168  0.0
H  H9  1  0.39461994  0.89787940  0.02454149  1  0.101592  4.7e-05  0.94754  0.0  0.117347  7.4e-05  1.014272  0.0  0.117566  5.7e-05  1.014554  0.0  0.10219  0.117282  9.4e-05  1.013933  0.0
H  H10  1  0.89820886  0.39457788  0.02480288  1  0.101845  4.8e-05  0.946998  0.0  0.117722  7.5e-05  1.013492  0.0  0.117962  5.8e-05  1.013756  0.0  0.102244  0.117628  9.4e-05  1.013211  0.0
H  H11  1  0.60477602  0.10151421  0.97517987  1  0.102008  -4.5e-05  0.946886  0.0  0.117877  -7.4e-05  1.013409  0.0  0.118113  -5.7e-05  1.013668  0.0  0.10237  0.117791  -9.2e-05  1.013119  0.0
H  H12  1  0.93197316  0.47676529  0.84279725  1  0.085147  -0.000144  0.948601  -0.001  0.100654  -5.5e-05  1.017972  0.0  0.101356  7.3e-05  1.017067  0.0  0.091003  0.100338  -0.00028  1.018668  -0.001
H  H13  1  0.52218453  0.06782521  0.15669986  1  0.085458  0.000142  0.948263  0.001  0.100775  5.2e-05  1.017648  0.0  0.101488  -7.4e-05  1.016704  0.0  0.090986  0.100467  0.000282  1.018339  0.001
H  H14  1  0.06793614  0.52273303  0.15692913  1  0.085179  0.000145  0.948254  0.001  0.100556  5.6e-05  1.017584  0.0  0.101255  -7.1e-05  1.01666  0.0  0.09085  0.100263  0.00028  1.01823  0.001
H  H15  1  0.47681481  0.93215548  0.84286476  1  0.08481  -0.000141  0.948439  -0.001  0.100297  -5.4e-05  1.01774  0.0  0.101006  7.3e-05  1.016821  0.0  0.09092  0.099997  -0.000281  1.018415  -0.001
H  H16  1  0.13247226  0.70959381  0.71047556  1  0.059878  -0.000914  0.959955  -0.001  0.068778  -0.001  1.034705  -0.001  0.067539  -0.000678  1.035033  -0.001  0.092962  0.069561  -0.001397  1.035029  -0.001
H  H17  1  0.29043296  0.86742031  0.28942270  1  0.059834  0.000915  0.960425  0.001  0.068671  0.000999  1.035075  0.001  0.067421  0.000677  1.035425  0.001  0.092949  0.069453  0.001392  1.035389  0.001
H  H18  1  0.86776093  0.29065723  0.28974412  1  0.059799  0.000912  0.959999  0.001  0.068672  0.000996  1.034821  0.001  0.06744  0.000675  1.035188  0.001  0.093  0.06945  0.001394  1.035142  0.001
H  H19  1  0.70978698  0.13282050  0.71062804  1  0.060061  -0.000912  0.959971  -0.001  0.068823  -0.000998  1.034631  -0.001  0.067563  -0.000676  1.034996  -0.001  0.092953  0.069606  -0.001394  1.034931  -0.001
H  H20  1  0.03762376  0.46691959  0.66172558  1  0.06681  -3.8e-05  0.941628  -0.001  0.077648  -1.1e-05  1.008959  0.0  0.078336  8.5e-05  1.008445  0.0  0.092965  0.077266  -0.000167  1.009337  -0.001
H  H21  1  0.53309495  0.96238961  0.33806841  1  0.066859  4.2e-05  0.941818  0.001  0.077591  1e-05  1.00908  0.0  0.07828  -8.6e-05  1.008557  0.0  0.092861  0.0772  0.000163  1.009466  0.001
H  H22  1  0.96257546  0.53334160  0.33824636  1  0.066546  3.9e-05  0.942247  0.001  0.077694  1e-05  1.009308  0.0  0.078398  -8.6e-05  1.008812  0.0  0.092973  0.077323  0.000166  1.009662  0.001
H  H23  1  0.46711614  0.03789908  0.66184574  1  0.067082  -3.9e-05  0.941994  -0.001  0.07797  -1.1e-05  1.008901  0.0  0.078672  8.5e-05  1.008366  0.0  0.092963  0.077557  -0.000167  1.009317  -0.001
H  H24  1  0.29630593  0.52756617  0.57693720  1  0.079889  -0.000842  0.936631  -0.002  0.094359  -0.000493  0.999553  -0.001  0.095978  -0.000326  0.997694  -0.001  0.096219  0.092994  -0.000651  1.001282  -0.001
H  H25  1  0.47271058  0.70384242  0.42308577  1  0.080042  0.000837  0.936688  0.002  0.094351  0.000491  0.999558  0.001  0.095957  0.000324  0.997682  0.001  0.096274  0.093  0.000649  1.001296  0.001
H  H26  1  0.70403527  0.47284678  0.42323278  1  0.079757  0.000843  0.937197  0.002  0.094233  0.000494  0.999999  0.001  0.095835  0.000327  0.998106  0.001  0.096184  0.092872  0.000649  1.001745  0.001
H  H27  1  0.52758844  0.29655634  0.57702188  1  0.07942  -0.000837  0.936723  -0.002  0.09394  -0.000492  0.999754  -0.001  0.095533  -0.000325  0.997951  -0.001  0.095919  0.092587  -0.00065  1.001475  -0.001
H  H28  1  0.44881465  0.65078834  0.71695581  1  0.06646  -3e-06  0.949984  0.0  0.078376  9.2e-05  1.019196  0.0  0.080237  0.000152  1.017014  0.0  0.094064  0.076697  1.9e-05  1.02143  0.0
H  H29  1  0.34948716  0.55120426  0.28310748  1  0.066024  -4e-06  0.950254  0.0  0.077822  -9.1e-05  1.019437  0.0  0.079662  -0.000151  1.017243  0.0  0.093809  0.076177  -2.2e-05  1.02164  0.0
H  H30  1  0.55141228  0.34947237  0.28327409  1  0.066033  3e-06  0.950052  0.0  0.077889  -9.1e-05  1.019257  0.0  0.07973  -0.000151  1.017049  0.0  0.093891  0.076259  -1.8e-05  1.02142  0.0
H  H31  1  0.65073894  0.44910312  0.71703469  1  0.06638  -2e-06  0.949991  0.0  0.078384  9.1e-05  1.019213  0.0  0.080237  0.000151  1.017037  0.0  0.094139  0.076739  2.1e-05  1.021399  0.0
C  C32  1  0.04977537  0.59341582  0.88277429  1  -0.079396  0.000448  3.606171  0.001  -0.176667  -0.000397  3.870934  0.0  -0.168669  -1e-05  3.875355  0.0  -0.14873  -0.182502  -0.000901  3.86722  0.0
C  C33  1  0.40583009  0.94968236  0.11683750  1  -0.079245  -0.000435  3.606543  -0.001  -0.175909  0.00041  3.87138  0.0  -0.167842  1.9e-05  3.875784  0.0  -0.148387  -0.181811  0.0009  3.867719  0.0
C  C34  1  0.95004122  0.40613371  0.11714758  1  -0.079235  -0.00045  3.606847  -0.001  -0.175913  0.000392  3.871481  0.0  -0.167876  3e-06  3.875846  0.0  -0.148548  -0.181787  0.000908  3.867867  0.0
C  C35  1  0.59352399  0.04991808  0.88286809  1  -0.07906  0.000428  3.606271  0.001  -0.175979  -0.000398  3.87095  0.0  -0.167998  -1e-05  3.875425  0.0  -0.148615  -0.181806  -0.000897  3.867209  0.0
C  C36  1  0.16100492  0.57210087  0.71375186  1  0.059352  -0.00047  3.611051  -0.001  0.001538  -0.001377  3.87406  -0.002  0.008757  -0.000974  3.883079  -0.002  -0.076978  -0.003499  -0.001871  3.866684  -0.002
C  C37  1  0.42794239  0.83896882  0.28614020  1  0.05902  0.000452  3.611834  0.001  0.001811  0.001368  3.873937  0.002  0.008999  0.000965  3.882935  0.002  -0.076784  -0.003217  0.001875  3.866601  0.002
C  C38  1  0.83916772  0.42809017  0.28635586  1  0.059922  0.000466  3.611401  0.001  0.001833  0.001382  3.874799  0.002  0.008936  0.000978  3.883929  0.002  -0.077049  -0.003161  0.001864  3.867393  0.002
C  C39  1  0.57224727  0.16127724  0.71387048  1  0.058506  -0.000473  3.611204  -0.001  0.001526  -0.001373  3.873158  -0.002  0.008787  -0.000967  3.882101  -0.002  -0.076756  -0.003514  -0.001869  3.865836  -0.002
C  C40  1  0.32735643  0.53999722  0.67040544  1  0.047841  0.001216  3.615437  0.002  -0.016548  0.000345  3.882424  0.001  -0.009905  0.000436  3.888033  0.001  -0.080926  -0.020994  0.000241  3.878215  0.001
C  C41  1  0.46021868  0.67270796  0.32961642  1  0.048195  -0.001194  3.615738  -0.002  -0.015563  -0.000342  3.882128  -0.001  -0.008814  -0.000434  3.887588  -0.001  -0.080598  -0.020109  -0.000246  3.878035  -0.001
C  C42  1  0.67290104  0.46029659  0.32976197  1  0.048497  -0.001214  3.616482  -0.002  -0.015353  -0.000346  3.883219  -0.001  -0.008549  -0.000439  3.88866  -0.001  -0.080608  -0.019844  -0.000239  3.879041  -0.001
C  C43  1  0.54003309  0.32759944  0.67049039  1  0.048977  0.001213  3.614319  0.002  -0.016314  0.000343  3.882372  0.001  -0.009601  0.000432  3.887819  0.001  -0.080591  -0.020792  0.000243  3.87817  0.001
Cl  Cl44  1  0.74861623  0.74879050  0.61935544  1  -0.489817  -0.098283  1.015254  -0.141  -0.480768  -0.073613  1.303117  -0.096  -0.522936  -0.054261  1.277158  -0.068  -0.273496  -0.448349  -0.089666  1.323179  -0.118
Cl  Cl45  1  0.25150531  0.25133133  0.38077432  1  -0.489702  0.098328  1.014864  0.141  -0.480867  0.073628  1.302799  0.096  -0.523024  0.054265  1.276809  0.068  -0.273556  -0.448447  0.089689  1.322849  0.118
Cl  Cl46  1  0.85102163  0.14899164  0.49997995  1  -0.41455  -5e-06  1.285157  0.0  -0.392566  -1.1e-05  1.611584  0.0  -0.435737  -1e-05  1.574153  0.0  -0.194546  -0.356975  -6e-06  1.6401  0.0
Cl  Cl47  1  0.14915536  0.85103784  0.50011053  1  -0.414572  1.2e-05  1.284995  0.0  -0.392623  3e-06  1.611412  0.0  -0.435824  -0.0  1.574055  0.0  -0.194547  -0.357036  -3e-06  1.639918  0.0
Cl  Cl48  1  0.63022255  0.63022951  0.94533331  1  -0.480063  -0.00241  1.179351  -0.003  -0.480688  -0.001966  1.48724  -0.004  -0.51962  -0.001016  1.457764  -0.003  -0.229264  -0.44834  -0.004644  1.511277  -0.007
Cl  Cl49  1  0.36990806  0.36987695  0.05472168  1  -0.479961  0.002365  1.179371  0.003  -0.48072  0.001947  1.487265  0.004  -0.519681  0.001002  1.457806  0.003  -0.229167  -0.448311  0.004611  1.511268  0.007
Cl  Cl50  1  0.11067081  0.11060582  0.79830988  1  -0.462658  -0.103259  1.199871  -0.153  -0.463127  -0.079068  1.515004  -0.103  -0.503363  -0.061071  1.478824  -0.076  -0.241427  -0.427769  -0.09668  1.54341  -0.129
Cl  Cl51  1  0.88944828  0.88943299  0.20176239  1  -0.462571  0.103275  1.199687  0.153  -0.463123  0.079062  1.514745  0.102  -0.503356  0.061061  1.478545  0.075  -0.241381  -0.427719  0.096694  1.543162  0.129
O  O52  1  0.20082679  0.56321029  0.83274152  1  -0.292178  -0.031278  2.447229  -0.051  -0.209933  -0.027308  2.707635  -0.043  -0.241162  -0.021258  2.715226  -0.032  -0.230277  -0.18411  -0.033655  2.700395  -0.053
O  O53  1  0.43666704  0.79898398  0.16713200  1  -0.291284  0.031235  2.446195  0.051  -0.209857  0.027274  2.707021  0.043  -0.24106  0.021234  2.714574  0.032  -0.230239  -0.184022  0.033605  2.699724  0.053
O  O54  1  0.79917168  0.43668700  0.16729385  1  -0.291971  0.03129  2.44687  0.051  -0.210509  0.027314  2.70788  0.043  -0.241714  0.021258  2.715484  0.032  -0.230196  -0.184692  0.033667  2.700714  0.053
O  O55  1  0.56334338  0.20102641  0.83284953  1  -0.29164  -0.031307  2.446835  -0.051  -0.20982  -0.027328  2.707167  -0.043  -0.241075  -0.021273  2.714754  -0.032  -0.230288  -0.184001  -0.033665  2.699928  -0.053
O  O56  1  0.36781004  0.36786805  0.69102253  1  -0.317245  -0.03007  2.411108  -0.052  -0.243234  -0.025039  2.675759  -0.042  -0.274293  -0.020687  2.685219  -0.034  -0.221999  -0.219155  -0.02844  2.667832  -0.047
O  O57  1  0.63241415  0.63235907  0.30906098  1  -0.317236  0.030049  2.412309  0.052  -0.24428  0.025031  2.676933  0.042  -0.275396  0.020684  2.686295  0.034  -0.221966  -0.220185  0.028425  2.669104  0.047
