# generated using pymatgen
data_ZnH14C14S2N2O5
_symmetry_space_group_name_H-M   'P 1'
_cell_length_a   6.25409016
_cell_length_b   8.52369469
_cell_length_c   15.70542090
_cell_angle_alpha   95.66895928
_cell_angle_beta   90.03626108
_cell_angle_gamma   111.54754736
_symmetry_Int_Tables_number   1
_chemical_formula_structural   ZnH14C14S2N2O5
_chemical_formula_sum   'Zn2 H28 C28 S4 N4 O10'
_cell_volume   774.28790592
_cell_formula_units_Z   2
loop_
 _symmetry_equiv_pos_site_id
 _symmetry_equiv_pos_as_xyz
  1  'x, y, z'
loop_
 _atom_site_type_symbol
 _atom_site_label
 _atom_site_symmetry_multiplicity
 _atom_site_fract_x
 _atom_site_fract_y
 _atom_site_fract_z
 _atom_site_occupancy
 _atom_site_hle17_bader_spin_density
 _atom_site_hle17_ddec_charge
 _atom_site_hle17_ddec_spin_density
 _atom_site_hle17_ddec_sum_bond_order
 _atom_site_hle17_magmom
 _atom_site_hse06_10hf_bader_spin_density
 _atom_site_hse06_10hf_ddec_charge
 _atom_site_hse06_10hf_ddec_spin_density
 _atom_site_hse06_10hf_ddec_sum_bond_order
 _atom_site_hse06_10hf_magmom
 _atom_site_hse06_bader_spin_density
 _atom_site_hse06_ddec_charge
 _atom_site_hse06_ddec_spin_density
 _atom_site_hse06_ddec_sum_bond_order
 _atom_site_hse06_magmom
 _atom_site_pbe_bader_spin_density
 _atom_site_pbe_cm5_charge
 _atom_site_pbe_ddec_charge
 _atom_site_pbe_ddec_spin_density
 _atom_site_pbe_ddec_sum_bond_order
 _atom_site_pbe_magmom
Zn  Zn0  1  0.53071992  0.99976912  0.74987690  1  0  1.034023  0  1.762859  0  0  0.853126  0  2.187666  0  0  0.903524  0  2.137206  0  0  0.679113  0.817918  0  2.221978  0
Zn  Zn1  1  0.46928289  0.00022712  0.25012524  1  0  1.033895  0  1.763081  0  0  0.852933  0  2.187881  0  0  0.903337  0  2.137421  0  0  0.679076  0.817723  0  2.222196  0
H  H2  1  0.98123755  0.03115662  0.70439542  1  0  0.446809  0  0.843369  0  0  0.415005  0  0.908179  0  0  0.42637  0  0.89138  0  0  0.299893  0.40693  0  0.920115  0
H  H3  1  0.94970248  0.96837207  0.79551416  1  0  0.446811  0  0.843403  0  0  0.415029  0  0.908119  0  0  0.426397  0  0.891311  0  0  0.299676  0.40694  0  0.920068  0
H  H4  1  0.01872271  0.96883452  0.29560136  1  0  0.44687  0  0.843276  0  0  0.415008  0  0.908205  0  0  0.426384  0  0.891391  0  0  0.29988  0.406934  0  0.920137  0
H  H5  1  0.05026768  0.03162923  0.20448761  1  0  0.446813  0  0.843384  0  0  0.415004  0  0.908147  0  0  0.426369  0  0.891341  0  0  0.299731  0.406931  0  0.92008  0
H  H6  1  0.13265477  0.58049721  0.85658075  1  0  0.113668  0  0.968744  0  0  0.125031  0  1.027938  0  0  0.127828  0  1.027857  0  0  0.107118  0.123028  0  1.028147  0
H  H7  1  0.55036553  0.41878723  0.64347622  1  0  0.112738  0  0.969039  0  0  0.124503  0  1.027951  0  0  0.12733  0  1.027805  0  0  0.10696  0.122447  0  1.028299  0
H  H8  1  0.86733898  0.41952566  0.14342216  1  0  0.11357  0  0.968831  0  0  0.125011  0  1.027923  0  0  0.1278  0  1.027863  0  0  0.107122  0.122975  0  1.028175  0
H  H9  1  0.44968132  0.58121403  0.35651026  1  0  0.112579  0  0.969101  0  0  0.124378  0  1.027933  0  0  0.12721  0  1.027784  0  0  0.106924  0.122308  0  1.028317  0
H  H10  1  0.97081434  0.29986103  0.77303736  1  0  0.083527  0  0.948145  0  0  0.093486  0  1.009661  0  0  0.096111  0  1.007033  0  0  0.116611  0.09151  0  1.01164  0
H  H11  1  0.66986890  0.69954575  0.72683588  1  0  0.084032  0  0.947668  0  0  0.093973  0  1.008991  0  0  0.096507  0  1.006463  0  0  0.116566  0.092019  0  1.010956  0
H  H12  1  0.02920687  0.70016563  0.22696002  1  0  0.083617  0  0.94808  0  0  0.093486  0  1.009679  0  0  0.096098  0  1.007069  0  0  0.116608  0.091513  0  1.011655  0
H  H13  1  0.33015447  0.30043403  0.27317302  1  0  0.084077  0  0.947774  0  0  0.094047  0  1.009062  0  0  0.096584  0  1.006526  0  0  0.116611  0.092099  0  1.011018  0
H  H14  1  0.30664237  0.23500310  0.84003953  1  0  0.084765  0  0.963658  0  0  0.08914  0  1.035715  0  0  0.092296  0  1.032395  0  0  0.113656  0.086845  0  1.038093  0
H  H15  1  0.07062755  0.76453897  0.65963051  1  0  0.084343  0  0.964239  0  0  0.089276  0  1.035621  0  0  0.092316  0  1.032392  0  0  0.113507  0.087062  0  1.03793  0
H  H16  1  0.69335851  0.76499568  0.15996401  1  0  0.084786  0  0.963633  0  0  0.089144  0  1.0357  0  0  0.0923  0  1.032378  0  0  0.113685  0.086852  0  1.038074  0
H  H17  1  0.92935243  0.23542435  0.34038899  1  0  0.084127  0  0.964385  0  0  0.089221  0  1.035568  0  0  0.092261  0  1.032338  0  0  0.113534  0.087002  0  1.037877  0
H  H18  1  0.43604303  0.51671461  0.92567406  1  0  0.103672  0  0.974226  0  0  0.110414  0  1.043781  0  0  0.113902  0  1.042522  0  0  0.099474  0.107904  0  1.044908  0
H  H19  1  0.91754322  0.48258983  0.57419266  1  0  0.103493  0  0.97364  0  0  0.110689  0  1.042815  0  0  0.114155  0  1.04165  0  0  0.099355  0.108187  0  1.043898  0
H  H20  1  0.56395528  0.48328543  0.07432828  1  0  0.103724  0  0.974307  0  0  0.110497  0  1.043813  0  0  0.11399  0  1.04254  0  0  0.099523  0.107974  0  1.044972  0
H  H21  1  0.08249510  0.51739115  0.42579911  1  0  0.103528  0  0.973736  0  0  0.110729  0  1.042888  0  0  0.114192  0  1.041724  0  0  0.099394  0.108224  0  1.043966  0
H  H22  1  0.25709940  0.93107163  0.02549963  1  0  0.155221  0  0.948479  0  0  0.165608  0  1.009951  0  0  0.169333  0  1.007912  0  0  0.111112  0.162946  0  1.011525  0
H  H23  1  0.32499806  0.06892541  0.47445233  1  0  0.15426  0  0.949309  0  0  0.16532  0  1.010164  0  0  0.169061  0  1.008147  0  0  0.110886  0.162612  0  1.011765  0
H  H24  1  0.74286997  0.06895372  0.97449004  1  0  0.155107  0  0.948435  0  0  0.165541  0  1.009885  0  0  0.169268  0  1.007838  0  0  0.111074  0.162875  0  1.011456  0
H  H25  1  0.67507568  0.93108478  0.52554735  1  0  0.15408  0  0.94934  0  0  0.165143  0  1.010229  0  0  0.168883  0  1.00822  0  0  0.11085  0.162449  0  1.011821  0
H  H26  1  0.25296950  0.72614089  0.99101479  1  0  0.120037  0  0.94116  0  0  0.131279  0  1.005288  0  0  0.1329  0  1.005645  0  0  0.1  0.130161  0  1.005138  0
H  H27  1  0.52511861  0.27413232  0.50897952  1  0  0.119737  0  0.941238  0  0  0.130899  0  1.005822  0  0  0.1326  0  1.006137  0  0  0.099709  0.129722  0  1.005679  0
H  H28  1  0.74700345  0.27388833  0.00899228  1  0  0.120039  0  0.941075  0  0  0.131252  0  1.005267  0  0  0.132873  0  1.00563  0  0  0.100011  0.130132  0  1.005109  0
H  H29  1  0.47493288  0.72585890  0.49103571  1  0  0.119819  0  0.941195  0  0  0.130952  0  1.0058  0  0  0.132657  0  1.006131  0  0  0.099821  0.129788  0  1.005642  0
C  C30  1  0.79899965  0.57181734  0.90342268  1  0  0.085851  0  3.792147  0  0  0.099723  0  4.048949  0  0  0.108746  0  4.067636  0  0  0.008139  0.093724  0  4.036212  0
C  C31  1  0.22533126  0.42744116  0.59652803  1  0  0.085716  0  3.79114  0  0  0.100134  0  4.047392  0  0  0.109173  0  4.066039  0  0  0.007993  0.094131  0  4.034682  0
C  C32  1  0.20099794  0.42820045  0.09657805  1  0  0.0859  0  3.792002  0  0  0.099851  0  4.048705  0  0  0.108866  0  4.067407  0  0  0.00822  0.09385  0  4.035968  0
C  C33  1  0.77471694  0.57254361  0.40345821  1  0  0.085723  0  3.790808  0  0  0.100104  0  4.047084  0  0  0.109142  0  4.065725  0  0  0.007898  0.094101  0  4.034369  0
C  C34  1  0.94827662  0.50977100  0.85642626  1  0  -0.183707  0  3.727457  0  0  -0.202503  0  3.978699  0  0  -0.211841  0  4.000121  0  0  -0.098536  -0.19652  0  3.964429  0
C  C35  1  0.43682111  0.48953461  0.64356161  1  0  -0.182359  0  3.727251  0  0  -0.201533  0  3.978075  0  0  -0.210868  0  3.99949  0  0  -0.09783  -0.195552  0  3.963783  0
C  C36  1  0.05171937  0.49024679  0.14357447  1  0  -0.183635  0  3.727633  0  0  -0.202487  0  3.978781  0  0  -0.211823  0  4.000191  0  0  -0.098556  -0.196482  0  3.96454  0
C  C37  1  0.56321844  0.51046160  0.35643352  1  0  -0.182149  0  3.727058  0  0  -0.201263  0  3.977896  0  0  -0.210599  0  3.999306  0  0  -0.097745  -0.195291  0  3.963602  0
C  C38  1  0.85882400  0.35235618  0.80874453  1  0  0.140675  0  3.709701  0  0  0.10941  0  3.960077  0  0  0.118506  0  3.976722  0  0  0.04319  0.103491  0  3.948747  0
C  C39  1  0.50526347  0.64711962  0.69109139  1  0  0.140173  0  3.710095  0  0  0.109262  0  3.960851  0  0  0.118405  0  3.977545  0  0  0.043424  0.103343  0  3.94947  0
C  C40  1  0.14118769  0.64765782  0.19125918  1  0  0.140533  0  3.709941  0  0  0.109334  0  3.960333  0  0  0.118442  0  3.97697  0  0  0.043076  0.10341  0  3.948998  0
C  C41  1  0.49475595  0.35287788  0.30891017  1  0  0.140113  0  3.710694  0  0  0.109066  0  3.961422  0  0  0.118208  0  3.978122  0  0  0.043268  0.103141  0  3.950038  0
C  C42  1  0.48789688  0.31674072  0.84526099  1  0  0.132417  0  3.718342  0  0  0.098884  0  3.973366  0  0  0.107892  0  3.990056  0  0  0.039229  0.092962  0  3.962086  0
C  C43  1  0.16991669  0.68271288  0.65452557  1  0  0.131604  0  3.718612  0  0  0.098102  0  3.973582  0  0  0.107216  0  3.99027  0  0  0.039099  0.092116  0  3.962297  0
C  C44  1  0.51210488  0.68327580  0.15474095  1  0  0.13262  0  3.718409  0  0  0.099093  0  3.973455  0  0  0.108106  0  3.99014  0  0  0.039274  0.093174  0  3.962164  0
C  C45  1  0.83006739  0.31724912  0.34547857  1  0  0.13229  0  3.718659  0  0  0.09861  0  3.973644  0  0  0.107727  0  3.990326  0  0  0.039219  0.092624  0  3.962354  0
C  C46  1  0.56169973  0.47347672  0.89349060  1  0  -0.191156  0  3.753152  0  0  -0.208075  0  4.008242  0  0  -0.217108  0  4.027757  0  0  -0.098935  -0.202344  0  3.995398  0
C  C47  1  0.08661857  0.52587934  0.60635534  1  0  -0.190854  0  3.752386  0  0  -0.208492  0  4.007419  0  0  -0.217557  0  4.026944  0  0  -0.09909  -0.202718  0  3.994503  0
C  C48  1  0.43830367  0.52653348  0.10651482  1  0  -0.191308  0  3.753223  0  0  -0.208323  0  4.008385  0  0  -0.217353  0  4.027899  0  0  -0.09902  -0.202589  0  3.995535  0
C  C49  1  0.91341815  0.47409529  0.39363228  1  0  -0.191329  0  3.753032  0  0  -0.209011  0  4.008203  0  0  -0.218082  0  4.02774  0  0  -0.099267  -0.203224  0  3.99527  0
C  C50  1  0.19347010  0.82554270  0.97376951  1  0  -0.328215  0  3.652905  0  0  -0.357479  0  3.905183  0  0  -0.362439  0  3.910217  0  0  -0.158553  -0.354252  0  3.901768  0
C  C51  1  0.36657679  0.17433125  0.52622094  1  0  -0.326892  0  3.654127  0  0  -0.357134  0  3.906936  0  0  -0.362298  0  3.912282  0  0  -0.157669  -0.353692  0  3.903235  0
C  C52  1  0.80650510  0.17447509  0.02623187  1  0  -0.327904  0  3.652659  0  0  -0.357327  0  3.905267  0  0  -0.362289  0  3.910303  0  0  -0.158411  -0.354074  0  3.901803  0
C  C53  1  0.63346854  0.82566372  0.47377984  1  0  -0.326839  0  3.653551  0  0  -0.357026  0  3.906402  0  0  -0.362211  0  3.911746  0  0  -0.157775  -0.35363  0  3.902757  0
C  C54  1  0.29825681  0.89202241  0.89071786  1  0  0.685388  0  3.899808  0  0  0.637698  0  4.2003  0  0  0.670514  0  4.194236  0  0  0.192273  0.615556  0  4.203498  0
C  C55  1  0.40579321  0.10795697  0.60918410  1  0  0.686494  0  3.899709  0  0  0.638721  0  4.200463  0  0  0.671595  0  4.194389  0  0  0.192519  0.616532  0  4.20366  0
C  C56  1  0.70169860  0.10798140  0.10927832  1  0  0.685108  0  3.899911  0  0  0.637383  0  4.200478  0  0  0.670197  0  4.194418  0  0  0.19191  0.615242  0  4.203672  0
C  C57  1  0.59418880  0.89204562  0.39082347  1  0  0.686568  0  3.899417  0  0  0.638716  0  4.200296  0  0  0.67159  0  4.19422  0  0  0.192578  0.616543  0  4.203482  0
S  S58  1  0.88573632  0.75518355  0.97450206  1  0  0.092905  0  2.459155  0  0  0.091461  0  2.797564  0  0  0.086632  0  2.797815  0  0  0.051203  0.095224  0  2.797291  0
S  S59  1  0.12856133  0.24389890  0.52556890  1  0  0.093052  0  2.46086  0  0  0.091413  0  2.80001  0  0  0.086672  0  2.800316  0  0  0.051211  0.095115  0  2.79963  0
S  S60  1  0.11424178  0.24483043  0.02549975  1  0  0.092847  0  2.459086  0  0  0.091392  0  2.797542  0  0  0.086566  0  2.797802  0  0  0.051181  0.095153  0  2.797249  0
S  S61  1  0.87149762  0.75610104  0.47440477  1  0  0.093074  0  2.460487  0  0  0.091493  0  2.799579  0  0  0.08676  0  2.79989  0  0  0.051258  0.095206  0  2.79922  0
N  N62  1  0.63367378  0.25320287  0.80486669  1  0  -0.337269  0  3.281742  0  0  -0.254533  0  3.541992  0  0  -0.274361  0  3.557947  0  0  -0.333167  -0.241217  0  3.531032  0
N  N63  1  0.37948111  0.74634246  0.69488321  1  0  -0.336136  0  3.281496  0  0  -0.25427  0  3.542486  0  0  -0.274041  0  3.558309  0  0  -0.333086  -0.240994  0  3.531602  0
N  N64  1  0.36633250  0.74680986  0.19513950  1  0  -0.337295  0  3.282039  0  0  -0.254544  0  3.542221  0  0  -0.27437  0  3.558162  0  0  -0.333122  -0.241228  0  3.531268  0
N  N65  1  0.62050228  0.25363095  0.30512027  1  0  -0.336316  0  3.281654  0  0  -0.2542  0  3.542447  0  0  -0.273972  0  3.558264  0  0  -0.332979  -0.240923  0  3.531566  0
O  O66  1  0.18527342  0.93921155  0.83868710  1  0  -0.667647  0  2.04196  0  0  -0.607734  0  2.283619  0  0  -0.634927  0  2.274755  0  0  -0.318919  -0.58872  0  2.289119  0
O  O67  1  0.24616337  0.06079002  0.66139920  1  0  -0.668173  0  2.042164  0  0  -0.608443  0  2.284245  0  0  -0.635578  0  2.275205  0  0  -0.319087  -0.589419  0  2.289786  0
O  O68  1  0.81466822  0.06080625  0.16131746  1  0  -0.667351  0  2.04205  0  0  -0.607292  0  2.283567  0  0  -0.634474  0  2.274704  0  0  -0.318579  -0.588284  0  2.28907  0
O  O69  1  0.75377610  0.93918839  0.33858481  1  0  -0.668153  0  2.042136  0  0  -0.60833  0  2.284213  0  0  -0.635511  0  2.275264  0  0  -0.319021  -0.589298  0  2.289733  0
O  O70  1  0.50253170  0.89903723  0.87809378  1  0  -0.634644  0  1.96929  0  0  -0.5767  0  2.213912  0  0  -0.604997  0  2.206739  0  0  -0.324763  -0.556887  0  2.217988  0
O  O71  1  0.60313786  0.10091933  0.62155693  1  0  -0.635204  0  1.969379  0  0  -0.576678  0  2.213025  0  0  -0.605072  0  2.206107  0  0  -0.324745  -0.556862  0  2.21706  0
O  O72  1  0.49741064  0.10095007  0.12189516  1  0  -0.634692  0  1.96901  0  0  -0.576754  0  2.213684  0  0  -0.605057  0  2.206518  0  0  -0.324802  -0.55692  0  2.217706  0
O  O73  1  0.39683501  0.89906809  0.37846576  1  0  -0.635181  0  1.969127  0  0  -0.57682  0  2.213098  0  0  -0.605205  0  2.206181  0  0  -0.324837  -0.557005  0  2.21712  0
O  O74  1  0.86815088  0.99961999  0.74988126  1  0  -0.839171  0  1.909629  0  0  -0.774  0  2.116842  0  0  -0.794865  0  2.079834  0  0  -0.577559  -0.759239  0  2.142624  0
O  O75  1  0.13182440  0.00037877  0.25011783  1  0  -0.839241  0  1.909572  0  0  -0.774025  0  2.116764  0  0  -0.794891  0  2.079748  0  0  -0.577586  -0.759285  0  2.142508  0
