# generated using pymatgen
data_CoH12C12S2(NO)10
_symmetry_space_group_name_H-M   'P 1'
_cell_length_a   6.81988248
_cell_length_b   8.60277189
_cell_length_c   9.90213236
_cell_angle_alpha   64.75596205
_cell_angle_beta   73.60800094
_cell_angle_gamma   82.72528222
_symmetry_Int_Tables_number   1
_chemical_formula_structural   CoH12C12S2(NO)10
_chemical_formula_sum   'Co1 H12 C12 S2 N10 O10'
_cell_volume   504.10341393
_cell_formula_units_Z   1
loop_
 _symmetry_equiv_pos_site_id
 _symmetry_equiv_pos_as_xyz
  1  'x, y, z'
loop_
 _atom_site_type_symbol
 _atom_site_label
 _atom_site_symmetry_multiplicity
 _atom_site_fract_x
 _atom_site_fract_y
 _atom_site_fract_z
 _atom_site_occupancy
 _atom_site_hle17_ddec_charge
 _atom_site_hle17_ddec_spin_density
 _atom_site_hle17_ddec_sum_bond_order
 _atom_site_hle17_magmom
 _atom_site_hse06_10hf_ddec_charge
 _atom_site_hse06_10hf_ddec_spin_density
 _atom_site_hse06_10hf_ddec_sum_bond_order
 _atom_site_hse06_10hf_magmom
 _atom_site_hse06_ddec_charge
 _atom_site_hse06_ddec_spin_density
 _atom_site_hse06_ddec_sum_bond_order
 _atom_site_hse06_magmom
 _atom_site_pbe_cm5_charge
 _atom_site_pbe_ddec_charge
 _atom_site_pbe_ddec_spin_density
 _atom_site_pbe_ddec_sum_bond_order
 _atom_site_pbe_magmom
Co  Co0  1  0.49999492  0.99999979  0.50000293  1  0.619945  1.071441  2.571969  0.97  0.597616  1.011677  2.996131  0.934  0.654656  1.022235  2.935998  0.957  0.689964  0.564123  0.990207  3.034942  0.898
H  H1  1  0.21060503  0.31102589  0.51756339  1  0.126223  1e-05  0.949341  0.001  0.129183  -0.000165  1.019015  0.0  0.13261  -0.000103  1.013729  0.0  0.14541  0.126396  -0.000208  1.023576  0.0
H  H2  1  0.78939009  0.68897357  0.48243534  1  0.126222  1e-05  0.949257  0.001  0.129184  -0.000165  1.018928  0.0  0.132601  -0.000103  1.013668  0.0  0.145408  0.12639  -0.000208  1.023511  0.0
H  H3  1  0.41221708  0.88250305  0.86612401  1  0.114271  -6e-06  0.950262  0.0  0.121521  -2.3e-05  1.011447  0.0  0.123479  -2.7e-05  1.010815  0.0  0.126524  0.120061  -7e-06  1.012067  0.0
H  H4  1  0.58777800  0.11750027  0.13387228  1  0.114246  -6e-06  0.950238  0.0  0.121494  -2.3e-05  1.011439  0.0  0.123452  -2.7e-05  1.010804  0.0  0.126508  0.120034  -7e-06  1.012058  0.0
H  H5  1  0.17374888  0.09039342  0.00070053  1  0.135638  -0.000242  0.98714  0.0  0.132315  -2.8e-05  1.064342  0.0  0.136848  -3.9e-05  1.060686  0.0  0.124171  0.128482  4.4e-05  1.067828  0.0
H  H6  1  0.82624930  0.90960608  0.99929765  1  0.135613  -0.000241  0.987161  0.0  0.132306  -2.8e-05  1.064354  0.0  0.13684  -3.9e-05  1.060696  0.0  0.124164  0.128471  4.4e-05  1.067838  0.0
H  H7  1  0.14547724  0.76389780  0.54389791  1  0.123199  3.8e-05  0.967483  0.0  0.119634  -6.9e-05  1.047411  0.0  0.123945  -5.5e-05  1.040916  0.0  0.141612  0.116307  -7.3e-05  1.052327  0.0
H  H8  1  0.85452709  0.23609791  0.45610160  1  0.123251  3.8e-05  0.967479  0.0  0.119695  -6.9e-05  1.047386  0.0  0.124006  -5.5e-05  1.040892  0.0  0.141642  0.116366  -7.3e-05  1.052306  0.0
H  H9  1  0.60331146  0.67284538  0.78344467  1  0.114272  -7e-05  0.999195  0.0  0.112677  -8.8e-05  1.074446  0.0  0.116354  -7.6e-05  1.071193  0.0  0.119426  0.109915  -0.000102  1.076981  0.0
H  H10  1  0.39668949  0.32715545  0.21655859  1  0.114288  -7.1e-05  0.999226  0.0  0.112703  -8.8e-05  1.074454  0.0  0.116379  -7.6e-05  1.071203  0.0  0.119436  0.109942  -0.000102  1.076987  0.0
H  H11  1  0.34771051  0.38790449  0.93023595  1  0.135148  -5.8e-05  0.954887  0.0  0.143298  8e-05  1.015463  0.0  0.146171  3.7e-05  1.01362  0.0  0.130754  0.141232  0.000141  1.0168  0.0
H  H12  1  0.65228877  0.61209506  0.06977212  1  0.135194  -5.8e-05  0.954894  0.0  0.143378  7.9e-05  1.015423  0.0  0.146253  3.7e-05  1.013576  0.0  0.13076  0.141311  0.000141  1.01676  0.0
C  C13  1  0.23893527  0.22255697  0.62714334  1  0.22178  -0.019153  3.546921  -0.013  0.158973  -0.006914  3.822648  -0.004  0.17935  -0.005161  3.828629  -0.003  0.157207  0.144566  -0.008246  3.819999  -0.005
C  C14  1  0.76106299  0.77744252  0.37285281  1  0.221723  -0.019135  3.546804  -0.012  0.158908  -0.006908  3.822551  -0.004  0.179284  -0.005159  3.828529  -0.003  0.157191  0.144497  -0.008242  3.819894  -0.005
C  C15  1  0.33714172  0.00322736  0.81295626  1  0.037177  -0.005511  3.646077  -0.004  0.001752  -0.001881  3.916005  -0.001  0.005122  -0.001863  3.934881  -0.001  0.011102  -0.000505  -0.001834  3.90357  -0.001
C  C16  1  0.66286098  0.99677476  0.18704015  1  0.037163  -0.005498  3.64602  -0.004  0.001717  -0.001881  3.915978  -0.001  0.005086  -0.001865  3.934856  -0.001  0.011112  -0.00054  -0.001834  3.903536  -0.001
C  C17  1  0.21749108  0.10110527  0.88266321  1  -0.0222  0.002935  3.623099  0.004  -0.060445  0.00059  3.88722  0.001  -0.059137  0.000541  3.903964  0.001  0.008703  -0.061107  0.000665  3.876557  0.001
C  C18  1  0.78250866  0.89889295  0.11733517  1  -0.02216  0.002928  3.623013  0.004  -0.06041  0.000589  3.88712  0.001  -0.059101  0.000541  3.903865  0.001  0.00871  -0.061069  0.000664  3.876453  0.001
C  C19  1  0.23529325  0.70417828  0.62807258  1  0.226371  -0.011639  3.546576  -0.008  0.160215  -0.004923  3.824681  -0.003  0.180027  -0.003832  3.830851  -0.002  0.158409  0.146692  -0.005647  3.821032  -0.004
C  C20  1  0.76471097  0.29581873  0.37192850  1  0.226351  -0.011628  3.546572  -0.008  0.160183  -0.004921  3.824667  -0.003  0.179993  -0.003831  3.830836  -0.002  0.158397  0.146647  -0.005645  3.821011  -0.004
C  C21  1  0.46928333  0.64849703  0.75705727  1  0.006034  -0.004132  3.67013  -0.003  -0.024737  -0.001797  3.940177  -0.001  -0.022287  -0.001699  3.957774  -0.001  0.002947  -0.026311  -0.001786  3.928623  -0.001
C  C22  1  0.53071615  0.35150506  0.24294376  1  0.005974  -0.004123  3.67022  -0.003  -0.024814  -0.001797  3.940293  -0.001  -0.022364  -0.001698  3.957892  -0.001  0.00292  -0.026402  -0.001786  3.928732  -0.001
C  C23  1  0.34866063  0.50660213  0.82873815  1  7.9e-05  0.001453  3.608727  0.002  -0.042496  0.000234  3.866367  0.0  -0.039229  0.000258  3.882959  0.0  0.007882  -0.044565  0.000244  3.855111  0.0
C  C24  1  0.65133879  0.49339869  0.17126538  1  2.7e-05  0.001448  3.608861  0.002  -0.042588  0.000234  3.866503  0.0  -0.03932  0.000258  3.883093  0.0  0.007858  -0.044655  0.000244  3.855247  0.0
S  S25  1  0.01341937  0.40802800  0.78296643  1  1.326975  -0.000968  5.376031  0.0  1.198829  -0.000488  5.90312  0.0  1.249782  -0.000212  5.886332  0.0  0.711066  1.163506  -0.00078  5.914493  0.0
S  S26  1  0.98658172  0.59197411  0.21703229  1  1.326924  -0.000967  5.376432  0.0  1.198887  -0.000488  5.903448  0.0  1.249823  -0.000214  5.886668  0.0  0.711098  1.163553  -0.00078  5.914824  0.0
N  N27  1  0.34978174  0.07970230  0.65511625  1  -0.265104  -0.010871  3.336747  -0.006  -0.226447  -0.007897  3.640879  -0.006  -0.252097  -0.00815  3.656619  -0.006  -0.345707  -0.210459  -0.006575  3.630975  -0.005
N  N28  1  0.65021949  0.92029723  0.34488138  1  -0.265092  -0.010876  3.336688  -0.006  -0.226412  -0.007899  3.6408  -0.006  -0.252064  -0.008151  3.656544  -0.006  -0.34571  -0.21042  -0.006576  3.630889  -0.005
N  N29  1  0.15445866  0.23985474  0.76366168  1  -0.262058  -0.001365  3.507362  0.0  -0.175697  -0.001095  3.753368  -0.001  -0.194848  -0.000752  3.771378  0.0  -0.24711  -0.16292  -0.001268  3.741305  -0.001
N  N30  1  0.84554260  0.76014350  0.23633642  1  -0.26198  -0.001364  3.507291  0.0  -0.175614  -0.001092  3.753265  -0.001  -0.19477  -0.000745  3.771281  0.0  -0.247054  -0.162831  -0.001267  3.741192  -0.001
N  N31  1  0.20107379  0.54277715  0.74607652  1  -0.259954  -0.001282  3.483005  -0.001  -0.173771  -0.001011  3.732888  -0.001  -0.193007  -0.000718  3.750649  0.0  -0.246281  -0.160842  -0.001243  3.720789  -0.001
N  N32  1  0.79892728  0.45722240  0.25392518  1  -0.259967  -0.001281  3.483023  -0.001  -0.173772  -0.001012  3.732887  -0.001  -0.193009  -0.000718  3.750652  0.0  -0.246288  -0.160847  -0.001243  3.720797  -0.001
N  N33  1  0.39617898  0.77023704  0.63411102  1  -0.278881  -0.012183  3.346607  -0.008  -0.234847  -0.008261  3.643551  -0.006  -0.261381  -0.008478  3.660644  -0.006  -0.345926  -0.217832  -0.007186  3.632154  -0.005
N  N34  1  0.60382524  0.22976381  0.36588661  1  -0.27888  -0.012189  3.346543  -0.008  -0.234821  -0.008261  3.643452  -0.006  -0.261354  -0.00848  3.660547  -0.006  -0.345911  -0.217765  -0.007187  3.63201  -0.005
N  N35  1  0.80561573  0.94043301  0.71194599  1  0.689697  0.003756  4.126522  0.007  0.734183  0.005649  4.407473  0.009  0.763525  0.003697  4.412512  0.007  0.094665  0.713822  0.00779  4.403002  0.012
N  N36  1  0.19438241  0.05956649  0.28805321  1  0.689719  0.003755  4.126415  0.007  0.734204  0.005649  4.407364  0.009  0.763542  0.003697  4.412408  0.007  0.094706  0.713844  0.00779  4.402892  0.012
O  O37  1  0.91899001  0.48586628  0.65807902  1  -0.535507  0.000107  2.003006  0.0  -0.486755  1.6e-05  2.253455  0.0  -0.508375  2.1e-05  2.243071  0.0  -0.256722  -0.471902  5e-06  2.2605  0.0
O  O38  1  0.08100919  0.51414226  0.34192268  1  -0.535522  0.000107  2.002995  0.0  -0.486849  1.6e-05  2.253464  0.0  -0.508474  2.2e-05  2.243086  0.0  -0.25675  -0.471993  5e-06  2.260506  0.0
O  O39  1  0.90651975  0.35078382  0.94143623  1  -0.52072  -0.00041  1.978783  0.0  -0.471404  -0.000221  2.221674  0.0  -0.492608  -0.00016  2.213519  0.0  -0.251133  -0.457018  -0.000229  2.227234  0.0
O  O40  1  0.09348574  0.64920809  0.05857561  1  -0.520606  -0.000409  1.979074  0.0  -0.471376  -0.000221  2.221993  0.0  -0.49255  -0.000161  2.213826  0.0  -0.25114  -0.456978  -0.000229  2.227551  0.0
O  O41  1  0.78217435  0.92651903  0.59305220  1  -0.488109  0.01198  1.864458  0.019  -0.486203  0.009598  2.115908  0.014  -0.506575  0.006093  2.107362  0.01  -0.196058  -0.470882  0.014578  2.121408  0.021
O  O42  1  0.21782694  0.07347793  0.40694637  1  -0.48817  0.01198  1.864499  0.019  -0.486221  0.009596  2.115918  0.014  -0.50659  0.006091  2.10737  0.01  -0.196079  -0.470905  0.014578  2.121423  0.021
O  O43  1  0.81370267  0.08604921  0.71101529  1  -0.448984  0.004197  1.734192  0.007  -0.447267  0.004958  1.936811  0.008  -0.45987  0.003724  1.93101  0.007  -0.19146  -0.438057  0.006232  1.941002  0.01
O  O44  1  0.18629706  0.91394902  0.28898309  1  -0.448982  0.004198  1.734102  0.007  -0.447247  0.004958  1.936705  0.008  -0.459838  0.003723  1.930891  0.007  -0.191454  -0.438039  0.006232  1.940898  0.01
O  O45  1  0.81910555  0.80377552  0.82963524  1  -0.48532  0.007679  1.752907  0.014  -0.481317  0.007895  1.968142  0.014  -0.495126  0.005836  1.961089  0.011  -0.204469  -0.470643  0.01038  1.972486  0.017
O  O46  1  0.18088792  0.19622523  0.17036533  1  -0.485308  0.007679  1.752912  0.014  -0.481346  0.007896  1.968194  0.014  -0.495153  0.005837  1.961141  0.011  -0.204501  -0.470673  0.010379  1.972537  0.017
