# generated using pymatgen
data_CdH8C6N5O7
_symmetry_space_group_name_H-M   'P 1'
_cell_length_a   7.62625308
_cell_length_b   8.72826040
_cell_length_c   18.56740000
_cell_angle_alpha   90.00000000
_cell_angle_beta   90.00000000
_cell_angle_gamma   98.98832137
_symmetry_Int_Tables_number   1
_chemical_formula_structural   CdH8C6N5O7
_chemical_formula_sum   'Cd4 H32 C24 N20 O28'
_cell_volume   1220.74214859
_cell_formula_units_Z   4
loop_
 _symmetry_equiv_pos_site_id
 _symmetry_equiv_pos_as_xyz
  1  'x, y, z'
loop_
 _atom_site_type_symbol
 _atom_site_label
 _atom_site_symmetry_multiplicity
 _atom_site_fract_x
 _atom_site_fract_y
 _atom_site_fract_z
 _atom_site_occupancy
 _atom_site_hle17_bader_spin_density
 _atom_site_hle17_ddec_charge
 _atom_site_hle17_ddec_spin_density
 _atom_site_hle17_ddec_sum_bond_order
 _atom_site_hle17_magmom
 _atom_site_hse06_10hf_bader_spin_density
 _atom_site_hse06_10hf_ddec_charge
 _atom_site_hse06_10hf_ddec_spin_density
 _atom_site_hse06_10hf_ddec_sum_bond_order
 _atom_site_hse06_10hf_magmom
 _atom_site_hse06_bader_spin_density
 _atom_site_hse06_ddec_charge
 _atom_site_hse06_ddec_spin_density
 _atom_site_hse06_ddec_sum_bond_order
 _atom_site_hse06_magmom
 _atom_site_pbe_bader_charge
 _atom_site_pbe_bader_spin_density
 _atom_site_pbe_cm5_charge
 _atom_site_pbe_ddec_charge
 _atom_site_pbe_ddec_spin_density
 _atom_site_pbe_ddec_sum_bond_order
 _atom_site_pbe_magmom
Cd  Cd0  1  0.88360222  0.71209531  0.89218415  1  0  1.065641  0  1.714499  0  0  0.850582  0  2.158383  0  0  0.908136  0  2.109676  0  1.288951  0  0.773773  0.809594  0  2.191664  0
Cd  Cd1  1  0.61639855  0.78790484  0.39218415  1  0  1.065611  0  1.714505  0  0  0.850554  0  2.158383  0  0  0.90811  0  2.109675  0  1.288924  0  0.773757  0.809566  0  2.191663  0
Cd  Cd2  1  0.11639786  0.28790479  0.10781585  1  0  1.065662  0  1.714455  0  0  0.8506  0  2.158336  0  0  0.908154  0  2.109629  0  1.288958  0  0.773781  0.809613  0  2.191615  0
Cd  Cd3  1  0.38360284  0.21209526  0.60781585  1  0  1.065656  0  1.714465  0  0  0.850602  0  2.158347  0  0  0.908158  0  2.109639  0  1.288958  0  0.77378  0.809616  0  2.191626  0
H  H4  1  0.13042934  0.86227604  0.00111432  1  0  0.421241  0  0.878496  0  0  0.38835  0  0.94497  0  0  0.400208  0  0.927602  0  0.667451  0  0.287671  0.379902  0  0.957329  0
H  H5  1  0.36957204  0.63772527  0.50111432  1  0  0.421231  0  0.878515  0  0  0.388342  0  0.944988  0  0  0.4002  0  0.92762  0  0.667441  0  0.287659  0.379894  0  0.957349  0
H  H6  1  0.86957095  0.13772522  0.99888622  1  0  0.421245  0  0.87849  0  0  0.388356  0  0.944962  0  0  0.400213  0  0.927596  0  0.667456  0  0.287679  0.379908  0  0.95732  0
H  H7  1  0.63042824  0.36227599  0.49888568  1  0  0.421242  0  0.878494  0  0  0.388356  0  0.944963  0  0  0.400212  0  0.927597  0  0.667435  0  0.287666  0.379908  0  0.957321  0
H  H8  1  0.06807124  0.68671797  0.02185713  1  0  0.416719  0  0.889042  0  0  0.380393  0  0.962492  0  0  0.392594  0  0.944614  0  0.630933  0  0.28447  0.371717  0  0.975138  0
H  H9  1  0.43192862  0.81328217  0.52185713  1  0  0.416715  0  0.889044  0  0  0.380386  0  0.9625  0  0  0.392589  0  0.94462  0  0.630935  0  0.284462  0.37171  0  0.975148  0
H  H10  1  0.93192863  0.31328097  0.97814287  1  0  0.416716  0  0.889044  0  0  0.380389  0  0.962495  0  0  0.392591  0  0.944617  0  0.630936  0  0.284473  0.371713  0  0.975143  0
H  H11  1  0.56807035  0.18671908  0.47814234  1  0  0.416712  0  0.889043  0  0  0.380417  0  0.962451  0  0  0.392612  0  0.944573  0  0.630934  0  0.284477  0.37174  0  0.975101  0
H  H12  1  0.28968598  0.88527432  0.86501395  1  0  0.10665  0  0.932864  0  0  0.110337  0  0.999626  0  0  0.113494  0  0.99697  0  0.155645  0  0.125113  0.107979  0  1.001718  0
H  H13  1  0.21031368  0.61472467  0.36501449  1  0  0.106655  0  0.932863  0  0  0.110343  0  0.999626  0  0  0.1135  0  0.99697  0  0.155644  0  0.125112  0.107985  0  1.001718  0
H  H14  1  0.71031368  0.11472346  0.13498551  1  0  0.106629  0  0.932881  0  0  0.11035  0  0.999614  0  0  0.113506  0  0.996959  0  0.155647  0  0.125113  0.107991  0  1.001707  0
H  H15  1  0.78968640  0.38527543  0.63498605  1  0  0.106651  0  0.932862  0  0  0.11034  0  0.999622  0  0  0.113497  0  0.996965  0  0.15565  0  0.125117  0.107982  0  1.001714  0
H  H16  1  0.46264018  0.05610782  0.77198315  1  0  0.099048  0  0.951491  0  0  0.100792  0  1.022784  0  0  0.104309  0  1.01978  0  0.120892  0  0.119774  0.098164  0  1.025157  0
H  H17  1  0.03735921  0.44389222  0.27198315  1  0  0.099053  0  0.951489  0  0  0.100796  0  1.02278  0  0  0.104314  0  1.019776  0  0.120886  0  0.119764  0.098169  0  1.025152  0
H  H18  1  0.53735990  0.94389227  0.22801631  1  0  0.099049  0  0.951501  0  0  0.100785  0  1.022781  0  0  0.104303  0  1.019779  0  0.120892  0  0.119771  0.098158  0  1.025155  0
H  H19  1  0.96264087  0.55610787  0.72801685  1  0  0.099003  0  0.951543  0  0  0.100782  0  1.022798  0  0  0.1043  0  1.019793  0  0.120894  0  0.119759  0.098154  0  1.02517  0
H  H20  1  0.98927480  0.11871136  0.67246518  1  0  0.100757  0  0.951409  0  0  0.103351  0  1.021104  0  0  0.106442  0  1.018888  0  0.147333  0  0.120806  0.101078  0  1.02284  0
H  H21  1  0.51072397  0.38128753  0.17246464  1  0  0.100771  0  0.951402  0  0  0.103364  0  1.021099  0  0  0.106455  0  1.018882  0  0.147333  0  0.120811  0.101091  0  1.022834  0
H  H22  1  0.01072397  0.88128874  0.32753482  1  0  0.100758  0  0.951422  0  0  0.10335  0  1.021119  0  0  0.106442  0  1.018902  0  0.147333  0  0.120806  0.101077  0  1.022855  0
H  H23  1  0.48927479  0.61871256  0.82753536  1  0  0.100754  0  0.951406  0  0  0.103349  0  1.021099  0  0  0.106441  0  1.018881  0  0.147319  0  0.120799  0.101076  0  1.022834  0
H  H24  1  0.81785847  0.94385051  0.76326680  1  0  0.099633  0  0.966803  0  0  0.098052  0  1.043894  0  0  0.101716  0  1.040599  0  0.117342  0  0.117831  0.095339  0  1.046385  0
H  H25  1  0.68214210  0.55614847  0.26326680  1  0  0.099658  0  0.966775  0  0  0.098087  0  1.043866  0  0  0.10175  0  1.040571  0  0.117323  0  0.117849  0.095374  0  1.046356  0
H  H26  1  0.18214292  0.05614958  0.23673320  1  0  0.099624  0  0.966798  0  0  0.098048  0  1.043896  0  0  0.101713  0  1.040601  0  0.117343  0  0.117828  0.095335  0  1.046387  0
H  H27  1  0.31785667  0.44385163  0.73673320  1  0  0.099622  0  0.966804  0  0  0.098041  0  1.043899  0  0  0.101705  0  1.040604  0  0.117326  0  0.117828  0.095328  0  1.046389  0
H  H28  1  0.64719090  0.36833788  0.90811691  1  0  0.100979  0  0.950675  0  0  0.105096  0  1.017251  0  0  0.10805  0  1.015099  0  0.145567  0  0.122134  0.102881  0  1.019058  0
H  H29  1  0.85280960  0.13166333  0.40811745  1  0  0.100952  0  0.950634  0  0  0.105076  0  1.017195  0  0  0.10803  0  1.015043  0  0.145578  0  0.122122  0.102861  0  1.019002  0
H  H30  1  0.35280918  0.63166222  0.09188255  1  0  0.100977  0  0.950626  0  0  0.105092  0  1.017201  0  0  0.108046  0  1.01505  0  0.14558  0  0.122127  0.102877  0  1.019008  0
H  H31  1  0.14719199  0.86833793  0.59188309  1  0  0.100956  0  0.950634  0  0  0.105071  0  1.017212  0  0  0.108026  0  1.015058  0  0.14557  0  0.122119  0.102856  0  1.019019  0
H  H32  1  0.61534281  0.77102992  0.02417840  1  0  0.104929  0  0.950101  0  0  0.108691  0  1.01659  0  0  0.111486  0  1.014473  0  0.132492  0  0.123627  0.106567  0  1.018413  0
H  H33  1  0.88465645  0.72896906  0.52417894  1  0  0.104966  0  0.950038  0  0  0.108723  0  1.016538  0  0  0.111521  0  1.01442  0  0.132494  0  0.123639  0.106598  0  1.018361  0
H  H34  1  0.38465706  0.22896901  0.97582106  1  0  0.104939  0  0.950076  0  0  0.108699  0  1.016574  0  0  0.111497  0  1.014457  0  0.132485  0  0.123626  0.106573  0  1.018397  0
H  H35  1  0.11534494  0.27103103  0.47582160  1  0  0.104947  0  0.950062  0  0  0.108711  0  1.016548  0  0  0.111508  0  1.014431  0  0.132483  0  0.12363  0.106586  0  1.018371  0
C  C36  1  0.22264936  0.93752532  0.82185551  1  0  0.109075  0  3.620306  0  0  0.082172  0  3.865549  0  0  0.085316  0  3.883009  0  0.51972  0  0.066096  0.07985  0  3.854142  0
C  C37  1  0.27735182  0.56247483  0.32185551  1  0  0.109065  0  3.620348  0  0  0.082156  0  3.865592  0  0  0.0853  0  3.883053  0  0.519742  0  0.06609  0.079835  0  3.854185  0
C  C38  1  0.77735182  0.06247362  0.17814395  1  0  0.109087  0  3.620281  0  0  0.082137  0  3.865514  0  0  0.08528  0  3.882975  0  0.519738  0  0.066091  0.079816  0  3.854107  0
C  C39  1  0.72264826  0.43752527  0.67814449  1  0  0.109108  0  3.620263  0  0  0.082203  0  3.865514  0  0  0.085347  0  3.882975  0  0.519737  0  0.066106  0.079881  0  3.854108  0
C  C40  1  0.31829056  0.03204239  0.77016060  1  0  0.095839  0  3.64222  0  0  0.065444  0  3.896624  0  0  0.067992  0  3.914175  0  0.555064  0  0.059104  0.063512  0  3.885095  0
C  C41  1  0.18170882  0.46795766  0.27016114  1  0  0.09578  0  3.642208  0  0  0.065389  0  3.896613  0  0  0.067938  0  3.914165  0  0.555066  0  0.059087  0.063458  0  3.885083  0
C  C42  1  0.68170930  0.96795655  0.22983886  1  0  0.095849  0  3.642172  0  0  0.065502  0  3.896528  0  0  0.068051  0  3.91408  0  0.555075  0  0.059133  0.06357  0  3.885  0
C  C43  1  0.81828995  0.53204244  0.72983940  1  0  0.095842  0  3.642187  0  0  0.065419  0  3.896589  0  0  0.067969  0  3.914141  0  0.555081  0  0.059105  0.063488  0  3.885059  0
C  C44  1  0.05762504  0.06566463  0.71492885  1  0  0.089894  0  3.657039  0  0  0.061904  0  3.910008  0  0  0.06429  0  3.927989  0  0.510842  0  0.055873  0.060129  0  3.89814  0
C  C45  1  0.44237565  0.43433542  0.21492939  1  0  0.089804  0  3.656981  0  0  0.061827  0  3.909959  0  0  0.064212  0  3.92794  0  0.510844  0  0.055841  0.060053  0  3.89809  0
C  C46  1  0.94237635  0.93433546  0.28507115  1  0  0.089845  0  3.657056  0  0  0.061864  0  3.91004  0  0  0.064249  0  3.928021  0  0.510816  0  0.055844  0.060088  0  3.898172  0
C  C47  1  0.55762463  0.56566584  0.78507115  1  0  0.089857  0  3.657067  0  0  0.061867  0  3.910033  0  0  0.064252  0  3.928013  0  0.510818  0  0.055861  0.060092  0  3.898164  0
C  C48  1  0.96194685  0.97004097  0.76593223  1  0  0.087396  0  3.654667  0  0  0.05743  0  3.90684  0  0  0.06007  0  3.924851  0  0.542479  0  0.055119  0.055455  0  3.895015  0
C  C49  1  0.53805393  0.52995918  0.26593223  1  0  0.087455  0  3.65454  0  0  0.057451  0  3.906757  0  0  0.060091  0  3.924768  0  0.542469  0  0.055116  0.055476  0  3.894931  0
C  C50  1  0.03805192  0.02995913  0.23406831  1  0  0.087447  0  3.654631  0  0  0.057452  0  3.90684  0  0  0.060091  0  3.924852  0  0.542479  0  0.055132  0.055477  0  3.895015  0
C  C51  1  0.46194746  0.47004092  0.73406831  1  0  0.087466  0  3.65471  0  0  0.057502  0  3.906879  0  0  0.060142  0  3.924891  0  0.542486  0  0.055153  0.055527  0  3.895053  0
C  C52  1  0.58099173  0.42789771  0.94892015  1  0  0.096556  0  3.642746  0  0  0.067487  0  3.895181  0  0  0.070347  0  3.912808  0  0.476403  0  0.057771  0.065349  0  3.883619  0
C  C53  1  0.91900836  0.07210118  0.44892069  1  0  0.096561  0  3.642744  0  0  0.067516  0  3.89515  0  0  0.070377  0  3.912777  0  0.476403  0  0.057784  0.065381  0  3.883587  0
C  C54  1  0.41900814  0.57210123  0.05107931  1  0  0.096503  0  3.642784  0  0  0.06744  0  3.895203  0  0  0.070298  0  3.912828  0  0.476392  0  0.057759  0.065305  0  3.883643  0
C  C55  1  0.08099151  0.92789776  0.55107931  1  0  0.096575  0  3.642716  0  0  0.06751  0  3.895141  0  0  0.07037  0  3.912767  0  0.476467  0  0.057774  0.065374  0  3.883579  0
C  C56  1  0.56383102  0.64999983  0.01324256  1  0  0.101383  0  3.643221  0  0  0.070699  0  3.896452  0  0  0.073728  0  3.914038  0  0.582623  0  0.058179  0.068429  0  3.884988  0
C  C57  1  0.93616865  0.85000147  0.51324256  1  0  0.10125  0  3.64326  0  0  0.070574  0  3.896493  0  0  0.073595  0  3.914088  0  0.582631  0  0.058121  0.068308  0  3.885025  0
C  C58  1  0.43616774  0.35000027  0.98675744  1  0  0.101297  0  3.643241  0  0  0.070603  0  3.896488  0  0  0.073623  0  3.914082  0  0.582709  0  0.058136  0.068339  0  3.885019  0
C  C59  1  0.06383295  0.14999978  0.48675744  1  0  0.101291  0  3.643254  0  0  0.070599  0  3.896482  0  0  0.07362  0  3.914075  0  0.582637  0  0.058133  0.068331  0  3.885016  0
N  N60  1  0.10153870  0.44936950  0.86737562  1  0  0.694678  0  4.127371  0  0  0.727811  0  4.41673  0  0  0.756636  0  4.422753  0  0.811143  0  0.098527  0.720612  0  4.394943  0
N  N61  1  0.39846048  0.05062939  0.36737562  1  0  0.694648  0  4.127363  0  0  0.727787  0  4.416743  0  0  0.756608  0  4.422769  0  0.811145  0  0.098498  0.720581  0  4.394967  0
N  N62  1  0.89846269  0.55063060  0.13262438  1  0  0.694645  0  4.127349  0  0  0.727784  0  4.416707  0  0  0.756602  0  4.422744  0  0.811138  0  0.098536  0.720615  0  4.394884  0
N  N63  1  0.60153960  0.94937071  0.63262438  1  0  0.694681  0  4.127415  0  0  0.727825  0  4.416772  0  0  0.756648  0  4.422797  0  0.811151  0  0.098519  0.720606  0  4.395016  0
N  N64  1  0.67037206  0.97812001  0.90935026  1  0  0.693059  0  4.135932  0  0  0.735734  0  4.413297  0  0  0.752403  0  4.436469  0  0.830725  0  0.099521  0.716227  0  4.408776  0
N  N65  1  0.82962981  0.52187898  0.40934972  1  0  0.693029  0  4.135905  0  0  0.73571  0  4.413252  0  0  0.752375  0  4.436428  0  0.830724  0  0.099499  0.716203  0  4.408731  0
N  N66  1  0.32962932  0.02188009  0.09064974  1  0  0.692939  0  4.136076  0  0  0.735725  0  4.413304  0  0  0.752326  0  4.43656  0  0.830702  0  0.099533  0.716218  0  4.408782  0
N  N67  1  0.17037158  0.47812112  0.59065028  1  0  0.693034  0  4.135897  0  0  0.73572  0  4.413242  0  0  0.752383  0  4.436424  0  0.830725  0  0.0995  0.716213  0  4.408721  0
N  N68  1  0.04498969  0.90418263  0.81855402  1  0  -0.273162  0  3.236623  0  0  -0.196496  0  3.490242  0  0  -0.213481  0  3.511132  0  -1.246721  0  -0.305997  -0.184707  0  3.475911  0
N  N69  1  0.45501038  0.59581868  0.31855402  1  0  -0.273179  0  3.236605  0  0  -0.196499  0  3.490231  0  0  -0.213483  0  3.511121  0  -1.246748  0  -0.305997  -0.18471  0  3.4759  0
N  N70  1  0.95501038  0.09581747  0.18144598  1  0  -0.273177  0  3.236603  0  0  -0.196502  0  3.490249  0  0  -0.213486  0  3.511138  0  -1.246743  0  -0.306003  -0.184713  0  3.475917  0
N  N71  1  0.54498970  0.40418142  0.68144651  1  0  -0.273213  0  3.236673  0  0  -0.196552  0  3.4903  0  0  -0.213536  0  3.51119  0  -1.246736  0  -0.306029  -0.184763  0  3.475969  0
N  N72  1  0.23582477  0.09324239  0.71584605  1  0  -0.284282  0  3.215117  0  0  -0.214662  0  3.476301  0  0  -0.230553  0  3.496925  0  -1.210125  0  -0.301578  -0.20354  0  3.462052  0
N  N73  1  0.26417592  0.40675766  0.21584605  1  0  -0.284195  0  3.21506  0  0  -0.214566  0  3.476217  0  0  -0.230456  0  3.496841  0  -1.210098  0  -0.301531  -0.203443  0  3.461967  0
N  N74  1  0.76417510  0.90675655  0.28415449  1  0  -0.28425  0  3.215075  0  0  -0.21465  0  3.476256  0  0  -0.23054  0  3.49688  0  -1.210107  0  -0.301568  -0.203527  0  3.462007  0
N  N75  1  0.73582415  0.59324244  0.78415449  1  0  -0.284235  0  3.21506  0  0  -0.214611  0  3.47624  0  0  -0.230503  0  3.496866  0  -1.210115  0  -0.301556  -0.203489  0  3.461991  0
N  N76  1  0.64422098  0.57758662  0.96205123  1  0  -0.283164  0  3.226859  0  0  -0.209324  0  3.485398  0  0  -0.225688  0  3.505275  0  -1.224454  0  -0.307172  -0.19794  0  3.471797  0
N  N77  1  0.85578020  0.92241584  0.46205177  1  0  -0.283086  0  3.226959  0  0  -0.209271  0  3.485492  0  0  -0.225633  0  3.505372  0  -1.224418  0  -0.307138  -0.197888  0  3.471888  0
N  N78  1  0.35578061  0.42241463  0.03794877  1  0  -0.28312  0  3.226929  0  0  -0.209277  0  3.485461  0  0  -0.225638  0  3.505342  0  -1.224431  0  -0.307159  -0.197895  0  3.471857  0
N  N79  1  0.14422008  0.07758541  0.53794877  1  0  -0.28312  0  3.226912  0  0  -0.209279  0  3.485438  0  0  -0.225641  0  3.505318  0  -1.224453  0  -0.307137  -0.197896  0  3.471835  0
O  O80  1  0.14972127  0.57173469  0.83114653  1  0  -0.470672  0  1.763415  0  0  -0.454548  0  1.978436  0  0  -0.471884  0  1.973141  0  -0.53671  0  -0.184916  -0.446429  0  1.976947  0
O  O81  1  0.35027990  0.92826546  0.33114599  1  0  -0.470647  0  1.76344  0  0  -0.454519  0  1.97845  0  0  -0.471854  0  1.973155  0  -0.536719  0  -0.184887  -0.446394  0  1.976959  0
O  O82  1  0.85028032  0.42826657  0.16885401  1  0  -0.470662  0  1.763402  0  0  -0.454533  0  1.978424  0  0  -0.471862  0  1.97312  0  -0.536697  0  -0.184921  -0.446427  0  1.976927  0
O  O83  1  0.64972017  0.07173464  0.66885347  1  0  -0.470652  0  1.763499  0  0  -0.454518  0  1.978505  0  0  -0.471853  0  1.973209  0  -0.53671  0  -0.184884  -0.446391  0  1.977021  0
O  O84  1  0.96454880  0.44686401  0.90916984  1  0  -0.521296  0  1.848487  0  0  -0.484392  0  2.071356  0  0  -0.507001  0  2.064455  0  -0.60323  0  -0.203831  -0.472417  0  2.071241  0
O  O85  1  0.53545150  0.05313604  0.40916984  1  0  -0.521292  0  1.848486  0  0  -0.48441  0  2.071348  0  0  -0.50702  0  2.064445  0  -0.603225  0  -0.203842  -0.472432  0  2.071237  0
O  O86  1  0.03545259  0.55313609  0.09083016  1  0  -0.521283  0  1.848506  0  0  -0.484389  0  2.071367  0  0  -0.506995  0  2.064468  0  -0.603264  0  -0.203826  -0.472422  0  2.071241  0
O  O87  1  0.46454858  0.94686406  0.59082963  1  0  -0.521319  0  1.848472  0  0  -0.484426  0  2.071333  0  0  -0.507035  0  2.064433  0  -0.603255  0  -0.203849  -0.472442  0  2.071228  0
O  O88  1  0.17951748  0.33440245  0.86391471  1  0  -0.418424  0  1.721573  0  0  -0.420993  0  1.92273  0  0  -0.433364  0  1.919314  0  -0.495185  0  -0.176142  -0.416327  0  1.919883  0
O  O89  1  0.32048321  0.16559760  0.36391471  1  0  -0.41842  0  1.721558  0  0  -0.420985  0  1.922724  0  0  -0.433356  0  1.919311  0  -0.495175  0  -0.176134  -0.416318  0  1.91988  0
O  O90  1  0.82048391  0.66559765  0.13608529  1  0  -0.418437  0  1.721525  0  0  -0.420997  0  1.922694  0  0  -0.433369  0  1.919284  0  -0.495169  0  -0.176155  -0.416341  0  1.919835  0
O  O91  1  0.67951818  0.83440250  0.63608475  1  0  -0.418422  0  1.721553  0  0  -0.420997  0  1.92271  0  0  -0.433369  0  1.919296  0  -0.49518  0  -0.176144  -0.416324  0  1.919871  0
O  O92  1  0.79759877  0.96350699  0.95335373  1  0  -0.49666  0  1.789107  0  0  -0.46926  0  1.992779  0  0  -0.484901  0  1.988892  0  -0.580301  0  -0.191197  -0.455403  0  1.99846  0
O  O93  1  0.70240090  0.53649432  0.45335319  1  0  -0.496649  0  1.789081  0  0  -0.469242  0  1.992755  0  0  -0.484888  0  1.988873  0  -0.580282  0  -0.191197  -0.455385  0  1.998436  0
O  O94  1  0.20240303  0.03649543  0.04664627  1  0  -0.496643  0  1.789149  0  0  -0.469266  0  1.992784  0  0  -0.484891  0  1.988925  0  -0.580291  0  -0.191221  -0.45541  0  1.998465  0
O  O95  1  0.29759959  0.46350810  0.54664681  1  0  -0.496629  0  1.789089  0  0  -0.469234  0  1.992762  0  0  -0.484876  0  1.98888  0  -0.580282  0  -0.191182  -0.455377  0  1.998443  0
O  O96  1  0.62725644  0.87041539  0.86338260  1  0  -0.487548  0  1.799711  0  0  -0.475894  0  2.025935  0  0  -0.490288  0  2.024983  0  -0.568439  0  -0.191012  -0.462672  0  2.029513  0
O  O97  1  0.87274565  0.62958475  0.36338260  1  0  -0.487559  0  1.79967  0  0  -0.475891  0  2.025885  0  0  -0.490283  0  2.024931  0  -0.568438  0  -0.191009  -0.462669  0  2.029463  0
O  O98  1  0.37274475  0.12958355  0.13661740  1  0  -0.487508  0  1.799744  0  0  -0.475894  0  2.025957  0  0  -0.490264  0  2.025028  0  -0.56844  0  -0.191011  -0.462672  0  2.029533  0
O  O99  1  0.12725443  0.37041534  0.63661740  1  0  -0.487541  0  1.799656  0  0  -0.475891  0  2.025884  0  0  -0.490283  0  2.024932  0  -0.568432  0  -0.191003  -0.462669  0  2.029462  0
O  O100  1  0.59275444  0.09332010  0.91175070  1  0  -0.418516  0  1.75418  0  0  -0.420132  0  1.958525  0  0  -0.428364  0  1.957202  0  -0.50589  0  -0.166178  -0.41122  0  1.962851  0
O  O101  1  0.90724454  0.40667995  0.41175124  1  0  -0.418485  0  1.754215  0  0  -0.420128  0  1.958557  0  0  -0.428357  0  1.957236  0  -0.505894  0  -0.166162  -0.411216  0  1.962883  0
O  O102  1  0.40724302  0.90667999  0.08824876  1  0  -0.418462  0  1.754242  0  0  -0.420133  0  1.958549  0  0  -0.428339  0  1.95725  0  -0.505866  0  -0.166174  -0.411221  0  1.962875  0
O  O103  1  0.09275422  0.59332015  0.58824930  1  0  -0.418522  0  1.7542  0  0  -0.420147  0  1.958539  0  0  -0.428377  0  1.957218  0  -0.505889  0  -0.166183  -0.411235  0  1.962865  0
O  O104  1  0.09654145  0.75714767  0.97991372  1  0  -0.829708  0  1.907208  0  0  -0.768583  0  2.111316  0  0  -0.791651  0  2.075545  0  -1.264606  0  -0.597338  -0.752092  0  2.136204  0
O  O105  1  0.40345821  0.74285132  0.47991372  1  0  -0.829712  0  1.907231  0  0  -0.768584  0  2.111333  0  0  -0.791654  0  2.07556  0  -1.264604  0  -0.59733  -0.752095  0  2.136217  0
O  O106  1  0.90345863  0.24285243  0.02008628  1  0  -0.829723  0  1.907216  0  0  -0.7686  0  2.111323  0  0  -0.791667  0  2.075554  0  -1.264618  0  -0.597353  -0.75211  0  2.136209  0
O  O107  1  0.59654187  0.25714878  0.52008628  1  0  -0.82972  0  1.907233  0  0  -0.768624  0  2.111297  0  0  -0.791681  0  2.075548  0  -1.264596  0  -0.597341  -0.752135  0  2.13618  0
