# generated using pymatgen
data_Cu4H20WC22(S2N3)2
_symmetry_space_group_name_H-M   'P 1'
_cell_length_a   12.08802550
_cell_length_b   12.06864363
_cell_length_c   12.30699992
_cell_angle_alpha   68.01838246
_cell_angle_beta   61.15410833
_cell_angle_gamma   60.04646944
_symmetry_Int_Tables_number   1
_chemical_formula_structural   Cu4H20WC22(S2N3)2
_chemical_formula_sum   'Cu8 H40 W2 C44 S8 N12'
_cell_volume   1341.36639560
_cell_formula_units_Z   2
loop_
 _symmetry_equiv_pos_site_id
 _symmetry_equiv_pos_as_xyz
  1  'x, y, z'
loop_
 _atom_site_type_symbol
 _atom_site_label
 _atom_site_symmetry_multiplicity
 _atom_site_fract_x
 _atom_site_fract_y
 _atom_site_fract_z
 _atom_site_occupancy
 _atom_site_hle17_bader_charge
 _atom_site_hle17_bader_spin_density
 _atom_site_hle17_ddec_charge
 _atom_site_hle17_ddec_spin_density
 _atom_site_hle17_ddec_sum_bond_order
 _atom_site_hle17_magmom
 _atom_site_hse06_10hf_bader_spin_density
 _atom_site_hse06_10hf_ddec_charge
 _atom_site_hse06_10hf_ddec_spin_density
 _atom_site_hse06_10hf_ddec_sum_bond_order
 _atom_site_hse06_10hf_magmom
 _atom_site_hse06_bader_spin_density
 _atom_site_hse06_ddec_charge
 _atom_site_hse06_ddec_spin_density
 _atom_site_hse06_ddec_sum_bond_order
 _atom_site_hse06_magmom
 _atom_site_pbe_bader_charge
 _atom_site_pbe_bader_spin_density
 _atom_site_pbe_cm5_charge
 _atom_site_pbe_ddec_charge
 _atom_site_pbe_ddec_spin_density
 _atom_site_pbe_ddec_sum_bond_order
 _atom_site_pbe_magmom
Cu  Cu0  1  0.48608184  0.74938023  0.25106849  1  0.741249  0  0.507173  0  2.320159  0  0  0.44073  0  2.823  0  0  0.428049  0  2.790711  0  0.679933  0  0.4984  0.450998  0  2.843929  0
Cu  Cu1  1  0.51390526  0.25062012  0.74894275  1  0.741395  0  0.507132  0  2.320264  0  0  0.440682  0  2.823133  0  0  0.427995  0  2.790845  0  0.68003  0  0.498358  0.450939  0  2.844062  0
Cu  Cu2  1  0.93617250  0.74849135  0.25095679  1  0.665836  0  0.387127  0  2.255135  0  0  0.299238  0  2.754813  0  0  0.289632  0  2.72494  0  0.589145  0  0.456508  0.307999  0  2.773431  0
Cu  Cu3  1  0.06382866  0.25150901  0.74904421  1  0.665932  0  0.387116  0  2.255174  0  0  0.299221  0  2.754857  0  0  0.289593  0  2.724968  0  0.58912  0  0.456493  0.307968  0  2.773461  0
Cu  Cu4  1  0.65040092  0.99868791  0.12216834  1  0.640929  0  0.311446  0  2.5038  0  0  0.249613  0  2.998109  0  0  0.231793  0  2.9707  0  0.563679  0  0.399721  0.264223  0  3.014916  0
Cu  Cu5  1  0.77255527  0.49941293  0.37869709  1  0.643924  0  0.311048  0  2.493952  0  0  0.248259  0  2.988263  0  0  0.230652  0  2.960485  0  0.564491  0  0.397878  0.262678  0  3.005365  0
Cu  Cu6  1  0.34960377  0.00130856  0.87783044  1  0.640981  0  0.311446  0  2.503761  0  0  0.249659  0  2.99806  0  0  0.231841  0  2.970636  0  0.563723  0  0.399726  0.264252  0  3.01486  0
Cu  Cu7  1  0.22743617  0.50058063  0.62130428  1  0.643904  0  0.311081  0  2.494095  0  0  0.248287  0  2.988437  0  0  0.230682  0  2.960646  0  0.564279  0  0.397948  0.262703  0  3.005531  0
H  H8  1  0.11932132  0.57439311  0.05936191  1  0.013721  0  0.066191  0  0.954053  0  0  0.075288  0  1.022165  0  0  0.076965  0  1.021069  0  0.065099  0  0.105106  0.074148  0  1.022839  0
H  H9  1  0.75564014  0.92447615  0.44041499  1  0.03758  0  0.065121  0  0.953014  0  0  0.07374  0  1.021541  0  0  0.075408  0  1.020432  0  0.075384  0  0.104151  0.072611  0  1.022226  0
H  H10  1  0.88068225  0.42560530  0.94063781  1  0.013937  0  0.066227  0  0.954113  0  0  0.075313  0  1.022244  0  0  0.076991  0  1.021143  0  0.065013  0  0.10512  0.074167  0  1.02293  0
H  H11  1  0.24435386  0.07552906  0.55959129  1  0.037514  0  0.065152  0  0.952995  0  0  0.073749  0  1.021537  0  0  0.075419  0  1.020426  0  0.075192  0  0.104183  0.07262  0  1.022221  0
H  H12  1  0.36246382  0.41378846  0.98769834  1  0.050346  0  0.11111  0  0.958531  0  0  0.122216  0  1.016973  0  0  0.124544  0  1.017252  0  0.10029  0  0.101748  0.12066  0  1.0167  0
H  H13  1  0.76567367  0.08754990  0.51127106  1  0.049486  0  0.110551  0  0.956597  0  0  0.121724  0  1.015261  0  0  0.124003  0  1.015653  0  0.103797  0  0.10223  0.1202  0  1.014885  0
H  H14  1  0.63753805  0.58620510  0.01230497  1  0.050881  0  0.111044  0  0.958638  0  0  0.122178  0  1.017054  0  0  0.124507  0  1.017332  0  0.100344  0  0.101743  0.120619  0  1.016783  0
H  H15  1  0.23431764  0.91245822  0.48873334  1  0.049631  0  0.110603  0  0.956561  0  0  0.121743  0  1.015263  0  0  0.124025  0  1.015651  0  0.103859  0  0.102226  0.120215  0  1.014893  0
H  H16  1  0.51340209  0.36726039  0.09825833  1  0.031266  0  0.094734  0  0.947364  0  0  0.106904  0  1.003813  0  0  0.108505  0  1.004302  0  0.090628  0  0.105985  0.105645  0  1.003651  0
H  H17  1  0.97792244  0.13522721  0.40125432  1  0.02556  0  0.094616  0  0.947842  0  0  0.106572  0  1.004435  0  0  0.108257  0  1.004766  0  0.078928  0  0.10583  0.105225  0  1.004445  0
H  H18  1  0.48660059  0.63273511  0.90174304  1  0.030721  0  0.094632  0  0.947375  0  0  0.106833  0  1.003811  0  0  0.108435  0  1.004298  0  0.09065  0  0.105978  0.10557  0  1.003659  0
H  H19  1  0.02206976  0.86477800  0.59875184  1  0.025701  0  0.094495  0  0.947872  0  0  0.106471  0  1.004458  0  0  0.108156  0  1.00479  0  0.07737  0  0.105783  0.105123  0  1.004466  0
H  H20  1  0.41313623  0.48858115  0.27504510  1  0.042786  0  0.106094  0  0.969224  0  0  0.11639  0  1.029377  0  0  0.118271  0  1.030555  0  0.111021  0  0.104427  0.115145  0  1.028438  0
H  H21  1  0.17420710  0.01292236  0.22587460  1  0.086536  0  0.10709  0  0.968357  0  0  0.117209  0  1.028443  0  0  0.119071  0  1.029701  0  0.125499  0  0.104994  0.116022  0  1.027428  0
H  H22  1  0.58686864  0.51141532  0.72495541  1  0.042334  0  0.106127  0  0.969154  0  0  0.116396  0  1.029342  0  0  0.118278  0  1.030521  0  0.111312  0  0.104427  0.11516  0  1.028394  0
H  H23  1  0.82578381  0.98709063  0.77412736  1  0.086109  0  0.107052  0  0.968392  0  0  0.117188  0  1.028466  0  0  0.11905  0  1.029726  0  0.125483  0  0.104972  0.116  0  1.02745  0
H  H24  1  0.17107944  0.64395547  0.33398126  1  0.043152  0  0.072912  0  0.956127  0  0  0.079526  0  1.026044  0  0  0.081852  0  1.024109  0  0.082274  0  0.11013  0.077975  0  1.027181  0
H  H25  1  0.14745389  0.85490214  0.16784336  1  0.0494  0  0.07309  0  0.952997  0  0  0.079947  0  1.022558  0  0  0.082208  0  1.02075  0  0.096392  0  0.110463  0.07843  0  1.023634  0
H  H26  1  0.82892574  0.35604683  0.66601458  1  0.042994  0  0.072817  0  0.956196  0  0  0.079449  0  1.026091  0  0  0.081777  0  1.024153  0  0.082339  0  0.110094  0.077898  0  1.02723  0
H  H27  1  0.85253572  0.14511473  0.83215667  1  0.04906  0  0.073091  0  0.953053  0  0  0.079988  0  1.022591  0  0  0.082208  0  1.020823  0  0.09627  0  0.110496  0.078462  0  1.023664  0
H  H28  1  0.49045317  0.11689868  0.36360835  1  0.032223  0  0.068357  0  0.954934  0  0  0.078949  0  1.019766  0  0  0.080928  0  1.018338  0  0.085823  0  0.1012  0.077467  0  1.020823  0
H  H29  1  0.97021474  0.38253660  0.13650629  1  0.042857  0  0.069248  0  0.954288  0  0  0.0796  0  1.019439  0  0  0.081601  0  1.017979  0  0.076106  0  0.101867  0.078093  0  1.020542  0
H  H30  1  0.50955215  0.88310168  0.63638563  1  0.032158  0  0.068273  0  0.955068  0  0  0.078941  0  1.019824  0  0  0.080921  0  1.018395  0  0.085883  0  0.101181  0.077456  0  1.020885  0
H  H31  1  0.02978364  0.61745987  0.86349595  1  0.042829  0  0.069232  0  0.95436  0  0  0.079576  0  1.019503  0  0  0.081574  0  1.01805  0  0.076022  0  0.101856  0.078068  0  1.020607  0
H  H32  1  0.49149829  0.27873029  0.44406787  1  0.060459  0  0.09939  0  0.987163  0  0  0.10722  0  1.054049  0  0  0.108523  0  1.055957  0  0.10703  0  0.093674  0.106168  0  1.053019  0
H  H33  1  0.21247718  0.22341439  0.05534694  1  0.029  0  0.098608  0  0.992299  0  0  0.106679  0  1.058937  0  0  0.107847  0  1.061034  0  0.1037  0  0.092736  0.105711  0  1.057775  0
H  H34  1  0.50850963  0.72127007  0.55592542  1  0.060469  0  0.09947  0  0.987043  0  0  0.107318  0  1.053923  0  0  0.108624  0  1.055824  0  0.106928  0  0.093696  0.106263  0  1.052897  0
H  H35  1  0.78752017  0.77658111  0.94465880  1  0.029537  0  0.09866  0  0.992178  0  0  0.10672  0  1.058818  0  0  0.107889  0  1.060911  0  0.103713  0  0.092765  0.105748  0  1.057659  0
H  H36  1  0.68151801  0.35902047  0.32153781  1  0.04924  0  0.094056  0  0.97913  0  0  0.105455  0  1.04051  0  0  0.108134  0  1.038089  0  0.109063  0  0.094285  0.103424  0  1.04218  0
H  H37  1  0.36169882  0.14340690  0.17846965  1  0.071483  0  0.094872  0  0.976019  0  0  0.106426  0  1.037021  0  0  0.109128  0  1.034601  0  0.124696  0  0.095522  0.104324  0  1.038765  0
H  H38  1  0.31849201  0.64097989  0.67845433  1  0.049179  0  0.094085  0  0.979132  0  0  0.105486  0  1.040504  0  0  0.108164  0  1.038095  0  0.108887  0  0.094278  0.103451  0  1.04218  0
H  H39  1  0.63829875  0.85659151  0.82153226  1  0.071473  0  0.094896  0  0.975958  0  0  0.106439  0  1.036976  0  0  0.109146  0  1.034549  0  0.124621  0  0.095499  0.104337  0  1.038717  0
H  H40  1  0.86589767  0.27012315  0.12334423  1  0.023617  0  0.093819  0  0.977835  0  0  0.10442  0  1.041582  0  0  0.106423  0  1.042052  0  0.07898  0  0.095948  0.102767  0  1.041875  0
H  H41  1  0.26051025  0.23064205  0.37830070  1  0.008409  0  0.093338  0  0.978986  0  0  0.104282  0  1.042329  0  0  0.106193  0  1.042897  0  0.052758  0  0.095356  0.102649  0  1.042629  0
H  H42  1  0.13411625  0.72987526  0.87664801  1  0.02375  0  0.093798  0  0.97793  0  0  0.10438  0  1.041687  0  0  0.106382  0  1.042157  0  0.079084  0  0.095936  0.102726  0  1.041979  0
H  H43  1  0.73948692  0.76935539  0.62170218  1  0.008406  0  0.093377  0  0.978949  0  0  0.104331  0  1.042289  0  0  0.106243  0  1.042855  0  0.052743  0  0.095372  0.102723  0  1.042561  0
H  H44  1  0.84676678  0.11258151  0.05480710  1  0.017637  0  0.073504  0  0.937455  0  0  0.082583  0  1.004618  0  0  0.085434  0  1.001524  0  0.062554  0  0.105981  0.080415  0  1.006913  0
H  H45  1  0.01646899  0.38588716  0.44729841  1  -0.021151  0  0.073298  0  0.937215  0  0  0.082272  0  1.005275  0  0  0.085116  0  1.002149  0  0.101142  0  0.105395  0.080153  0  1.007565  0
H  H46  1  0.15323832  0.88741593  0.94519071  1  0.017435  0  0.073504  0  0.937367  0  0  0.082608  0  1.004502  0  0  0.085451  0  1.001418  0  0.062682  0  0.105983  0.080438  0  1.0068  0
H  H47  1  0.98353338  0.61411416  0.55270082  1  -0.021131  0  0.073331  0  0.937195  0  0  0.082298  0  1.005257  0  0  0.08514  0  1.002137  0  0.101157  0  0.105374  0.080177  0  1.007547  0
W  W48  1  0.71587094  0.74947349  0.25046970  1  1.543776  0  0.813949  0  5.08514  0  0  0.818888  0  5.739796  0  0  0.883974  0  5.700959  0  1.530506  0  0.846408  0.77338  0  5.77216  0
W  W49  1  0.28413035  0.25052298  0.74953058  1  1.54381  0  0.81387  0  5.085196  0  0  0.818787  0  5.739906  0  0  0.883892  0  5.701037  0  1.530569  0  0.846363  0.773297  0  5.772239  0
C  C50  1  0.31493460  0.60495136  0.48346315  1  0.696465  0  -0.076891  0  3.459901  0  0  -0.078893  0  3.815528  0  0  -0.063086  0  3.812033  0  0.717893  0  -0.050442  -0.090746  0  3.818141  0
C  C51  1  0.40293336  0.89599198  0.01687408  1  0.692931  0  -0.076448  0  3.461207  0  0  -0.078902  0  3.816641  0  0  -0.063096  0  3.813463  0  0.714765  0  -0.050966  -0.090742  0  3.818997  0
C  C52  1  0.68505151  0.39504414  0.51654145  1  0.695699  0  -0.076948  0  3.459779  0  0  -0.078984  0  3.815478  0  0  -0.06318  0  3.811984  0  0.718286  0  -0.050437  -0.090838  0  3.818088  0
C  C53  1  0.59706631  0.10400643  0.98312668  1  0.692969  0  -0.076289  0  3.461288  0  0  -0.078728  0  3.816698  0  0  -0.062924  0  3.813524  0  0.714758  0  -0.05088  -0.090572  0  3.819058  0
C  C54  1  0.18897770  0.55263824  0.10361183  1  0.552629  0  0.112547  0  3.718539  0  0  0.083726  0  3.966918  0  0  0.088452  0  3.986966  0  0.511401  0  0.035543  0.080709  0  3.953558  0
C  C55  1  0.84670025  0.94672938  0.39660420  1  0.487729  0  0.115257  0  3.716751  0  0  0.087041  0  3.964629  0  0  0.091758  0  3.984622  0  0.472597  0  0.037249  0.084028  0  3.951291  0
C  C56  1  0.81102636  0.44736211  0.89638722  1  0.552284  0  0.112442  0  3.718728  0  0  0.0836  0  3.967128  0  0  0.088334  0  3.987177  0  0.511286  0  0.035481  0.080584  0  3.953768  0
C  C57  1  0.15329607  0.05327486  0.60339936  1  0.487741  0  0.115226  0  3.716837  0  0  0.087052  0  3.96464  0  0  0.091768  0  3.984636  0  0.472912  0  0.037268  0.084033  0  3.951301  0
C  C58  1  0.32400112  0.46324354  0.06451914  1  -0.00605  0  -0.121014  0  3.739911  0  0  -0.128275  0  3.979341  0  0  -0.136108  0  4.003742  0  -0.07113  0  -0.083937  -0.123179  0  3.962915  0
C  C59  1  0.85271408  0.03750224  0.43512149  1  0.005675  0  -0.118872  0  3.740456  0  0  -0.126528  0  3.979429  0  0  -0.134335  0  4.003924  0  -0.059728  0  -0.082506  -0.121436  0  3.962922  0
C  C60  1  0.67600335  0.53675585  0.93548007  1  -0.006594  0  -0.120866  0  3.740149  0  0  -0.128132  0  3.979557  0  0  -0.135967  0  4.003957  0  -0.071047  0  -0.0839  -0.123037  0  3.963132  0
C  C61  1  0.14727804  0.96250395  0.56488324  1  0.005774  0  -0.118953  0  3.740588  0  0  -0.126614  0  3.979583  0  0  -0.134422  0  4.00408  0  -0.059565  0  -0.082521  -0.121525  0  3.963082  0
C  C62  1  0.40752600  0.43758728  0.12636763  1  0.024776  0  -0.00713  0  3.720457  0  0  -0.023652  0  3.96208  0  0  -0.020089  0  3.981532  0  -0.037232  0  -0.065646  -0.025918  0  3.948941  0
C  C63  1  0.97100375  0.06379674  0.37355573  1  0.043652  0  -0.008421  0  3.723343  0  0  -0.02458  0  3.964827  0  0  -0.021088  0  3.984284  0  -0.010568  0  -0.067292  -0.026782  0  3.951685  0
C  C64  1  0.59247968  0.56241113  0.87363093  1  0.025406  0  -0.007087  0  3.720557  0  0  -0.023643  0  3.962234  0  0  -0.020077  0  3.981685  0  -0.037448  0  -0.065643  -0.025912  0  3.949093  0
C  C65  1  0.02898792  0.93621139  0.62645212  1  0.043894  0  -0.008161  0  3.723204  0  0  -0.024316  0  3.964668  0  0  -0.020826  0  3.984129  0  -0.011842  0  -0.067222  -0.026518  0  3.951526  0
C  C66  1  0.35280061  0.50340757  0.22424264  1  0.068871  0  -0.113927  0  3.731884  0  0  -0.123701  0  3.97294  0  0  -0.131239  0  3.996961  0  -0.01328  0  -0.083839  -0.118877  0  3.956654  0
C  C67  1  0.07910728  0.99742210  0.27642989  1  0.042209  0  -0.116784  0  3.731808  0  0  -0.126325  0  3.973112  0  0  -0.133942  0  3.997231  0  -0.062689  0  -0.084551  -0.121493  0  3.956755  0
C  C68  1  0.64720668  0.49659278  0.77575318  1  0.069312  0  -0.113987  0  3.731896  0  0  -0.123752  0  3.973004  0  0  -0.13129  0  3.997026  0  -0.013841  0  -0.083872  -0.118938  0  3.956714  0
C  C69  1  0.92088685  0.00258700  0.72357112  1  0.042279  0  -0.116911  0  3.731879  0  0  -0.126493  0  3.973253  0  0  -0.134107  0  3.997354  0  -0.059882  0  -0.084594  -0.121665  0  3.956899  0
C  C70  1  0.21666765  0.59121977  0.25765914  1  0.496486  0  0.115303  0  3.697189  0  0  0.087963  0  3.943701  0  0  0.093162  0  3.961525  0  0.472257  0  0.039737  0.084655  0  3.931514  0
C  C71  1  0.06479808  0.90815854  0.24359168  1  0.460497  0  0.116554  0  3.697149  0  0  0.089028  0  3.943576  0  0  0.09422  0  3.961389  0  0.48193  0  0.040405  0.085709  0  3.931431  0
C  C72  1  0.78333834  0.40878253  0.74233589  1  0.49682  0  0.115456  0  3.697241  0  0  0.0881  0  3.943751  0  0  0.093304  0  3.961575  0  0.472429  0  0.039808  0.08479  0  3.931571  0
C  C73  1  0.93519152  0.09185250  0.75641175  1  0.460523  0  0.11663  0  3.697231  0  0  0.089055  0  3.943642  0  0  0.094285  0  3.961465  0  0.481733  0  0.040413  0.085746  0  3.931479  0
C  C74  1  0.57035135  0.15573861  0.31246088  1  0.5083  0  0.108614  0  3.709573  0  0  0.081405  0  3.958722  0  0  0.086062  0  3.976825  0  0.458598  0  0.037072  0.078577  0  3.946153  0
C  C75  1  0.03809916  0.34407067  0.18809207  1  0.493281  0  0.107547  0  3.709584  0  0  0.080361  0  3.958837  0  0  0.084971  0  3.976857  0  0.459622  0  0.036758  0.07753  0  3.94633  0
C  C76  1  0.42965881  0.84425980  0.68752941  1  0.508376  0  0.108696  0  3.709375  0  0  0.081457  0  3.958551  0  0  0.086111  0  3.976662  0  0.45808  0  0.037095  0.078626  0  3.945978  0
C  C77  1  0.96190209  0.65592677  0.81191150  1  0.493288  0  0.107575  0  3.709554  0  0  0.080394  0  3.958811  0  0  0.085004  0  3.976831  0  0.459725  0  0.036733  0.077561  0  3.946302  0
C  C78  1  0.57170386  0.24525961  0.35688693  1  -0.019537  0  -0.113881  0  3.740369  0  0  -0.120764  0  3.977776  0  0  -0.128097  0  4.002624  0  -0.070019  0  -0.083373  -0.115883  0  3.960462  0
C  C79  1  0.17301848  0.25593401  0.14321259  1  0.097609  0  -0.114102  0  3.741499  0  0  -0.121179  0  3.978501  0  0  -0.128479  0  4.003404  0  -0.025948  0  -0.084245  -0.116295  0  3.961126  0
C  C80  1  0.42830169  0.75473783  0.64310663  1  -0.019151  0  -0.1141  0  3.740302  0  0  -0.121021  0  3.977739  0  0  -0.128356  0  4.002588  0  -0.069609  0  -0.083499  -0.116139  0  3.960429  0
C  C81  1  0.82698433  0.74406343  0.85678465  1  0.09717  0  -0.114151  0  3.741617  0  0  -0.121197  0  3.978583  0  0  -0.128498  0  4.003482  0  -0.026054  0  -0.084248  -0.116315  0  3.961209  0
C  C82  1  0.67747839  0.28968447  0.28825995  1  0.034953  0  -0.002619  0  3.701951  0  0  -0.016128  0  3.933906  0  0  -0.013065  0  3.95303  0  -0.030638  0  -0.068548  -0.017618  0  3.920587  0
C  C83  1  0.25535174  0.21167624  0.21214678  1  -0.077177  0  -0.002942  0  3.701542  0  0  -0.016599  0  3.933576  0  0  -0.013475  0  3.952565  0  -0.086025  0  -0.068125  -0.018084  0  3.920366  0
C  C84  1  0.32252863  0.71031298  0.71173499  1  0.034498  0  -0.002618  0  3.702094  0  0  -0.016118  0  3.934038  0  0  -0.013058  0  3.953163  0  -0.03074  0  -0.068487  -0.017606  0  3.92071  0
C  C85  1  0.74465143  0.78832120  0.78785391  1  -0.077246  0  -0.002926  0  3.701575  0  0  -0.016571  0  3.933584  0  0  -0.013452  0  3.952581  0  -0.085864  0  -0.068092  -0.018055  0  3.920376  0
C  C86  1  0.77887626  0.24158069  0.17840361  1  0.071151  0  -0.122577  0  3.753659  0  0  -0.132548  0  3.996881  0  0  -0.139926  0  4.02173  0  0.006382  0  -0.088374  -0.127935  0  3.98079  0
C  C87  1  0.19970966  0.25885422  0.32276729  1  0.090128  0  -0.120731  0  3.751203  0  0  -0.13075  0  3.994334  0  0  -0.138127  0  4.01933  0  0.038588  0  -0.088708  -0.12612  0  3.978112  0
C  C88  1  0.22113067  0.75841578  0.82159103  1  0.071718  0  -0.122553  0  3.753744  0  0  -0.132508  0  3.996978  0  0  -0.139886  0  4.021823  0  0.006268  0  -0.088393  -0.127899  0  3.980891  0
C  C89  1  0.80029113  0.74114614  0.67723026  1  0.090267  0  -0.120855  0  3.75119  0  0  -0.130898  0  3.994334  0  0  -0.138279  0  4.019331  0  0.038391  0  -0.088783  -0.126291  0  3.9781  0
C  C90  1  0.76967154  0.15279995  0.14009073  1  0.508271  0  0.116251  0  3.702434  0  0  0.087044  0  3.954013  0  0  0.09272  0  3.970569  0  0.472895  0  0.037637  0.083327  0  3.943191  0
C  C91  1  0.06374881  0.34646921  0.36141791  1  0.538591  0  0.115689  0  3.699821  0  0  0.086321  0  3.951741  0  0  0.091975  0  3.968296  0  0.42578  0  0.037001  0.08257  0  3.940889  0
C  C92  1  0.23034049  0.84719555  0.85990223  1  0.509162  0  0.116314  0  3.702235  0  0  0.087107  0  3.953855  0  0  0.092791  0  3.970414  0  0.472981  0  0.037699  0.083385  0  3.943031  0
C  C93  1  0.93625324  0.65353212  0.63858258  1  0.538463  0  0.115662  0  3.699873  0  0  0.086312  0  3.951797  0  0  0.091963  0  3.968355  0  0.425966  0  0.037031  0.082556  0  3.940954  0
S  S94  1  0.50608846  0.90813134  0.29659687  1  -0.731644  0  -0.469581  0  2.369231  0  0  -0.461174  0  2.828908  0  0  -0.46381  0  2.806213  0  -0.690472  0  -0.397442  -0.460102  0  2.844426  0
S  S95  1  0.70963946  0.59112457  0.20376493  1  -0.73217  0  -0.469777  0  2.369075  0  0  -0.46072  0  2.828706  0  0  -0.463452  0  2.805955  0  -0.689141  0  -0.395681  -0.459564  0  2.844272  0
S  S96  1  0.49391122  0.09186707  0.70340389  1  -0.731708  0  -0.469534  0  2.369237  0  0  -0.461159  0  2.828972  0  0  -0.463795  0  2.806273  0  -0.690528  0  -0.397442  -0.460091  0  2.844485  0
S  S97  1  0.29035265  0.40887676  0.79623407  1  -0.732201  0  -0.46978  0  2.369214  0  0  -0.460702  0  2.828818  0  0  -0.463434  0  2.806068  0  -0.689132  0  -0.395686  -0.459554  0  2.844384  0
S  S98  1  0.86584945  0.82817728  0.08409826  1  -0.748992  0  -0.477851  0  2.354908  0  0  -0.465427  0  2.821389  0  0  -0.468026  0  2.798208  0  -0.703495  0  -0.407406  -0.463901  0  2.836826  0
S  S99  1  0.77990490  0.67001779  0.41756125  1  -0.75051  0  -0.479536  0  2.356118  0  0  -0.466834  0  2.82404  0  0  -0.469678  0  2.800831  0  -0.702691  0  -0.40657  -0.465172  0  2.839607  0
S  S100  1  0.13415233  0.17181919  0.91590249  1  -0.749071  0  -0.477791  0  2.354844  0  0  -0.465358  0  2.821297  0  0  -0.467954  0  2.798103  0  -0.703577  0  -0.407382  -0.463839  0  2.836736  0
S  S101  1  0.22009934  0.32997576  0.58243492  1  -0.750605  0  -0.479538  0  2.356107  0  0  -0.466826  0  2.824015  0  0  -0.469666  0  2.800794  0  -0.702557  0  -0.40656  -0.465169  0  2.839573  0
N  N102  1  0.36972720  0.66996631  0.39859354  1  -1.426867  0  -0.40554  0  3.262776  0  0  -0.346955  0  3.589496  0  0  -0.358821  0  3.592131  0  -1.402751  0  -0.42634  -0.339264  0  3.587775  0
N  N103  1  0.43703687  0.82955870  0.10262327  1  -1.423736  0  -0.407112  0  3.263875  0  0  -0.348154  0  3.58993  0  0  -0.360181  0  3.592847  0  -1.398202  0  -0.427871  -0.340334  0  3.588012  0
N  N104  1  0.63025891  0.33002919  0.60141106  1  -1.426281  0  -0.405426  0  3.262598  0  0  -0.346827  0  3.589316  0  0  -0.358691  0  3.591955  0  -1.403102  0  -0.426288  -0.339128  0  3.587592  0
N  N105  1  0.56295412  0.17044360  0.89738580  1  -1.423756  0  -0.407226  0  3.264086  0  0  -0.348274  0  3.590152  0  0  -0.360299  0  3.593067  0  -1.398185  0  -0.427933  -0.340448  0  3.588233  0
N  N106  1  0.13509050  0.61630966  0.19862038  1  -1.259004  0  -0.294675  0  3.352636  0  0  -0.222718  0  3.637591  0  0  -0.232993  0  3.648599  0  -1.241147  0  -0.359558  -0.216198  0  3.630226  0
N  N107  1  0.95073775  0.88228662  0.30249520  1  -1.227492  0  -0.296678  0  3.355668  0  0  -0.224664  0  3.640014  0  0  -0.234869  0  3.650978  0  -1.229392  0  -0.358975  -0.218165  0  3.632653  0
N  N108  1  0.86491468  0.38369652  0.80137318  1  -1.259204  0  -0.294671  0  3.352657  0  0  -0.222665  0  3.63757  0  0  -0.232949  0  3.648582  0  -1.240814  0  -0.359559  -0.216151  0  3.630205  0
N  N109  1  0.04925472  0.11771665  0.69750612  1  -1.227395  0  -0.296708  0  3.355784  0  0  -0.224671  0  3.6401  0  0  -0.23487  0  3.651037  0  -1.229344  0  -0.359011  -0.218154  0  3.632712  0
N  N110  1  0.66657906  0.11083482  0.20532468  1  -1.250352  0  -0.290227  0  3.358114  0  0  -0.225398  0  3.641167  0  0  -0.234623  0  3.652433  0  -1.236967  0  -0.35364  -0.219461  0  3.633538  0
N  N111  1  0.98314361  0.38812249  0.29598592  1  -1.239874  0  -0.291264  0  3.356818  0  0  -0.226227  0  3.640091  0  0  -0.2353  0  3.651037  0  -1.230131  0  -0.353327  -0.220372  0  3.63269  0
N  N112  1  0.33342625  0.88916359  0.79467044  1  -1.251636  0  -0.290139  0  3.357855  0  0  -0.225388  0  3.641035  0  0  -0.234619  0  3.652306  0  -1.236759  0  -0.353625  -0.219445  0  3.633395  0
N  N113  1  0.01685777  0.61187689  0.70401352  1  -1.239917  0  -0.29122  0  3.356774  0  0  -0.226201  0  3.640066  0  0  -0.235272  0  3.651013  0  -1.230185  0  -0.353303  -0.220345  0  3.632658  0
