# generated using pymatgen
data_CdH14C17N6Cl2O
_symmetry_space_group_name_H-M   'P 1'
_cell_length_a   7.85246075
_cell_length_b   8.45123075
_cell_length_c   13.76708293
_cell_angle_alpha   92.88908174
_cell_angle_beta   89.98149813
_cell_angle_gamma   107.45493414
_symmetry_Int_Tables_number   1
_chemical_formula_structural   CdH14C17N6Cl2O
_chemical_formula_sum   'Cd2 H28 C34 N12 Cl4 O2'
_cell_volume   870.34211088
_cell_formula_units_Z   2
loop_
 _symmetry_equiv_pos_site_id
 _symmetry_equiv_pos_as_xyz
  1  'x, y, z'
loop_
 _atom_site_type_symbol
 _atom_site_label
 _atom_site_symmetry_multiplicity
 _atom_site_fract_x
 _atom_site_fract_y
 _atom_site_fract_z
 _atom_site_occupancy
 _atom_site_hle17_bader_spin_density
 _atom_site_hle17_ddec_charge
 _atom_site_hle17_ddec_spin_density
 _atom_site_hle17_ddec_sum_bond_order
 _atom_site_hle17_magmom
 _atom_site_hse06_10hf_bader_spin_density
 _atom_site_hse06_10hf_ddec_charge
 _atom_site_hse06_10hf_ddec_spin_density
 _atom_site_hse06_10hf_ddec_sum_bond_order
 _atom_site_hse06_10hf_magmom
 _atom_site_hse06_bader_spin_density
 _atom_site_hse06_ddec_charge
 _atom_site_hse06_ddec_spin_density
 _atom_site_hse06_ddec_sum_bond_order
 _atom_site_hse06_magmom
 _atom_site_pbe_bader_spin_density
 _atom_site_pbe_cm5_charge
 _atom_site_pbe_ddec_charge
 _atom_site_pbe_ddec_spin_density
 _atom_site_pbe_ddec_sum_bond_order
 _atom_site_pbe_magmom
Cd  Cd0  1  0.79162001  0.80345559  0.47727452  1  0  1.015255  0  1.854384  0  0  0.839075  0  2.308675  0  0  0.886229  0  2.266475  0  0  0.641246  0.805954  0  2.337174  0
Cd  Cd1  1  0.20837897  0.19654200  0.52272485  1  0  1.015221  0  1.854417  0  0  0.839027  0  2.308733  0  0  0.886182  0  2.266532  0  0  0.641227  0.805904  0  2.337233  0
H  H2  1  0.40207168  0.66473683  0.54106629  1  0  0.400833  0  0.914192  0  0  0.369376  0  0.981539  0  0  0.379707  0  0.966693  0  0  0.251445  0.362038  0  0.992034  0
H  H3  1  0.59792811  0.33526325  0.45893461  1  0  0.400817  0  0.914226  0  0  0.369363  0  0.98156  0  0  0.379692  0  0.966722  0  0  0.251438  0.362027  0  0.992052  0
H  H4  1  0.39547796  0.81292196  0.47707032  1  0  0.414386  0  0.863795  0  0  0.387221  0  0.933595  0  0  0.39656  0  0.920033  0  0  0.278037  0.380573  0  0.943245  0
H  H5  1  0.60452310  0.18707811  0.52293059  1  0  0.414385  0  0.863793  0  0  0.387217  0  0.9336  0  0  0.396558  0  0.920035  0  0  0.278026  0.380568  0  0.943252  0
H  H6  1  0.57723534  0.67424065  0.28922201  1  0  0.076455  0  0.995267  0  0  0.081174  0  1.068214  0  0  0.083861  0  1.066079  0  0  0.101302  0.079198  0  1.069805  0
H  H7  1  0.42276357  0.32576067  0.71078038  1  0  0.076466  0  0.995234  0  0  0.081164  0  1.068215  0  0  0.083852  0  1.066076  0  0  0.101314  0.079193  0  1.069791  0
H  H8  1  0.83006414  0.16207523  0.37935748  1  0  0.073311  0  0.969647  0  0  0.077597  0  1.043747  0  0  0.07969  0  1.041781  0  0  0.103375  0.075975  0  1.045275  0
H  H9  1  0.16993565  0.83792484  0.62064343  1  0  0.073283  0  0.969655  0  0  0.077584  0  1.043735  0  0  0.079678  0  1.041768  0  0  0.103379  0.075961  0  1.045262  0
H  H10  1  0.72350003  0.26997833  0.23215428  1  0  0.118449  0  0.948624  0  0  0.123441  0  1.014737  0  0  0.127246  0  1.013162  0  0  0.105682  0.120725  0  1.016026  0
H  H11  1  0.27649594  0.73002175  0.76784662  1  0  0.118461  0  0.948631  0  0  0.123454  0  1.014731  0  0  0.12726  0  1.013154  0  0  0.10567  0.120739  0  1.016017  0
H  H12  1  0.53336456  0.06397313  0.10751829  1  0  0.10801  0  0.984534  0  0  0.108265  0  1.064539  0  0  0.112775  0  1.059543  0  0  0.110939  0.104962  0  1.068165  0
H  H13  1  0.46663267  0.93602695  0.89248479  1  0  0.108006  0  0.984466  0  0  0.108276  0  1.064462  0  0  0.112789  0  1.059463  0  0  0.110914  0.104972  0  1.068088  0
H  H14  1  0.22885654  0.42012726  0.83094197  1  0  0.110443  0  0.963475  0  0  0.114951  0  1.035621  0  0  0.11881  0  1.033149  0  0  0.102199  0.112219  0  1.037424  0
H  H15  1  0.77115256  0.57987404  0.16905824  1  0  0.110513  0  0.963474  0  0  0.11496  0  1.035677  0  0  0.118817  0  1.033205  0  0  0.10221  0.112231  0  1.037481  0
H  H16  1  0.99736921  0.16297350  0.76468027  1  0  0.095818  0  0.959197  0  0  0.103901  0  1.0249  0  0  0.106362  0  1.023402  0  0  0.097203  0.102119  0  1.02599  0
H  H17  1  0.00264082  0.83702282  0.23532052  1  0  0.095887  0  0.959115  0  0  0.103921  0  1.024865  0  0  0.106382  0  1.023367  0  0  0.097203  0.102138  0  1.025956  0
H  H18  1  0.78743933  0.98545220  0.88325466  1  0  0.099075  0  0.962651  0  0  0.1097  0  1.025906  0  0  0.112051  0  1.025768  0  0  0.103219  0.108037  0  1.026106  0
H  H19  1  0.21256648  0.01454289  0.11674536  1  0  0.099112  0  0.962617  0  0  0.109745  0  1.02586  0  0  0.112097  0  1.025722  0  0  0.103237  0.108083  0  1.026059  0
H  H20  1  0.82188892  0.07063078  0.05875688  1  0  0.065105  0  0.969131  0  0  0.074657  0  1.032814  0  0  0.076347  0  1.032286  0  0  0.10625  0.07346  0  1.033218  0
H  H21  1  0.17811295  0.92937178  0.94124337  1  0  0.065109  0  0.96909  0  0  0.07467  0  1.032779  0  0  0.076352  0  1.032273  0  0  0.106238  0.073472  0  1.033183  0
H  H22  1  0.40490827  0.30058823  0.15241789  1  0  0.127717  0  0.97677  0  0  0.13105  0  1.048291  0  0  0.135224  0  1.045519  0  0  0.112877  0.128038  0  1.050421  0
H  H23  1  0.59509018  0.69941558  0.84758095  1  0  0.127716  0  0.976758  0  0  0.131045  0  1.048284  0  0  0.135219  0  1.045513  0  0  0.112871  0.128034  0  1.050413  0
H  H24  1  0.33514757  0.15261663  0.30871535  1  0  0.078655  0  0.954724  0  0  0.085565  0  1.021378  0  0  0.08758  0  1.02018  0  0  0.107634  0.084064  0  1.02227  0
H  H25  1  0.66485089  0.84738717  0.69128203  1  0  0.078683  0  0.954656  0  0  0.085564  0  1.021351  0  0  0.087576  0  1.020168  0  0  0.107632  0.084064  0  1.02224  0
H  H26  1  0.10140413  0.49940392  0.42300565  1  0  0.078088  0  0.961297  0  0  0.0812  0  1.035653  0  0  0.083633  0  1.033015  0  0  0.104347  0.079344  0  1.037684  0
H  H27  1  0.89859311  0.50059616  0.57699452  1  0  0.078137  0  0.961278  0  0  0.081197  0  1.035683  0  0  0.083627  0  1.033055  0  0  0.104346  0.079341  0  1.037714  0
H  H28  1  0.15060187  0.65346193  0.27231729  1  0  0.123645  0  0.96803  0  0  0.129171  0  1.036558  0  0  0.132231  0  1.035982  0  0  0.105116  0.126953  0  1.037156  0
H  H29  1  0.84939832  0.34653939  0.72768365  1  0  0.123638  0  0.967924  0  0  0.129173  0  1.036454  0  0  0.132233  0  1.035878  0  0  0.105112  0.126956  0  1.037051  0
C  C30  1  0.60209891  0.80425366  0.27332029  1  0  0.094453  0  3.697715  0  0  0.056407  0  3.941798  0  0  0.063683  0  3.959837  0  0  0.043919  0.0514  0  3.930358  0
C  C31  1  0.39790087  0.19574642  0.72667916  1  0  0.094419  0  3.697671  0  0  0.056397  0  3.941732  0  0  0.063669  0  3.959774  0  0  0.043892  0.051392  0  3.930293  0
C  C32  1  0.74673061  0.07797489  0.32372069  1  0  0.143242  0  3.682276  0  0  0.109513  0  3.931945  0  0  0.117969  0  3.949756  0  0  0.049746  0.10417  0  3.919744  0
C  C33  1  0.25326536  0.92202519  0.67628022  1  0  0.143369  0  3.682033  0  0  0.10962  0  3.93173  0  0  0.118076  0  3.949537  0  0  0.049786  0.104276  0  3.919528  0
C  C34  1  0.68691407  0.13697030  0.24177703  1  0  -0.099733  0  3.698663  0  0  -0.109943  0  3.948375  0  0  -0.117207  0  3.967919  0  0  -0.077703  -0.105421  0  3.935313  0
C  C35  1  0.31308230  0.86303102  0.75822536  1  0  -0.099848  0  3.698711  0  0  -0.110041  0  3.94844  0  0  -0.117304  0  3.967983  0  0  -0.077718  -0.10552  0  3.935378  0
C  C36  1  0.58112704  0.02320302  0.17336127  1  0  -0.039094  0  3.671161  0  0  -0.064846  0  3.917427  0  0  -0.060406  0  3.932712  0  0  -0.061319  -0.067345  0  3.907011  0
C  C37  1  0.41887234  0.97679581  0.82663887  1  0  -0.039069  0  3.671125  0  0  -0.064822  0  3.917369  0  0  -0.060385  0  3.932652  0  0  -0.061313  -0.067321  0  3.906952  0
C  C38  1  0.53873525  0.85237182  0.18832801  1  0  -0.048154  0  3.797509  0  0  -0.025486  0  4.032372  0  0  -0.032878  0  4.056318  0  0  -0.003243  -0.020994  0  4.016321  0
C  C39  1  0.46126668  0.14762700  0.81167213  1  0  -0.048173  0  3.797433  0  0  -0.025504  0  4.032318  0  0  -0.03289  0  4.056262  0  0  -0.003228  -0.021009  0  4.01626  0
C  C40  1  0.44762629  0.73574276  0.10958391  1  0  0.260784  0  3.740837  0  0  0.227442  0  4.013649  0  0  0.240126  0  4.030021  0  0  0.224795  0.219299  0  4.002269  0
C  C41  1  0.55237605  0.26425731  0.89041336  1  0  0.260892  0  3.740817  0  0  0.227512  0  4.013685  0  0  0.240193  0  4.030062  0  0  0.224847  0.21937  0  4.002302  0
C  C42  1  0.28236224  0.52514727  0.01780932  1  0  0.246  0  3.69368  0  0  0.210878  0  3.966127  0  0  0.223584  0  3.979082  0  0  0.228799  0.202432  0  3.957281  0
C  C43  1  0.71764050  0.47485404  0.98219090  1  0  0.246071  0  3.693521  0  0  0.210955  0  3.965955  0  0  0.223661  0  3.978909  0  0  0.228824  0.202487  0  3.957135  0
C  C44  1  0.14825039  0.37388766  0.98001423  1  0  0.152107  0  3.812088  0  0  0.157205  0  4.059997  0  0  0.161609  0  4.078608  0  0  0.116205  0.15415  0  4.047482  0
C  C45  1  0.85174899  0.62611117  0.01998881  1  0  0.152038  0  3.812207  0  0  0.157128  0  4.060096  0  0  0.161532  0  4.078707  0  0  0.116203  0.154088  0  4.047576  0
C  C46  1  0.13782242  0.33753399  0.87908658  1  0  -0.131024  0  3.69324  0  0  -0.1549  0  3.942812  0  0  -0.160498  0  3.963729  0  0  -0.083566  -0.151174  0  3.928674  0
C  C47  1  0.86218252  0.66246234  0.12091421  1  0  -0.131006  0  3.693634  0  0  -0.154819  0  3.943181  0  0  -0.160414  0  3.9641  0  0  -0.083543  -0.151083  0  3.929005  0
C  C48  1  0.00762126  0.19595727  0.84262403  1  0  -0.022924  0  3.735686  0  0  -0.036137  0  3.98282  0  0  -0.034811  0  4.002899  0  0  -0.077147  -0.036659  0  3.968915  0
C  C49  1  0.99238120  0.80403534  0.15737809  1  0  -0.023036  0  3.735815  0  0  -0.03621  0  3.982923  0  0  -0.034884  0  4.003003  0  0  -0.077184  -0.036735  0  3.969037  0
C  C50  1  0.89100955  0.09810388  0.90762993  1  0  -0.114574  0  3.722301  0  0  -0.130652  0  3.971517  0  0  -0.135834  0  3.992783  0  0  -0.087385  -0.127277  0  3.957112  0
C  C51  1  0.10898990  0.90189122  0.09237010  1  0  -0.114605  0  3.722293  0  0  -0.130664  0  3.971496  0  0  -0.135845  0  3.992762  0  0  -0.087399  -0.127291  0  3.957091  0
C  C52  1  0.91101608  0.14557757  0.00659133  1  0  0.132032  0  3.739829  0  0  0.108364  0  3.998798  0  0  0.113922  0  4.015784  0  0  0.042634  0.104705  0  3.987211  0
C  C53  1  0.08897902  0.85442376  0.99340743  1  0  0.132019  0  3.739644  0  0  0.108308  0  3.998668  0  0  0.113862  0  4.01565  0  0  0.042616  0.10465  0  3.987081  0
C  C54  1  0.27986592  0.48619559  0.20013138  1  0  0.248771  0  3.735657  0  0  0.235487  0  3.98845  0  0  0.246406  0  4.005047  0  0  0.116467  0.228238  0  3.977272  0
C  C55  1  0.72013474  0.51380324  0.79986803  1  0  0.248812  0  3.735674  0  0  0.235495  0  3.988499  0  0  0.246415  0  4.005095  0  0  0.116476  0.228248  0  3.97732  0
C  C56  1  0.33218558  0.34370311  0.21009657  1  0  -0.18071  0  3.678319  0  0  -0.204817  0  3.938795  0  0  -0.211601  0  3.95543  0  0  -0.079534  -0.200629  0  3.928043  0
C  C57  1  0.66781542  0.65630069  0.78990300  1  0  -0.180739  0  3.678196  0  0  -0.204819  0  3.938672  0  0  -0.211601  0  3.955305  0  0  -0.079516  -0.200634  0  3.927921  0
C  C58  1  0.29617520  0.26369595  0.29679646  1  0  0.145999  0  3.696272  0  0  0.118418  0  3.941657  0  0  0.125391  0  3.96054  0  0  0.046246  0.113853  0  3.928989  0
C  C59  1  0.70382332  0.73630413  0.70320227  1  0  0.145986  0  3.696268  0  0  0.118409  0  3.941672  0  0  0.125378  0  3.960556  0  0  0.046225  0.113843  0  3.929006  0
C  C60  1  0.16571302  0.45652564  0.36135563  1  0  0.152281  0  3.699437  0  0  0.122549  0  3.949203  0  0  0.130312  0  3.966768  0  0  0.049727  0.117419  0  3.937498  0
C  C61  1  0.83428676  0.54347443  0.63864527  1  0  0.152276  0  3.699471  0  0  0.122583  0  3.949247  0  0  0.130347  0  3.966806  0  0  0.049743  0.117453  0  3.937541  0
C  C62  1  0.19386641  0.54334348  0.27648070  1  0  -0.17959  0  3.67164  0  0  -0.199865  0  3.923384  0  0  -0.207449  0  3.942189  0  0  -0.079929  -0.195103  0  3.911067  0
C  C63  1  0.80613499  0.45666157  0.72352036  1  0  -0.179595  0  3.671697  0  0  -0.199862  0  3.923431  0  0  -0.207449  0  3.942241  0  0  -0.079932  -0.1951  0  3.911109  0
N  N64  1  0.70416778  0.91494166  0.33887591  1  0  -0.322515  0  3.283736  0  0  -0.238882  0  3.537746  0  0  -0.259861  0  3.558785  0  0  -0.330797  -0.22458  0  3.522936  0
N  N65  1  0.29582986  0.08505966  0.66112576  1  0  -0.322497  0  3.283631  0  0  -0.238861  0  3.537653  0  0  -0.25984  0  3.558692  0  0  -0.330793  -0.224559  0  3.522842  0
N  N66  1  0.47589354  0.77216352  0.01707108  1  0  -0.270399  0  2.978224  0  0  -0.249869  0  3.275977  0  0  -0.259759  0  3.290646  0  0  -0.217497  -0.243039  0  3.265787  0
N  N67  1  0.52410920  0.22783779  0.98292695  1  0  -0.27051  0  2.978351  0  0  -0.249973  0  3.276132  0  0  -0.259864  0  3.290805  0  0  -0.217572  -0.243138  0  3.26593  0
N  N68  1  0.37241796  0.64219017  0.96038603  1  0  -0.264304  0  2.987531  0  0  -0.241496  0  3.283026  0  0  -0.251151  0  3.297825  0  0  -0.216607  -0.234658  0  3.272723  0
N  N69  1  0.62758397  0.35780865  0.03961193  1  0  -0.264298  0  2.987468  0  0  -0.241487  0  3.282955  0  0  -0.251143  0  3.297759  0  0  -0.216602  -0.234645  0  3.27266  0
N  N70  1  0.32679225  0.57818219  0.11414108  1  0  -0.196643  0  3.43331  0  0  -0.112241  0  3.647053  0  0  -0.129911  0  3.667725  0  0  -0.199576  -0.100481  0  3.632907  0
N  N71  1  0.67320754  0.42181788  0.88585910  1  0  -0.196667  0  3.433272  0  0  -0.112249  0  3.647037  0  0  -0.129917  0  3.66771  0  0  -0.19957  -0.100485  0  3.632898  0
N  N72  1  0.03656442  0.28003852  0.04338135  1  0  -0.332411  0  3.053763  0  0  -0.303916  0  3.31709  0  0  -0.314432  0  3.333091  0  0  -0.318442  -0.296454  0  3.30604  0
N  N73  1  0.96343074  0.71995907  0.95661875  1  0  -0.3324  0  3.053541  0  0  -0.303887  0  3.316875  0  0  -0.314401  0  3.332874  0  0  -0.318411  -0.296426  0  3.305821  0
N  N74  1  0.21555394  0.31943177  0.37168336  1  0  -0.334176  0  3.254353  0  0  -0.253715  0  3.509049  0  0  -0.27439  0  3.529878  0  0  -0.327159  -0.239724  0  3.494698  0
N  N75  1  0.78444284  0.68057079  0.62831471  1  0  -0.334224  0  3.254412  0  0  -0.253744  0  3.509085  0  0  -0.274419  0  3.529913  0  0  -0.327171  -0.239753  0  3.494733  0
Cl  Cl76  1  0.14327541  0.89896466  0.42947555  1  0  -0.591955  0  0.932084  0  0  -0.526738  0  1.206492  0  0  -0.544099  0  1.183667  0  0  -0.290674  -0.514152  0  1.222  0
Cl  Cl77  1  0.85672565  0.10103541  0.57052463  1  0  -0.591961  0  0.932085  0  0  -0.526733  0  1.206482  0  0  -0.544096  0  1.183663  0  0  -0.290672  -0.514149  0  1.221989  0
Cl  Cl78  1  0.75540592  0.52439572  0.38160436  1  0  -0.598776  0  0.889603  0  0  -0.532364  0  1.14072  0  0  -0.550273  0  1.122023  0  0  -0.299354  -0.519227  0  1.15344  0
Cl  Cl79  1  0.24459347  0.47560311  0.61839505  1  0  -0.598757  0  0.889582  0  0  -0.532349  0  1.140725  0  0  -0.550261  0  1.122023  0  0  -0.299348  -0.519212  0  1.153443  0
O  O80  1  0.47774165  0.76259962  0.50784484  1  0  -0.833937  0  1.909394  0  0  -0.77675  0  2.102444  0  0  -0.796747  0  2.072659  0  0  -0.599476  -0.762427  0  2.123297  0
O  O81  1  0.52225774  0.23739921  0.49215530  1  0  -0.833926  0  1.90941  0  0  -0.776733  0  2.102476  0  0  -0.796735  0  2.072678  0  0  -0.599459  -0.76241  0  2.123328  0
