# generated using pymatgen
data_SnH15Au(C10N)2
_symmetry_space_group_name_H-M   'P 1'
_cell_length_a   7.24665882
_cell_length_b   11.88465410
_cell_length_c   11.88458166
_cell_angle_alpha   105.32338484
_cell_angle_beta   103.19627287
_cell_angle_gamma   103.19634738
_symmetry_Int_Tables_number   1
_chemical_formula_structural   SnH15Au(C10N)2
_chemical_formula_sum   'Sn2 H30 Au2 C40 N4'
_cell_volume   914.56606969
_cell_formula_units_Z   2
loop_
 _symmetry_equiv_pos_site_id
 _symmetry_equiv_pos_as_xyz
  1  'x, y, z'
loop_
 _atom_site_type_symbol
 _atom_site_label
 _atom_site_symmetry_multiplicity
 _atom_site_fract_x
 _atom_site_fract_y
 _atom_site_fract_z
 _atom_site_occupancy
 _atom_site_hle17_bader_spin_density
 _atom_site_hle17_ddec_charge
 _atom_site_hle17_ddec_spin_density
 _atom_site_hle17_ddec_sum_bond_order
 _atom_site_hle17_magmom
 _atom_site_hse06_10hf_bader_spin_density
 _atom_site_hse06_10hf_ddec_charge
 _atom_site_hse06_10hf_ddec_spin_density
 _atom_site_hse06_10hf_ddec_sum_bond_order
 _atom_site_hse06_10hf_magmom
 _atom_site_hse06_bader_spin_density
 _atom_site_hse06_ddec_charge
 _atom_site_hse06_ddec_spin_density
 _atom_site_hse06_ddec_sum_bond_order
 _atom_site_hse06_magmom
 _atom_site_pbe_bader_spin_density
 _atom_site_pbe_cm5_charge
 _atom_site_pbe_ddec_charge
 _atom_site_pbe_ddec_spin_density
 _atom_site_pbe_ddec_sum_bond_order
 _atom_site_pbe_magmom
Sn  Sn0  1  0.74999387  0.69041241  0.30958742  1  0  1.182958  0  3.024242  0  0  0.992002  0  3.487563  0  0  1.032212  0  3.480404  0  0  0.570775  0.966017  0  3.490735  0
Sn  Sn1  1  0.24999549  0.30958840  0.69041032  1  0  1.182973  0  3.024194  0  0  0.992017  0  3.487536  0  0  1.032223  0  3.480382  0  0  0.570782  0.966027  0  3.490716  0
H  H2  1  0.07566752  0.58216246  0.41705509  1  0  0.084935  0  0.970069  0  0  0.09567  0  1.034531  0  0  0.098029  0  1.033884  0  0  0.097613  0.093966  0  1.035099  0
H  H3  1  0.42432878  0.58294441  0.41784430  1  0  0.084953  0  0.970162  0  0  0.095715  0  1.034581  0  0  0.098073  0  1.033934  0  0  0.097631  0.094013  0  1.035147  0
H  H4  1  0.92433264  0.41784290  0.58294707  1  0  0.084938  0  0.970085  0  0  0.095684  0  1.034532  0  0  0.098043  0  1.033883  0  0  0.097616  0.093981  0  1.035098  0
H  H5  1  0.57566897  0.41705087  0.58215832  1  0  0.084902  0  0.970145  0  0  0.09568  0  1.034553  0  0  0.09804  0  1.033904  0  0  0.097606  0.093977  0  1.035119  0
H  H6  1  0.14617869  0.38272653  0.36917704  1  0  0.087455  0  0.974183  0  0  0.098622  0  1.03482  0  0  0.100161  0  1.036497  0  0  0.095747  0.097463  0  1.03382  0
H  H7  1  0.35383021  0.63082678  0.61728360  1  0  0.087448  0  0.974208  0  0  0.098676  0  1.034779  0  0  0.100214  0  1.03646  0  0  0.095771  0.097523  0  1.033768  0
H  H8  1  0.85382807  0.61728063  0.63082655  1  0  0.087476  0  0.974204  0  0  0.098672  0  1.034806  0  0  0.100212  0  1.036489  0  0  0.095767  0.097519  0  1.033797  0
H  H9  1  0.64617554  0.36917029  0.38272065  1  0  0.087434  0  0.974256  0  0  0.098642  0  1.034854  0  0  0.100181  0  1.036533  0  0  0.095759  0.097487  0  1.033848  0
H  H10  1  0.92807857  0.20920125  0.18447477  1  0  0.074738  0  0.991262  0  0  0.084763  0  1.058068  0  0  0.086568  0  1.058369  0  0  0.092836  0.083533  0  1.057658  0
H  H11  1  0.57193373  0.81553178  0.79080707  1  0  0.074727  0  0.991241  0  0  0.084734  0  1.05808  0  0  0.086549  0  1.058367  0  0  0.092815  0.083506  0  1.057672  0
H  H12  1  0.07193477  0.79080496  0.81553039  1  0  0.074757  0  0.991226  0  0  0.084762  0  1.058067  0  0  0.086585  0  1.058339  0  0  0.092826  0.083531  0  1.057658  0
H  H13  1  0.42807301  0.18446711  0.20919526  1  0  0.074727  0  0.991236  0  0  0.084759  0  1.058052  0  0  0.086563  0  1.05835  0  0  0.092804  0.083529  0  1.057641  0
H  H14  1  0.63535555  0.23379235  0.04458462  1  0  0.082402  0  0.973181  0  0  0.094271  0  1.033043  0  0  0.095743  0  1.034674  0  0  0.093771  0.093233  0  1.032118  0
H  H15  1  0.86465390  0.95541813  0.76620730  1  0  0.082387  0  0.973159  0  0  0.094257  0  1.033028  0  0  0.095729  0  1.034659  0  0  0.093751  0.093193  0  1.032124  0
H  H16  1  0.36465637  0.76620835  0.95541893  1  0  0.082428  0  0.973098  0  0  0.094259  0  1.033009  0  0  0.095732  0  1.034636  0  0  0.093746  0.093199  0  1.03211  0
H  H17  1  0.13534917  0.04458166  0.23378967  1  0  0.082441  0  0.973136  0  0  0.094273  0  1.033037  0  0  0.095745  0  1.034669  0  0  0.09376  0.09322  0  1.032128  0
H  H18  1  0.55835794  0.42930244  0.09474205  1  0  0.083662  0  0.963888  0  0  0.095775  0  1.024678  0  0  0.097447  0  1.025293  0  0  0.095287  0.094573  0  1.024292  0
H  H19  1  0.94163473  0.90525597  0.57069035  1  0  0.083651  0  0.963861  0  0  0.095761  0  1.024651  0  0  0.097432  0  1.025267  0  0  0.0953  0.094561  0  1.024258  0
H  H20  1  0.44164364  0.57069464  0.90525822  1  0  0.083634  0  0.963884  0  0  0.095739  0  1.024683  0  0  0.097411  0  1.025297  0  0  0.095278  0.094542  0  1.024295  0
H  H21  1  0.05835518  0.09474297  0.42930278  1  0  0.083637  0  0.963898  0  0  0.09575  0  1.024691  0  0  0.097422  0  1.025307  0  0  0.095278  0.094552  0  1.024302  0
H  H22  1  0.90089200  0.70902781  0.08239551  1  0  0.065102  0  1.00288  0  0  0.069459  0  1.083594  0  0  0.073208  0  1.080018  0  0  0.080171  0.066712  0  1.086179  0
H  H23  1  0.59910606  0.91760067  0.29097165  1  0  0.065078  0  1.002897  0  0  0.069456  0  1.083592  0  0  0.073207  0  1.080016  0  0  0.080165  0.066705  0  1.086183  0
H  H24  1  0.09910347  0.29097114  0.91760349  1  0  0.065099  0  1.002893  0  0  0.069461  0  1.083599  0  0  0.073211  0  1.080021  0  0  0.08016  0.066706  0  1.086194  0
H  H25  1  0.40089038  0.08240009  0.70902628  1  0  0.065054  0  1.002924  0  0  0.06944  0  1.083614  0  0  0.073189  0  1.080038  0  0  0.080162  0.066677  0  1.086212  0
H  H26  1  0.89615776  0.83810459  0.95057438  1  0  0.082909  0  0.973487  0  0  0.093892  0  1.036568  0  0  0.09606  0  1.036453  0  0  0.097904  0.092295  0  1.036613  0
H  H27  1  0.60384742  0.04942598  0.16189957  1  0  0.082943  0  0.973422  0  0  0.093928  0  1.036502  0  0  0.096097  0  1.036385  0  0  0.097912  0.092331  0  1.036544  0
H  H28  1  0.10384242  0.16189525  0.04942554  1  0  0.082902  0  0.973485  0  0  0.093885  0  1.036566  0  0  0.096053  0  1.03645  0  0  0.097907  0.092286  0  1.036611  0
H  H29  1  0.39615374  0.95057568  0.83809927  1  0  0.082944  0  0.973448  0  0  0.093964  0  1.036487  0  0  0.096134  0  1.036371  0  0  0.097906  0.092363  0  1.036537  0
H  H30  1  0.75000253  0.01010039  0.98990218  1  0  0.081525  0  0.955034  0  0  0.095086  0  1.013591  0  0  0.097434  0  1.013005  0  0  0.099734  0.093497  0  1.014024  0
H  H31  1  0.24999956  0.98990034  0.01009657  1  0  0.081564  0  0.955034  0  0  0.095121  0  1.013589  0  0  0.097469  0  1.013003  0  0  0.099749  0.093531  0  1.014024  0
Au  Au32  1  0.49999649  0.00000052  0.50000359  1  0  0.127225  0  2.428213  0  0  0.085123  0  2.895518  0  0  0.088492  0  2.869137  0  0  0.334122  0.082624  0  2.913661  0
Au  Au33  1  0.99999766  0.50000038  0.99999869  1  0  0.127184  0  2.428114  0  0  0.085082  0  2.895402  0  0  0.088449  0  2.869028  0  0  0.334078  0.082585  0  2.913544  0
C  C34  1  0.24223860  0.87046051  0.44074958  1  0  0.109333  0  3.547935  0  0  0.09515  0  3.891147  0  0  0.10634  0  3.898655  0  0  0.03278  0.08772  0  3.886094  0
C  C35  1  0.25776170  0.55925465  0.12954706  1  0  0.109399  0  3.54827  0  0  0.09522  0  3.891462  0  0  0.106404  0  3.898973  0  0  0.032868  0.087784  0  3.886413  0
C  C36  1  0.75776619  0.12954577  0.55925771  1  0  0.109319  0  3.548361  0  0  0.095136  0  3.891553  0  0  0.106321  0  3.899063  0  0  0.032815  0.0877  0  3.886508  0
C  C37  1  0.74223893  0.44074611  0.87045401  1  0  0.109398  0  3.547963  0  0  0.095213  0  3.891168  0  0  0.1064  0  3.898676  0  0  0.032818  0.087781  0  3.886118  0
C  C38  1  0.81253210  0.51984795  0.25919209  1  0  -0.311314  0  3.73967  0  0  -0.258068  0  4.002003  0  0  -0.270512  0  4.031422  0  0  -0.107663  -0.249746  0  3.981517  0
C  C39  1  0.68746229  0.74080662  0.48014945  1  0  -0.311369  0  3.739828  0  0  -0.258124  0  4.002171  0  0  -0.27057  0  4.031592  0  0  -0.107696  -0.24981  0  3.981692  0
C  C40  1  0.18747044  0.48015096  0.74080794  1  0  -0.311467  0  3.739824  0  0  -0.258222  0  4.002171  0  0  -0.270666  0  4.031589  0  0  -0.107704  -0.249897  0  3.981688  0
C  C41  1  0.31253037  0.25918957  0.51984760  1  0  -0.311338  0  3.739743  0  0  -0.258087  0  4.002078  0  0  -0.270531  0  4.031496  0  0  -0.107657  -0.249766  0  3.981595  0
C  C42  1  0.97787002  0.50567453  0.33585575  1  0  -0.052994  0  3.813327  0  0  -0.074729  0  4.059053  0  0  -0.074306  0  4.081707  0  0  -0.094957  -0.075087  0  4.043814  0
C  C43  1  0.52212856  0.66414503  0.49432888  1  0  -0.053067  0  3.81341  0  0  -0.074825  0  4.059148  0  0  -0.0744  0  4.081801  0  0  -0.095005  -0.075189  0  4.043931  0
C  C44  1  0.02213345  0.49432896  0.66414559  1  0  -0.052963  0  3.813329  0  0  -0.074708  0  4.059061  0  0  -0.074283  0  4.081715  0  0  -0.094972  -0.075071  0  4.043834  0
C  C45  1  0.47786827  0.33585117  0.50567215  1  0  -0.052999  0  3.813353  0  0  -0.074769  0  4.059091  0  0  -0.074344  0  4.081743  0  0  -0.094979  -0.07513  0  4.043866  0
C  C46  1  0.01871705  0.39399265  0.30889882  1  0  -0.068021  0  3.744499  0  0  -0.076484  0  3.985615  0  0  -0.079117  0  4.007306  0  0  -0.093655  -0.074647  0  3.971014  0
C  C47  1  0.48128843  0.69110486  0.60601402  1  0  -0.068003  0  3.744614  0  0  -0.076514  0  3.985733  0  0  -0.079149  0  4.007429  0  0  -0.093667  -0.07468  0  3.97114  0
C  C48  1  0.98128925  0.60601082  0.69110293  1  0  -0.067967  0  3.74459  0  0  -0.076447  0  3.985703  0  0  -0.079087  0  4.007404  0  0  -0.093626  -0.074614  0  3.971108  0
C  C49  1  0.51871500  0.30889314  0.39398844  1  0  -0.067944  0  3.744632  0  0  -0.076437  0  3.985756  0  0  -0.079073  0  4.00745  0  0  -0.093658  -0.074606  0  3.97116  0
C  C50  1  0.89569633  0.29613848  0.20423775  1  0  -0.070312  0  3.772999  0  0  -0.082998  0  4.01512  0  0  -0.08417  0  4.036402  0  0  -0.094606  -0.081956  0  4.00018  0
C  C51  1  0.60431093  0.79576546  0.70386525  1  0  -0.070384  0  3.773131  0  0  -0.083064  0  4.015252  0  0  -0.084243  0  4.036535  0  0  -0.094619  -0.082023  0  4.000309  0
C  C52  1  0.10431278  0.70386499  0.79576525  1  0  -0.070495  0  3.77309  0  0  -0.083178  0  4.015216  0  0  -0.084361  0  4.036499  0  0  -0.094638  -0.082124  0  4.000263  0
C  C53  1  0.39569253  0.20423252  0.29613553  1  0  -0.070458  0  3.773168  0  0  -0.08316  0  4.015288  0  0  -0.08433  0  4.036574  0  0  -0.094623  -0.08211  0  4.000339  0
C  C54  1  0.73155749  0.30951824  0.12692273  1  0  -0.08342  0  3.77848  0  0  -0.091867  0  4.023728  0  0  -0.094676  0  4.044761  0  0  -0.099333  -0.089988  0  4.009131  0
C  C55  1  0.76844753  0.87308047  0.69048112  1  0  -0.083308  0  3.778353  0  0  -0.091749  0  4.023553  0  0  -0.094559  0  4.044592  0  0  -0.099268  -0.089846  0  4.008947  0
C  C56  1  0.26845349  0.69048063  0.87308022  1  0  -0.083327  0  3.778343  0  0  -0.091734  0  4.023539  0  0  -0.094543  0  4.044579  0  0  -0.099254  -0.08984  0  4.008947  0
C  C57  1  0.23155079  0.12691845  0.30951661  1  0  -0.083332  0  3.77844  0  0  -0.091741  0  4.023645  0  0  -0.094548  0  4.044677  0  0  -0.099247  -0.089848  0  4.009048  0
C  C58  1  0.68898709  0.42085742  0.15482822  1  0  -0.05676  0  3.8382  0  0  -0.078244  0  4.084969  0  0  -0.077448  0  4.10745  0  0  -0.099414  -0.07827  0  4.069323  0
C  C59  1  0.81100844  0.84516943  0.57913640  1  0  -0.056716  0  3.838223  0  0  -0.078198  0  4.084988  0  0  -0.077401  0  4.107472  0  0  -0.099405  -0.078219  0  4.069326  0
C  C60  1  0.31101452  0.57913964  0.84517037  1  0  -0.056676  0  3.8383  0  0  -0.078153  0  4.085056  0  0  -0.077356  0  4.107536  0  0  -0.0994  -0.078183  0  4.06941  0
C  C61  1  0.18898616  0.15482765  0.42085780  1  0  -0.056748  0  3.838291  0  0  -0.078233  0  4.08505  0  0  -0.077437  0  4.107533  0  0  -0.099424  -0.078261  0  4.069401  0
C  C62  1  0.74999519  0.80386509  0.19613048  1  0  -0.274836  0  3.691233  0  0  -0.222819  0  3.938108  0  0  -0.234629  0  3.970377  0  0  -0.097907  -0.215308  0  3.916426  0
C  C63  1  0.24999745  0.19613387  0.80386811  1  0  -0.274819  0  3.691179  0  0  -0.222809  0  3.938058  0  0  -0.234619  0  3.970326  0  0  -0.097915  -0.215298  0  3.916369  0
C  C64  1  0.83410121  0.78312563  0.10038203  1  0  -0.048828  0  3.806708  0  0  -0.061793  0  4.04123  0  0  -0.062972  0  4.065026  0  0  -0.093498  -0.060839  0  4.025208  0
C  C65  1  0.66589569  0.89961585  0.21687283  1  0  -0.048746  0  3.806584  0  0  -0.061723  0  4.041081  0  0  -0.062904  0  4.064878  0  0  -0.09343  -0.060767  0  4.025065  0
C  C66  1  0.16589424  0.21687332  0.89961782  1  0  -0.048868  0  3.806724  0  0  -0.061831  0  4.04124  0  0  -0.06301  0  4.065037  0  0  -0.093491  -0.06087  0  4.025221  0
C  C67  1  0.33410121  0.10038308  0.78312554  1  0  -0.048784  0  3.806663  0  0  -0.06177  0  4.041187  0  0  -0.062949  0  4.064983  0  0  -0.093481  -0.060801  0  4.025165  0
C  C68  1  0.83304895  0.85656464  0.02592541  1  0  -0.075488  0  3.764161  0  0  -0.084866  0  4.004865  0  0  -0.08715  0  4.026792  0  0  -0.093644  -0.083278  0  3.990044  0
C  C69  1  0.66695289  0.97407384  0.14343661  1  0  -0.075579  0  3.764213  0  0  -0.084969  0  4.004941  0  0  -0.087255  0  4.026869  0  0  -0.093701  -0.08338  0  3.990116  0
C  C70  1  0.16695123  0.14343520  0.97407452  1  0  -0.075399  0  3.764258  0  0  -0.08478  0  4.004967  0  0  -0.087063  0  4.026894  0  0  -0.09362  -0.083192  0  3.990142  0
C  C71  1  0.33304731  0.02592599  0.85656247  1  0  -0.075531  0  3.764173  0  0  -0.084945  0  4.004891  0  0  -0.087232  0  4.02682  0  0  -0.093678  -0.083355  0  3.990065  0
C  C72  1  0.75000016  0.95235408  0.04764988  1  0  -0.079648  0  3.782605  0  0  -0.095164  0  4.035295  0  0  -0.096914  0  4.0562  0  0  -0.092936  -0.094213  0  4.021599  0
C  C73  1  0.24999907  0.04764668  0.95235013  1  0  -0.079734  0  3.782621  0  0  -0.095256  0  4.035332  0  0  -0.097008  0  4.056239  0  0  -0.092949  -0.094307  0  4.021637  0
N  N74  1  0.08562775  0.79652735  0.40539521  1  0  -0.422001  0  3.031456  0  0  -0.345663  0  3.288658  0  0  -0.366497  0  3.306868  0  0  -0.316255  -0.331986  0  3.276166  0
N  N75  1  0.41435834  0.59459977  0.20347543  1  0  -0.422007  0  3.031884  0  0  -0.345666  0  3.289076  0  0  -0.366498  0  3.307289  0  0  -0.316277  -0.331989  0  3.276597  0
N  N76  1  0.91435973  0.20347256  0.59460202  1  0  -0.421946  0  3.031976  0  0  -0.345602  0  3.289169  0  0  -0.366433  0  3.30738  0  0  -0.316252  -0.331922  0  3.276688  0
N  N77  1  0.58563289  0.40539645  0.79652226  1  0  -0.422045  0  3.031547  0  0  -0.345706  0  3.288749  0  0  -0.366539  0  3.306961  0  0  -0.316267  -0.332029  0  3.276268  0
