# generated using pymatgen
data_Zn2H15C16N2O8F
_symmetry_space_group_name_H-M   'P 1'
_cell_length_a   9.79271660
_cell_length_b   11.14614946
_cell_length_c   11.16572365
_cell_angle_alpha   91.19868065
_cell_angle_beta   93.73406668
_cell_angle_gamma   82.87202542
_symmetry_Int_Tables_number   1
_chemical_formula_structural   Zn2H15C16N2O8F
_chemical_formula_sum   'Zn2 H15 C16 N2 O8 F1'
_cell_volume   1206.66291413
_cell_formula_units_Z   1
loop_
 _symmetry_equiv_pos_site_id
 _symmetry_equiv_pos_as_xyz
  1  'x, y, z'
loop_
 _atom_site_type_symbol
 _atom_site_label
 _atom_site_symmetry_multiplicity
 _atom_site_fract_x
 _atom_site_fract_y
 _atom_site_fract_z
 _atom_site_occupancy
 _atom_site_pbe_bader_charge
 _atom_site_pbe_bader_spin_density
 _atom_site_pbe_cm5_charge
 _atom_site_pbe_ddec_charge
 _atom_site_pbe_ddec_spin_density
 _atom_site_pbe_ddec_sum_bond_order
 _atom_site_pbe_magmom
Zn  Zn0  1  0.64396100  0.48707172  0.51017388  1  1.282177  0  0.662195  0.845866  0  2.418466  0
Zn  Zn1  1  0.35927497  0.49813042  0.49302707  1  1.287924  0  0.662706  0.860692  0  2.400622  0
H  H2  1  0.44318180  0.11346678  0.34051359  1  0.072737  0  0.109217  0.132359  0  0.989094  0
H  H3  1  0.91456060  0.48789721  0.58988672  1  0.429829  0  0.321726  0.288282  0  0.904946  0
H  H4  1  0.09277764  0.56922530  0.52132017  1  0.425611  0  0.316578  0.290915  0  0.917342  0
H  H5  1  0.40860630  0.90415923  0.55349820  1  0.096232  0  0.10506  0.13287  0  0.989832  0
H  H6  1  0.30336303  0.52725974  0.10147917  1  0.087068  0  0.105212  0.102491  0  0.989155  0
H  H7  1  0.61085363  0.42826742  0.10077296  1  0.092981  0  0.104055  0.121563  0  0.99608  0
H  H8  1  0.30192668  0.48687478  0.88012489  1  0.100657  0  0.105315  0.104151  0  0.98682  0
H  H9  1  0.60500217  0.53477860  0.90979877  1  0.08773  0  0.105361  0.121574  0  0.991904  0
H  H10  1  0.86173140  0.42711216  0.33642887  1  0.152049  0  0.14019  0.11983  0  0.961018  0
H  H11  1  0.06081608  0.26856544  0.30801867  1  0.06177  0  0.105494  0.147542  0  0.984524  0
H  H12  1  0.19208964  0.35918410  0.27253356  1  0.098785  0  0.118162  0.179486  0  0.964979  0
H  H13  1  0.21887602  0.26938828  0.40081060  1  0.152449  0  0.117065  0.187242  0  0.995574  0
H  H14  1  0.53821480  0.92708044  0.20947765  1  0.023717  0  0.091991  0.125052  0  0.992009  0
H  H15  1  0.69469078  0.89201108  0.29626229  1  0.036044  0  0.095156  0.132276  0  0.983716  0
H  H16  1  0.57950860  0.78069367  0.27547563  1  0.033656  0  0.094202  0.142817  0  1.005415  0
C  C17  1  0.50141673  0.50985373  0.73317154  1  1.559091  0  0.205697  0.634973  0  4.182246  0
C  C18  1  0.51154632  0.46309526  0.13503105  1  -0.012877  0  -0.096135  -0.236509  0  3.898064  0
C  C19  1  0.39914420  0.49871447  0.93030791  1  -0.146644  0  -0.076148  -0.031605  0  3.99938  0
C  C20  1  0.50709595  0.51534879  0.86615690  1  0.015119  0  -0.089287  -0.218946  0  3.877812  0
C  C21  1  0.92230831  0.44530303  0.41971448  1  0.728163  0  0.125337  0.131265  0  3.811497  0
C  C22  1  0.07559936  0.42758310  0.41871100  1  0.703092  0  0.185745  0.389479  0  3.908128  0
C  C23  1  0.47696401  0.72501948  0.48240353  1  1.540075  0  0.210122  0.656  0  4.162583  0
C  C24  1  0.50615847  0.46885139  0.26748153  1  1.547443  0  0.203361  0.628845  0  4.197475  0
C  C25  1  0.53525063  0.25672153  0.51394072  1  1.584422  0  0.205947  0.546476  0  4.24696  0
C  C26  1  0.46709929  0.85897237  0.48196478  1  0.042295  0  -0.103496  -0.313029  0  3.855979  0
C  C27  1  0.51607249  0.92643247  0.39944339  1  -0.059051  0  -0.002563  0.230586  0  3.984426  0
C  C28  1  0.54847075  0.12126560  0.50619454  1  0.453182  0  0.087275  0.142748  0  4.015791  0
C  C29  1  0.49714220  0.05886829  0.41333738  1  0.053737  0  -0.103808  -0.261379  0  3.999813  0
C  C30  1  0.40067916  0.49852435  0.06025263  1  -0.058973  0  -0.075085  -0.026478  0  4.002261  0
C  C31  1  0.13828737  0.32419545  0.34549226  1  -0.105804  0  -0.226088  -0.477119  0  3.87408  0
C  C32  1  0.58517939  0.87753356  0.28917780  1  -0.009541  0  -0.236279  -0.408923  0  3.953476  0
N  N33  1  0.85520187  0.47606239  0.51211944  1  -1.18712  0  -0.430698  -0.368436  0  3.262353  0
N  N34  1  0.14902000  0.49951695  0.47799765  1  -1.215204  0  -0.44571  -0.466323  0  3.18839  0
O  O35  1  0.61215304  0.52863348  0.68551231  1  -1.162349  0  -0.329236  -0.556452  0  2.260025  0
O  O36  1  0.39031596  0.48605732  0.67665149  1  -1.170906  0  -0.326431  -0.562847  0  2.283982  0
O  O37  1  0.59196323  0.66384056  0.46046278  1  -1.169876  0  -0.322625  -0.560018  0  2.287827  0
O  O38  1  0.36840239  0.68060381  0.50803245  1  -1.157428  0  -0.330876  -0.562455  0  2.250445  0
O  O39  1  0.62068184  0.44042577  0.32840041  1  -1.168696  0  -0.325969  -0.571724  0  2.283805  0
O  O40  1  0.39021385  0.50158160  0.31147058  1  -1.173718  0  -0.322838  -0.565977  0  2.311921  0
O  O41  1  0.64118426  0.30474786  0.55070470  1  -1.148629  0  -0.319483  -0.529661  0  2.28223  0
O  O42  1  0.41785428  0.31137195  0.47923274  1  -1.172693  0  -0.310817  -0.547781  0  2.365275  0
F  F43  1  0.62804909  0.06481645  0.59792838  1  -0.628528  0  -0.109597  -0.129718  0  1.344107  0
