# generated using pymatgen
data_ZnH24C26S2(NO3)4
_symmetry_space_group_name_H-M   'P 1'
_cell_length_a   11.45176292
_cell_length_b   11.29996983
_cell_length_c   14.02294373
_cell_angle_alpha   78.12945792
_cell_angle_beta   66.04940869
_cell_angle_gamma   59.55466872
_symmetry_Int_Tables_number   1
_chemical_formula_structural   ZnH24C26S2(NO3)4
_chemical_formula_sum   'Zn2 H48 C52 S4 N8 O24'
_cell_volume   1429.71590309
_cell_formula_units_Z   2
loop_
 _symmetry_equiv_pos_site_id
 _symmetry_equiv_pos_as_xyz
  1  'x, y, z'
loop_
 _atom_site_type_symbol
 _atom_site_label
 _atom_site_symmetry_multiplicity
 _atom_site_fract_x
 _atom_site_fract_y
 _atom_site_fract_z
 _atom_site_occupancy
 _atom_site_hle17_bader_spin_density
 _atom_site_hle17_ddec_charge
 _atom_site_hle17_ddec_spin_density
 _atom_site_hle17_ddec_sum_bond_order
 _atom_site_hle17_magmom
 _atom_site_hse06_10hf_bader_spin_density
 _atom_site_hse06_10hf_ddec_charge
 _atom_site_hse06_10hf_ddec_spin_density
 _atom_site_hse06_10hf_ddec_sum_bond_order
 _atom_site_hse06_10hf_magmom
 _atom_site_hse06_bader_spin_density
 _atom_site_hse06_ddec_charge
 _atom_site_hse06_ddec_spin_density
 _atom_site_hse06_ddec_sum_bond_order
 _atom_site_hse06_magmom
 _atom_site_pbe_bader_charge
 _atom_site_pbe_bader_spin_density
 _atom_site_pbe_cm5_charge
 _atom_site_pbe_ddec_charge
 _atom_site_pbe_ddec_spin_density
 _atom_site_pbe_ddec_sum_bond_order
 _atom_site_pbe_magmom
Zn  Zn0  1  0.52092249  0.00001745  0.00007640  1  0  1.03901  0  1.781484  0  0  0.862542  0  2.215642  0  0  0.909739  0  2.164693  0  1.311233  0  0.664436  0.829794  0  2.25024  0
Zn  Zn1  1  0.27102442  0.50005793  0.49995580  1  0  1.038958  0  1.782099  0  0  0.862532  0  2.216665  0  0  0.909707  0  2.165688  0  1.310389  0  0.664303  0.829778  0  2.251284  0
H  H2  1  0.31574603  0.12761845  0.56182902  1  0  0.123213  0  0.942815  0  0  0.130928  0  1.006559  0  0  0.134786  0  1.003938  0  0.132548  0  0.111111  0.12819  0  1.008497  0
H  H3  1  0.00435676  0.87325496  0.43865018  1  0  0.121822  0  0.944285  0  0  0.13032  0  1.007259  0  0  0.134191  0  1.004641  0  0.119228  0  0.111639  0.127571  0  1.009202  0
H  H4  1  0.62761102  0.62698042  0.93832245  1  0  0.121599  0  0.943766  0  0  0.129998  0  1.006768  0  0  0.133836  0  1.004157  0  0.130572  0  0.111398  0.127272  0  1.008712  0
H  H5  1  0.19318710  0.37243948  0.06181622  1  0  0.12247  0  0.942221  0  0  0.130905  0  1.005249  0  0  0.134782  0  1.00261  0  0.120782  0  0.111105  0.128162  0  1.007211  0
H  H6  1  0.12038698  0.28073309  0.70934846  1  0  0.120921  0  0.97362  0  0  0.124469  0  1.042282  0  0  0.128856  0  1.038308  0  0.157913  0  0.111456  0.121227  0  1.045273  0
H  H7  1  0.10976537  0.71990526  0.29102297  1  0  0.122096  0  0.971658  0  0  0.125024  0  1.040841  0  0  0.129381  0  1.036912  0  0.144757  0  0.111815  0.121774  0  1.043865  0
H  H8  1  0.57969454  0.78021310  0.79064595  1  0  0.121803  0  0.972098  0  0  0.125466  0  1.040525  0  0  0.129878  0  1.036528  0  0.149262  0  0.112008  0.122183  0  1.043578  0
H  H9  1  0.15076129  0.21946753  0.20943029  1  0  0.121566  0  0.972327  0  0  0.125066  0  1.040862  0  0  0.129551  0  1.036767  0  0.13107  0  0.111369  0.121764  0  1.043915  0
H  H10  1  0.82845621  0.14943053  0.70163115  1  0  0.127302  0  0.993697  0  0  0.126192  0  1.06893  0  0  0.130703  0  1.065374  0  0.18081  0  0.108778  0.122836  0  1.071657  0
H  H11  1  0.67930649  0.84993188  0.29815027  1  0  0.12625  0  0.995675  0  0  0.125628  0  1.070679  0  0  0.130076  0  1.067238  0  0.186854  0  0.108404  0.122254  0  1.073426  0
H  H12  1  0.27927741  0.65023267  0.79782115  1  0  0.126012  0  0.994178  0  0  0.125344  0  1.06913  0  0  0.129859  0  1.065591  0  0.178634  0  0.108536  0.121975  0  1.071865  0
H  H13  1  0.72764492  0.35047035  0.20145687  1  0  0.125694  0  0.992606  0  0  0.124604  0  1.068451  0  0  0.129184  0  1.064831  0  0.208783  0  0.108011  0.121164  0  1.071282  0
H  H14  1  0.02630654  0.00027202  0.54652049  1  0  0.106339  0  0.96258  0  0  0.110654  0  1.033149  0  0  0.114658  0  1.03034  0  0.10211  0  0.105764  0.107928  0  1.034809  0
H  H15  1  0.57296258  0.99925052  0.45350071  1  0  0.107737  0  0.963348  0  0  0.111376  0  1.034382  0  0  0.115377  0  1.031572  0  0.123845  0  0.106024  0.10865  0  1.036069  0
H  H16  1  0.32210660  0.50101873  0.95320628  1  0  0.105898  0  0.964562  0  0  0.109898  0  1.035381  0  0  0.113901  0  1.0326  0  0.10421  0  0.105491  0.10718  0  1.037049  0
H  H17  1  0.77665376  0.49943279  0.04612058  1  0  0.106881  0  0.963851  0  0  0.110909  0  1.034609  0  0  0.114938  0  1.031764  0  0.121794  0  0.105557  0.108122  0  1.036333  0
H  H18  1  0.20990104  0.13011695  0.34486303  1  0  0.146773  0  0.949093  0  0  0.15558  0  1.013894  0  0  0.159208  0  1.011476  0  0.136168  0  0.108692  0.153105  0  1.015679  0
H  H19  1  0.68533219  0.86966940  0.65492573  1  0  0.147471  0  0.947385  0  0  0.156501  0  1.01146  0  0  0.160074  0  1.009125  0  0.114962  0  0.109507  0.154055  0  1.013274  0
H  H20  1  0.30500465  0.63054442  0.15479370  1  0  0.146486  0  0.947934  0  0  0.155584  0  1.012153  0  0  0.159196  0  1.009738  0  0.132227  0  0.10843  0.153083  0  1.014006  0
H  H21  1  0.09054630  0.36966177  0.84466321  1  0  0.148596  0  0.94695  0  0  0.157746  0  1.011185  0  0  0.161389  0  1.008753  0  0.1084  0  0.109499  0.155266  0  1.012992  0
H  H22  1  0.35610356  0.13146167  0.36270995  1  0  0.156232  0  0.916427  0  0  0.170879  0  0.971847  0  0  0.174172  0  0.969871  0  0.115674  0  0.116087  0.168573  0  0.973325  0
H  H23  1  0.85021434  0.86876608  0.63777027  1  0  0.156793  0  0.914794  0  0  0.17089  0  0.970914  0  0  0.174153  0  0.968926  0  0.135606  0  0.115905  0.168628  0  0.972393  0
H  H24  1  0.46898457  0.63132969  0.13771820  1  0  0.155428  0  0.91416  0  0  0.169762  0  0.970081  0  0  0.172996  0  0.968145  0  0.128569  0  0.115717  0.167486  0  0.971553  0
H  H25  1  0.23785921  0.36867120  0.86259898  1  0  0.157194  0  0.914123  0  0  0.171755  0  0.969789  0  0  0.175102  0  0.967743  0  0.123094  0  0.116223  0.169441  0  0.971276  0
H  H26  1  0.36052524  0.07627811  0.84928958  1  0  0.089911  0  0.923919  0  0  0.101649  0  0.978706  0  0  0.103872  0  0.977257  0  0.114465  0  0.123284  0.099902  0  0.979903  0
H  H27  1  0.28693863  0.92336043  0.15058769  1  0  0.089809  0  0.923676  0  0  0.101945  0  0.978234  0  0  0.104198  0  0.976721  0  0.101837  0  0.123406  0.100192  0  0.979484  0
H  H28  1  0.96052136  0.57634323  0.65070774  1  0  0.088813  0  0.923488  0  0  0.100733  0  0.978388  0  0  0.102935  0  0.976941  0  0.109548  0  0.12266  0.098981  0  0.979645  0
H  H29  1  0.18666500  0.42380856  0.34930671  1  0  0.089042  0  0.923813  0  0  0.101315  0  0.978196  0  0  0.10352  0  0.976765  0  0.113135  0  0.122815  0.09957  0  0.979398  0
H  H30  1  0.14657315  0.07659119  0.84169677  1  0  0.104538  0  0.973817  0  0  0.111916  0  1.040511  0  0  0.114193  0  1.04138  0  0.079934  0  0.10335  0.110369  0  1.039913  0
H  H31  1  0.06570230  0.92328755  0.15814143  1  0  0.103858  0  0.97287  0  0  0.111684  0  1.039231  0  0  0.113977  0  1.040109  0  0.072392  0  0.10305  0.110143  0  1.038624  0
H  H32  1  0.73919757  0.57629601  0.65843568  1  0  0.103877  0  0.972975  0  0  0.112057  0  1.038739  0  0  0.114355  0  1.039575  0  0.081208  0  0.103509  0.110517  0  1.038131  0
H  H33  1  0.97298735  0.42344313  0.34189546  1  0  0.104364  0  0.974055  0  0  0.112314  0  1.040161  0  0  0.114586  0  1.041055  0  0.076885  0  0.103506  0.110758  0  1.039565  0
H  H34  1  0.80969569  0.11451417  0.14502943  1  0  0.116577  0  0.951564  0  0  0.125482  0  1.014798  0  0  0.128622  0  1.014112  0  0.107909  0  0.108429  0.123258  0  1.015408  0
H  H35  1  0.06842813  0.88534507  0.85503270  1  0  0.116269  0  0.951477  0  0  0.125222  0  1.014559  0  0  0.128405  0  1.013869  0  0.105365  0  0.108084  0.122954  0  1.0152  0
H  H36  1  0.70412490  0.61435448  0.35515856  1  0  0.116608  0  0.951575  0  0  0.125593  0  1.014432  0  0  0.128823  0  1.013646  0  0.103918  0  0.108398  0.123263  0  1.015171  0
H  H37  1  0.67413116  0.38531177  0.64528186  1  0  0.115905  0  0.951288  0  0  0.124502  0  1.015004  0  0  0.127701  0  1.014298  0  0.125562  0  0.107936  0.122255  0  1.015598  0
H  H38  1  0.59699865  0.11563511  0.13571445  1  0  0.08923  0  0.945863  0  0  0.097331  0  1.008028  0  0  0.100133  0  1.005545  0  0.142827  0  0.118799  0.095289  0  1.009785  0
H  H39  1  0.84761248  0.88425698  0.86445209  1  0  0.090397  0  0.945485  0  0  0.098993  0  1.007077  0  0  0.101711  0  1.004673  0  0.146749  0  0.119503  0.096957  0  1.00886  0
H  H40  1  0.48205384  0.61565608  0.36453228  1  0  0.089324  0  0.945213  0  0  0.097591  0  1.007213  0  0  0.100359  0  1.004758  0  0.144295  0  0.118981  0.09557  0  1.008966  0
H  H41  1  0.46250564  0.38444028  0.63584755  1  0  0.090215  0  0.945464  0  0  0.097887  0  1.008031  0  0  0.100566  0  1.005667  0  0.142457  0  0.119026  0.095926  0  1.009715  0
H  H42  1  0.45102337  0.26324155  0.99099005  1  0  0.417297  0  0.890015  0  0  0.386427  0  0.954789  0  0  0.396779  0  0.939865  0  0.642495  0  0.285894  0.379248  0  0.965087  0
H  H43  1  0.70577018  0.73682607  0.00903184  1  0  0.417413  0  0.890119  0  0  0.386373  0  0.955012  0  0  0.396744  0  0.940076  0  0.647794  0  0.285928  0.379188  0  0.965315  0
H  H44  1  0.19248882  0.76313524  0.50901311  1  0  0.417719  0  0.889858  0  0  0.38705  0  0.954186  0  0  0.397408  0  0.939241  0  0.644961  0  0.286418  0.379883  0  0.964479  0
H  H45  1  0.46437841  0.23693033  0.49103332  1  0  0.417445  0  0.889943  0  0  0.386414  0  0.954939  0  0  0.3968  0  0.939975  0  0.642617  0  0.285845  0.379226  0  0.96525  0
H  H46  1  0.52118789  0.19531709  0.87652525  1  0  0.412468  0  0.898338  0  0  0.380211  0  0.964354  0  0  0.392013  0  0.947303  0  0.643265  0  0.282706  0.37197  0  0.976233  0
H  H47  1  0.59354263  0.80445901  0.12353699  1  0  0.41247  0  0.898361  0  0  0.379749  0  0.965192  0  0  0.39154  0  0.94815  0  0.64664  0  0.281546  0.371501  0  0.977091  0
H  H48  1  0.14779914  0.69551051  0.62351440  1  0  0.413188  0  0.897562  0  0  0.38099  0  0.963555  0  0  0.392797  0  0.946484  0  0.644517  0  0.282403  0.37274  0  0.975462  0
H  H49  1  0.46659538  0.30460124  0.37649537  1  0  0.412525  0  0.898114  0  0  0.379648  0  0.965085  0  0  0.391451  0  0.948054  0  0.649072  0  0.282052  0.37141  0  0.976941  0
C  C50  1  0.18033163  0.05550896  0.54673246  1  0  -0.025177  0  3.70708  0  0  -0.00372  0  3.960742  0  0  -0.004462  0  3.982968  0  -0.266464  0  -0.004897  -0.003259  0  3.945955  0
C  C51  1  0.78217561  0.94469416  0.45336297  1  0  -0.027263  0  3.706966  0  0  -0.005227  0  3.960276  0  0  -0.006043  0  3.98262  0  -0.195349  0  -0.006864  -0.004746  0  3.945478  0
C  C52  1  0.47687993  0.55545397  0.95305171  1  0  -0.024827  0  3.703714  0  0  -0.005059  0  3.959974  0  0  -0.005742  0  3.982135  0  -0.185686  0  -0.005452  -0.004628  0  3.945247  0
C  C53  1  0.98572987  0.44440732  0.04664725  1  0  -0.028297  0  3.710095  0  0  -0.006124  0  3.963344  0  0  -0.006932  0  3.985712  0  -0.277799  0  -0.005833  -0.005667  0  3.948517  0
C  C54  1  0.20956484  0.13250254  0.59157547  1  0  -0.066259  0  3.697145  0  0  -0.091456  0  3.952292  0  0  -0.09428  0  3.971344  0  0.052125  0  -0.080475  -0.089892  0  3.939976  0
C  C55  1  0.93303277  0.86799518  0.40869890  1  0  -0.062425  0  3.695892  0  0  -0.088567  0  3.950856  0  0  -0.091388  0  3.969932  0  -0.044689  0  -0.079136  -0.086872  0  3.938458  0
C  C56  1  0.55105153  0.63213344  0.90838403  1  0  -0.062715  0  3.694209  0  0  -0.088021  0  3.949641  0  0  -0.090843  0  3.968664  0  -0.04601  0  -0.079898  -0.086341  0  3.93728  0
C  C57  1  0.09189245  0.36748765  0.09155867  1  0  -0.062841  0  3.696706  0  0  -0.089029  0  3.9517  0  0  -0.09187  0  3.970826  0  0.089122  0  -0.079058  -0.087461  0  3.939362  0
C  C58  1  0.10050060  0.21675654  0.67610406  1  0  -0.088647  0  3.713197  0  0  -0.112864  0  3.973066  0  0  -0.111636  0  3.989636  0  -0.057769  0  -0.078745  -0.113611  0  3.962086  0
C  C59  1  0.99277728  0.78369293  0.32412060  1  0  -0.08899  0  3.706939  0  0  -0.1129  0  3.968111  0  0  -0.111615  0  3.984633  0  0.042969  0  -0.078622  -0.113664  0  3.95711  0
C  C60  1  0.52645995  0.71648189  0.82382802  1  0  -0.089636  0  3.71007  0  0  -0.114279  0  3.970451  0  0  -0.113042  0  3.986986  0  0.017967  0  -0.078217  -0.115008  0  3.959461  0
C  C61  1  0.06693734  0.28336093  0.17614067  1  0  -0.089937  0  3.712448  0  0  -0.114304  0  3.972807  0  0  -0.113134  0  3.989314  0  -0.005188  0  -0.079102  -0.114979  0  3.961861  0
C  C62  1  0.96574320  0.21941004  0.71451854  1  0  0.057191  0  3.741295  0  0  0.041416  0  3.995939  0  0  0.037951  0  4.019036  0  0.168006  0  0.070142  0.043619  0  3.980272  0
C  C63  1  0.89919835  0.78065142  0.28554345  1  0  0.056094  0  3.738827  0  0  0.038622  0  3.993794  0  0  0.03509  0  4.016917  0  0.143714  0  0.068099  0.040819  0  3.978055  0
C  C64  1  0.42985273  0.71954804  0.78525406  1  0  0.057924  0  3.737795  0  0  0.040894  0  3.991669  0  0  0.037388  0  4.014828  0  0.180349  0  0.069279  0.043071  0  3.975918  0
C  C65  1  0.93482063  0.28072282  0.21448846  1  0  0.056554  0  3.740482  0  0  0.040894  0  3.99449  0  0  0.037397  0  4.017642  0  0.165013  0  0.070487  0.043059  0  3.978854  0
C  C66  1  0.93514263  0.14422515  0.66937267  1  0  -0.095906  0  3.708854  0  0  -0.119853  0  3.967573  0  0  -0.119983  0  3.986396  0  -0.009456  0  -0.079181  -0.119549  0  3.954911  0
C  C67  1  0.74843518  0.85553554  0.33050590  1  0  -0.092031  0  3.705888  0  0  -0.116193  0  3.964179  0  0  -0.116284  0  3.983167  0  -0.025479  0  -0.077664  -0.115843  0  3.951454  0
C  C68  1  0.35394179  0.64470395  0.83021493  1  0  -0.09513  0  3.704028  0  0  -0.119707  0  3.962619  0  0  -0.119858  0  3.981517  0  -0.038098  0  -0.079308  -0.119342  0  3.949929  0
C  C69  1  0.82913072  0.35575476  0.16919816  1  0  -0.093019  0  3.70336  0  0  -0.117159  0  3.96188  0  0  -0.117354  0  3.980733  0  -0.067836  0  -0.078922  -0.116775  0  3.949232  0
C  C70  1  0.04461759  0.06132099  0.58413472  1  0  -0.061617  0  3.714441  0  0  -0.083615  0  3.960222  0  0  -0.086343  0  3.980106  0  0.070536  0  -0.08283  -0.081747  0  3.946661  0
C  C71  1  0.68978054  0.93851771  0.41583000  1  0  -0.064623  0  3.714767  0  0  -0.086232  0  3.96061  0  0  -0.088942  0  3.980498  0  0.0353  0  -0.083264  -0.084527  0  3.947164  0
C  C72  1  0.37828850  0.56166942  0.91549715  1  0  -0.061492  0  3.714275  0  0  -0.082356  0  3.959825  0  0  -0.085157  0  3.979827  0  0.042175  0  -0.082255  -0.080616  0  3.946319  0
C  C73  1  0.85583658  0.43854293  0.08391570  1  0  -0.061807  0  3.715348  0  0  -0.083905  0  3.961025  0  0  -0.08664  0  3.980986  0  0.047698  0  -0.081955  -0.081993  0  3.947465  0
C  C74  1  0.32150147  0.06721618  0.34339477  1  0  -0.396772  0  3.558046  0  0  -0.432534  0  3.815814  0  0  -0.439747  0  3.818089  0  -0.235714  0  -0.158006  -0.427483  0  3.814202  0
C  C75  1  0.73218074  0.93273955  0.65679302  1  0  -0.398549  0  3.554652  0  0  -0.433709  0  3.812159  0  0  -0.440719  0  3.814089  0  -0.21717  0  -0.158489  -0.428886  0  3.810798  0
C  C76  1  0.41490721  0.56739318  0.15665829  1  0  -0.396074  0  3.553201  0  0  -0.431905  0  3.811031  0  0  -0.438867  0  3.812862  0  -0.233336  0  -0.157462  -0.426966  0  3.809592  0
C  C77  1  0.13899360  0.43276374  0.84326729  1  0  -0.40239  0  3.553  0  0  -0.438602  0  3.811493  0  0  -0.44578  0  3.813467  0  -0.185942  0  -0.159694  -0.433602  0  3.810085  0
C  C78  1  0.42573065  0.99587334  0.23828707  1  0  0.710261  0  3.867878  0  0  0.65872  0  4.172389  0  0  0.692289  0  4.165618  0  1.624527  0  0.207732  0.635946  0  4.176058  0
C  C79  1  0.65975265  0.00405364  0.76198517  1  0  0.713275  0  3.863912  0  0  0.661743  0  4.168496  0  0  0.695342  0  4.161625  0  1.603272  0  0.209114  0.639009  0  4.172183  0
C  C80  1  0.41376138  0.49598786  0.26181757  1  0  0.713379  0  3.863606  0  0  0.662222  0  4.167192  0  0  0.69579  0  4.160344  0  1.61469  0  0.209093  0.639457  0  4.170885  0
C  C81  1  0.17167584  0.50417624  0.73817877  1  0  0.717485  0  3.860881  0  0  0.665598  0  4.165402  0  0  0.699191  0  4.158526  0  1.602895  0  0.21092  0.642797  0  4.169156  0
C  C82  1  0.29284939  0.04211930  0.91585227  1  0  0.141378  0  3.694036  0  0  0.11096  0  3.945677  0  0  0.117513  0  3.96467  0  0.472305  0  0.053233  0.106883  0  3.932653  0
C  C83  1  0.25130175  0.95768040  0.08403651  1  0  0.140482  0  3.694976  0  0  0.109488  0  3.947158  0  0  0.116017  0  3.966182  0  0.50324  0  0.052857  0.105387  0  3.934161  0
C  C84  1  0.95913034  0.54207356  0.58416625  1  0  0.141074  0  3.693621  0  0  0.110506  0  3.945613  0  0  0.117075  0  3.964622  0  0.520736  0  0.053733  0.106377  0  3.932634  0
C  C85  1  0.08490660  0.45786575  0.41593876  1  0  0.140454  0  3.69431  0  0  0.109505  0  3.946436  0  0  0.116068  0  3.965443  0  0.497176  0  0.053505  0.105425  0  3.933394  0
C  C86  1  0.17345840  0.04196636  0.91203305  1  0  -0.162595  0  3.700379  0  0  -0.180154  0  3.946917  0  0  -0.188241  0  3.969061  0  -0.003237  0  -0.084109  -0.174888  0  3.931878  0
C  C87  1  0.12785287  0.95807149  0.08786893  1  0  -0.161194  0  3.699692  0  0  -0.178956  0  3.946123  0  0  -0.187076  0  3.968305  0  0.019444  0  -0.083116  -0.173666  0  3.931032  0
C  C88  1  0.83603147  0.54166296  0.58809929  1  0  -0.162296  0  3.698364  0  0  -0.180216  0  3.944406  0  0  -0.188315  0  3.966555  0  -0.022498  0  -0.084617  -0.174921  0  3.929334  0
C  C89  1  0.96534083  0.45802383  0.41220960  1  0  -0.161782  0  3.698798  0  0  -0.179632  0  3.945127  0  0  -0.18773  0  3.967247  0  -0.006205  0  -0.084106  -0.174356  0  3.930078  0
C  C90  1  0.08721152  0.00010470  0.99994213  1  0  0.107326  0  3.755183  0  0  0.120715  0  3.981697  0  0  0.124986  0  4.00278  0  -0.016824  0  0.016606  0.118107  0  3.967118  0
C  C91  1  0.83732610  0.49973048  0.50018666  1  0  0.108118  0  3.754453  0  0  0.121309  0  3.981213  0  0  0.125585  0  4.002323  0  -0.02749  0  0.016945  0.118701  0  3.966607  0
C  C92  1  0.95819837  0.00010984  0.99995539  1  0  0.093965  0  3.76279  0  0  0.105397  0  3.992109  0  0  0.10944  0  4.013589  0  -0.049154  0  0.008567  0.103009  0  3.977098  0
C  C93  1  0.70838892  0.49967299  0.50015146  1  0  0.094397  0  3.76409  0  0  0.105826  0  3.993376  0  0  0.109808  0  4.014987  0  -0.094048  0  0.009835  0.103476  0  3.978281  0
C  C94  1  0.82359005  0.06261541  0.08074048  1  0  -0.161614  0  3.68278  0  0  -0.179934  0  3.931879  0  0  -0.188182  0  3.953592  0  -0.022599  0  -0.083715  -0.174402  0  3.916978  0
C  C95  1  0.96647579  0.93745631  0.91923918  1  0  -0.159913  0  3.68562  0  0  -0.178182  0  3.934523  0  0  -0.18649  0  3.956202  0  -0.02398  0  -0.082434  -0.172645  0  3.919731  0
C  C96  1  0.65416616  0.56232433  0.41936459  1  0  -0.161291  0  3.685456  0  0  -0.179588  0  3.934589  0  0  -0.187865  0  3.956241  0  0.022828  0  -0.083235  -0.174044  0  3.919827  0
C  C97  1  0.63623932  0.43722593  0.58094737  1  0  -0.158784  0  3.685208  0  0  -0.176839  0  3.934074  0  0  -0.185125  0  3.95572  0  -0.039415  0  -0.082689  -0.171296  0  3.919214  0
C  C98  1  0.70431025  0.06226537  0.07680042  1  0  0.144707  0  3.692063  0  0  0.110764  0  3.948573  0  0  0.118136  0  3.965876  0  0.445998  0  0.049792  0.10606  0  3.936774  0
C  C99  1  0.84293135  0.93773347  0.92329115  1  0  0.142135  0  3.691884  0  0  0.107856  0  3.948447  0  0  0.115296  0  3.965769  0  0.501221  0  0.048232  0.103123  0  3.936641  0
C  C100  1  0.53085334  0.56216317  0.42338112  1  0  0.144506  0  3.691176  0  0  0.110655  0  3.947906  0  0  0.118047  0  3.965249  0  0.453769  0  0.048979  0.105924  0  3.93608  0
C  C101  1  0.51659639  0.43768888  0.57693714  1  0  0.141299  0  3.6912  0  0  0.107932  0  3.947877  0  0  0.115408  0  3.965158  0  0.489666  0  0.048394  0.103159  0  3.936082  0
S  S102  1  0.32400807  0.93597302  0.44384239  1  0  0.633889  0  3.602248  0  0  0.581341  0  4.0398  0  0  0.600124  0  4.034614  0  1.26504  0  0.308114  0.568445  0  4.042961  0
S  S103  1  0.70358829  0.06413257  0.55636807  1  0  0.635059  0  3.598007  0  0  0.582176  0  4.035103  0  0  0.600973  0  4.029881  0  1.27101  0  0.308095  0.569331  0  4.038265  0
S  S104  1  0.51764756  0.43608138  0.05614833  1  0  0.634154  0  3.59756  0  0  0.581995  0  4.035308  0  0  0.600663  0  4.030068  0  1.268193  0  0.308441  0.569176  0  4.038454  0
S  S105  1  0.00997889  0.56389693  0.94381854  1  0  0.636147  0  3.601625  0  0  0.582989  0  4.039481  0  0  0.601718  0  4.034319  0  1.252516  0  0.307554  0.570132  0  4.042634  0
N  N106  1  0.85191853  0.30203807  0.80658216  1  0  0.465194  0  3.951244  0  0  0.51739  0  4.214016  0  0  0.53866  0  4.221667  0  0.306572  0  0.04997  0.50301  0  4.209118  0
N  N107  1  0.96014101  0.69790842  0.19347305  1  0  0.461607  0  3.959767  0  0  0.518263  0  4.215778  0  0  0.539561  0  4.223439  0  0.326893  0  0.05083  0.503857  0  4.210848  0
N  N108  1  0.40819159  0.80206418  0.69305645  1  0  0.462333  0  3.955142  0  0  0.521266  0  4.211724  0  0  0.542578  0  4.219355  0  0.338563  0  0.051777  0.506858  0  4.20682  0
N  N109  1  0.90363134  0.19814201  0.30655170  1  0  0.467997  0  3.95033  0  0  0.521094  0  4.211163  0  0  0.542376  0  4.218737  0  0.320808  0  0.050747  0.506723  0  4.206308  0
N  N110  1  0.33227762  0.99980586  0.99996448  1  0  -0.308813  0  3.255625  0  0  -0.231008  0  3.516091  0  0  -0.249509  0  3.534771  0  -1.234542  0  -0.314379  -0.218423  0  3.503134  0
N  N111  1  0.08217814  0.50004356  0.50004264  1  0  -0.307484  0  3.256222  0  0  -0.229978  0  3.516931  0  0  -0.248481  0  3.535615  0  -1.234515  0  -0.314328  -0.217364  0  3.503925  0
N  N112  1  0.71326876  0.99999987  0.00003225  1  0  -0.333114  0  3.249895  0  0  -0.256429  0  3.514212  0  0  -0.274221  0  3.52997  0  -1.249035  0  -0.316128  -0.244361  0  3.503389  0
N  N113  1  0.46334203  0.49999737  0.50014675  1  0  -0.333597  0  3.246894  0  0  -0.257222  0  3.511276  0  0  -0.275026  0  3.527029  0  -1.242747  0  -0.316254  -0.245154  0  3.500481  0
O  O114  1  0.26064387  0.86113714  0.42043694  1  0  -0.600016  0  1.933085  0  0  -0.542329  0  2.183435  0  0  -0.563786  0  2.175084  0  -1.239729  0  -0.339996  -0.527049  0  2.188394  0
O  O115  1  0.54217115  0.13892123  0.57950335  1  0  -0.601046  0  1.932079  0  0  -0.542925  0  2.182218  0  0  -0.564482  0  2.173953  0  -1.245628  0  -0.339435  -0.527538  0  2.187057  0
O  O116  1  0.43094193  0.36137177  0.07928194  1  0  -0.600641  0  1.933799  0  0  -0.5428  0  2.184092  0  0  -0.564252  0  2.175797  0  -1.242287  0  -0.339658  -0.527468  0  2.188956  0
O  O117  1  0.87184094  0.63859217  0.92033225  1  0  -0.60104  0  1.93343  0  0  -0.542824  0  2.183789  0  0  -0.564205  0  2.175386  0  -1.240287  0  -0.33908  -0.527537  0  2.188723  0
O  O118  1  0.52583635  0.87477316  0.23848254  1  0  -0.619504  0  1.969721  0  0  -0.56212  0  2.18959  0  0  -0.586506  0  2.17962  0  -1.183126  0  -0.311178  -0.544871  0  2.195732  0
O  O119  1  0.63950997  0.12492287  0.76198670  1  0  -0.620423  0  1.968331  0  0  -0.56326  0  2.187791  0  0  -0.587726  0  2.177971  0  -1.173574  0  -0.311955  -0.54603  0  2.193866  0
O  O120  1  0.51416686  0.37498519  0.26177748  1  0  -0.621106  0  1.967802  0  0  -0.563356  0  2.186912  0  0  -0.587827  0  2.177091  0  -1.182849  0  -0.311641  -0.546104  0  2.193004  0
O  O121  1  0.15030275  0.62540064  0.73845150  1  0  -0.621456  0  1.969236  0  0  -0.563529  0  2.188371  0  0  -0.587981  0  2.178492  0  -1.176055  0  -0.312094  -0.546295  0  2.194542  0
O  O122  1  0.40046297  0.06730754  0.15912876  1  0  -0.631216  0  2.017749  0  0  -0.559756  0  2.267085  0  0  -0.58818  0  2.256614  0  -1.176555  0  -0.311958  -0.539612  0  2.273203  0
O  O123  1  0.62603629  0.93294690  0.84096512  1  0  -0.632492  0  2.016277  0  0  -0.561001  0  2.265791  0  0  -0.589594  0  2.255432  0  -1.182376  0  -0.312472  -0.540788  0  2.271792  0
O  O124  1  0.30913440  0.56720533  0.34082580  1  0  -0.63234  0  2.014744  0  0  -0.561091  0  2.264036  0  0  -0.589569  0  2.253498  0  -1.180173  0  -0.31273  -0.54092  0  2.270187  0
O  O125  1  0.21795359  0.43277195  0.65898502  1  0  -0.634443  0  2.014508  0  0  -0.563063  0  2.264869  0  0  -0.591474  0  2.254241  0  -1.177953  0  -0.313797  -0.542928  0  2.271111  0
O  O126  1  0.88325841  0.35549814  0.85545411  1  0  -0.364989  0  1.770378  0  0  -0.35695  0  1.977396  0  0  -0.369034  0  1.974895  0  -0.453604  0  -0.132668  -0.349324  0  1.979439  0
O  O127  1  0.09362800  0.64442064  0.14501541  1  0  -0.363862  0  1.773446  0  0  -0.357287  0  1.978072  0  0  -0.369312  0  1.975487  0  -0.47622  0  -0.133041  -0.349765  0  1.980248  0
O  O128  1  0.48810575  0.85562895  0.64457356  1  0  -0.364572  0  1.772288  0  0  -0.359874  0  1.978132  0  0  -0.371915  0  1.975543  0  -0.46987  0  -0.134139  -0.352342  0  1.980317  0
O  O129  1  0.98853869  0.14462138  0.35533309  1  0  -0.365684  0  1.770157  0  0  -0.358067  0  1.976859  0  0  -0.370195  0  1.974468  0  -0.460493  0  -0.132397  -0.350444  0  1.978909  0
O  O130  1  0.72893232  0.31402963  0.83202304  1  0  -0.350094  0  1.791905  0  0  -0.336036  0  1.990104  0  0  -0.347977  0  1.988209  0  -0.464106  0  -0.122561  -0.328513  0  1.99187  0
O  O131  1  0.87486584  0.68582242  0.16756167  1  0  -0.348855  0  1.795375  0  0  -0.336341  0  1.991949  0  0  -0.348287  0  1.989977  0  -0.464203  0  -0.122695  -0.328855  0  1.993749  0
O  O132  1  0.31102605  0.81382170  0.66707636  1  0  -0.348082  0  1.794004  0  0  -0.337165  0  1.991482  0  0  -0.349164  0  1.989584  0  -0.481604  0  -0.123181  -0.32964  0  1.993188  0
O  O133  1  0.79262061  0.18615353  0.33207509  1  0  -0.352186  0  1.791199  0  0  -0.338563  0  1.98893  0  0  -0.350505  0  1.986985  0  -0.473546  0  -0.124024  -0.331024  0  1.990708  0
O  O134  1  0.44253849  0.21066940  0.94741713  1  0  -0.838977  0  1.910932  0  0  -0.782136  0  2.115404  0  0  -0.804973  0  2.08252  0  -1.273953  0  -0.583296  -0.766134  0  2.137971  0
O  O135  1  0.60129770  0.78912311  0.05246804  1  0  -0.838283  0  1.911229  0  0  -0.781084  0  2.116166  0  0  -0.803938  0  2.083252  0  -1.282509  0  -0.581984  -0.765137  0  2.138809  0
O  O136  1  0.14038762  0.71074376  0.55238491  1  0  -0.839526  0  1.912234  0  0  -0.783091  0  2.116858  0  0  -0.805918  0  2.083969  0  -1.277167  0  -0.582975  -0.767114  0  2.139375  0
O  O137  1  0.40333488  0.28931565  0.44742451  1  0  -0.838459  0  1.909872  0  0  -0.781055  0  2.114933  0  0  -0.803922  0  2.081959  0  -1.279528  0  -0.582472  -0.765063  0  2.137568  0
