# generated using pymatgen
data_CdH10C8(BrN2)2
_symmetry_space_group_name_H-M   'P 1'
_cell_length_a   4.91390811
_cell_length_b   8.37328347
_cell_length_c   15.36093746
_cell_angle_alpha   87.26177741
_cell_angle_beta   80.76114463
_cell_angle_gamma   72.66565653
_symmetry_Int_Tables_number   1
_chemical_formula_structural   CdH10C8(BrN2)2
_chemical_formula_sum   'Cd2 H20 C16 Br4 N8'
_cell_volume   595.50205055
_cell_formula_units_Z   2
loop_
 _symmetry_equiv_pos_site_id
 _symmetry_equiv_pos_as_xyz
  1  'x, y, z'
loop_
 _atom_site_type_symbol
 _atom_site_label
 _atom_site_symmetry_multiplicity
 _atom_site_fract_x
 _atom_site_fract_y
 _atom_site_fract_z
 _atom_site_occupancy
 _atom_site_hle17_bader_spin_density
 _atom_site_hle17_ddec_charge
 _atom_site_hle17_ddec_spin_density
 _atom_site_hle17_ddec_sum_bond_order
 _atom_site_hle17_magmom
 _atom_site_hse06_10hf_bader_spin_density
 _atom_site_hse06_10hf_ddec_charge
 _atom_site_hse06_10hf_ddec_spin_density
 _atom_site_hse06_10hf_ddec_sum_bond_order
 _atom_site_hse06_10hf_magmom
 _atom_site_hse06_bader_spin_density
 _atom_site_hse06_ddec_charge
 _atom_site_hse06_ddec_spin_density
 _atom_site_hse06_ddec_sum_bond_order
 _atom_site_hse06_magmom
 _atom_site_pbe_bader_spin_density
 _atom_site_pbe_cm5_charge
 _atom_site_pbe_ddec_charge
 _atom_site_pbe_ddec_spin_density
 _atom_site_pbe_ddec_sum_bond_order
 _atom_site_pbe_magmom
Cd  Cd0  1  0.62544622  0.74786744  0.00065171  1  0  0.912249  0  1.951686  0  0  0.723671  0  2.444392  0  0  0.772411  0  2.401231  0  0  0.588575  0.689981  0  2.473494  0
Cd  Cd1  1  0.37572950  0.24766547  0.49944427  1  0  0.911515  0  1.95383  0  0  0.722818  0  2.446972  0  0  0.771546  0  2.403801  0  0  0.588389  0.689122  0  2.476096  0
H  H2  1  0.21542949  0.35359766  0.25215003  1  0  0.117726  0  0.97203  0  0  0.124542  0  1.039658  0  0  0.127533  0  1.0377  0  0  0.114521  0.122338  0  1.041221  0
H  H3  1  0.42964134  0.35155682  0.74783347  1  0  0.117758  0  0.971387  0  0  0.124327  0  1.039467  0  0  0.127313  0  1.03757  0  0  0.115045  0.122128  0  1.040975  0
H  H4  1  0.92715652  0.85162549  0.75223005  1  0  0.117597  0  0.971874  0  0  0.12437  0  1.039725  0  0  0.127396  0  1.03776  0  0  0.11511  0.122168  0  1.041241  0
H  H5  1  0.21766227  0.85359262  0.24789705  1  0  0.117507  0  0.971676  0  0  0.124225  0  1.039581  0  0  0.127236  0  1.037646  0  0  0.114501  0.122035  0  1.041089  0
H  H6  1  0.51002941  0.58973878  0.20751240  1  0  0.10236  0  0.96598  0  0  0.108853  0  1.033391  0  0  0.11167  0  1.031718  0  0  0.108647  0.106802  0  1.034725  0
H  H7  1  0.89729724  0.58988838  0.79275855  1  0  0.101926  0  0.965745  0  0  0.108341  0  1.033042  0  0  0.111147  0  1.031388  0  0  0.108572  0.106286  0  1.034379  0
H  H8  1  0.43921916  0.08960615  0.70749267  1  0  0.101786  0  0.966363  0  0  0.107933  0  1.034034  0  0  0.110803  0  1.032325  0  0  0.108576  0.105815  0  1.035436  0
H  H9  1  0.46801525  0.08949663  0.29250750  1  0  0.102564  0  0.966176  0  0  0.10903  0  1.033648  0  0  0.111844  0  1.032017  0  0  0.108916  0.106963  0  1.03497  0
H  H10  1  0.05562551  0.21908332  0.03500391  1  0  0.103863  0  0.961827  0  0  0.121924  0  1.029888  0  0  0.123087  0  1.02949  0  0  0.102701  0.12097  0  1.030309  0
H  H11  1  0.72767721  0.21613990  0.96462940  1  0  0.104014  0  0.962738  0  0  0.121757  0  1.030897  0  0  0.122868  0  1.030519  0  0  0.103065  0.12086  0  1.031264  0
H  H12  1  0.44171552  0.71640243  0.53517847  1  0  0.104145  0  0.96277  0  0  0.1222  0  1.030679  0  0  0.123339  0  1.030282  0  0  0.102733  0.121228  0  1.031158  0
H  H13  1  0.83992190  0.71893874  0.46491728  1  0  0.104086  0  0.961983  0  0  0.121868  0  1.030501  0  0  0.123001  0  1.030118  0  0  0.102759  0.120934  0  1.030901  0
H  H14  1  0.85693850  0.26108827  0.14428394  1  0  0.106576  0  0.960808  0  0  0.123334  0  1.029069  0  0  0.124092  0  1.02969  0  0  0.097997  0.122706  0  1.028745  0
H  H15  1  0.88494701  0.26010718  0.85600455  1  0  0.106549  0  0.960852  0  0  0.122826  0  1.029711  0  0  0.123587  0  1.030304  0  0  0.097547  0.122199  0  1.02939  0
H  H16  1  0.49051504  0.76012150  0.64375048  1  0  0.106268  0  0.962203  0  0  0.123071  0  1.030468  0  0  0.12381  0  1.031087  0  0  0.097093  0.122471  0  1.030103  0
H  H17  1  0.75104136  0.76118561  0.35566054  1  0  0.106507  0  0.961536  0  0  0.123466  0  1.02964  0  0  0.124272  0  1.030221  0  0  0.097623  0.122794  0  1.029357  0
H  H18  1  0.21104477  0.11334484  0.12609012  1  0  0.103905  0  0.977475  0  0  0.119986  0  1.049164  0  0  0.121152  0  1.048679  0  0  0.090423  0.119  0  1.049681  0
H  H19  1  0.68138555  0.11237331  0.87271958  1  0  0.104012  0  0.977974  0  0  0.120712  0  1.049042  0  0  0.121878  0  1.048549  0  0  0.090843  0.119739  0  1.049528  0
H  H20  1  0.30377041  0.61238041  0.62709261  1  0  0.104041  0  0.979266  0  0  0.120968  0  1.04993  0  0  0.122084  0  1.049495  0  0  0.090658  0.120014  0  1.050406  0
H  H21  1  0.08681767  0.61338589  0.37378537  1  0  0.104168  0  0.977124  0  0  0.120121  0  1.049019  0  0  0.121286  0  1.048533  0  0  0.090492  0.119131  0  1.049536  0
C  C22  1  0.29832819  0.45639896  0.04541393  1  0  0.201376  0  3.758574  0  0  0.171372  0  4.02477  0  0  0.183279  0  4.03979  0  0  0.209333  0.163559  0  4.014408  0
C  C23  1  0.24669642  0.45633177  0.95437080  1  0  0.19983  0  3.760411  0  0  0.168445  0  4.027625  0  0  0.180384  0  4.042639  0  0  0.208662  0.160615  0  4.017258  0
C  C24  1  0.95033586  0.95628704  0.54569003  1  0  0.200535  0  3.761109  0  0  0.170246  0  4.026968  0  0  0.182164  0  4.041984  0  0  0.208082  0.1624  0  4.01663  0
C  C25  1  0.09331247  0.95636740  0.45463238  1  0  0.199316  0  3.760949  0  0  0.168882  0  4.026894  0  0  0.180827  0  4.041858  0  0  0.208607  0.161064  0  4.016553  0
C  C26  1  0.27218715  0.40856014  0.18914250  1  0  -0.045042  0  3.644789  0  0  -0.086565  0  3.901832  0  0  -0.084138  0  3.918409  0  0  0.008161  -0.088161  0  3.89083  0
C  C27  1  0.31835998  0.40735556  0.81077970  1  0  -0.045393  0  3.644355  0  0  -0.086748  0  3.901329  0  0  -0.084323  0  3.917866  0  0  0.007578  -0.088334  0  3.890328  0
C  C28  1  0.87857956  0.90729311  0.68929866  1  0  -0.046066  0  3.644546  0  0  -0.087668  0  3.901792  0  0  -0.085252  0  3.91832  0  0  0.007586  -0.089257  0  3.890791  0
C  C29  1  0.21140675  0.90854280  0.31089987  1  0  -0.044335  0  3.642893  0  0  -0.085804  0  3.899891  0  0  -0.083429  0  3.916488  0  0  0.00793  -0.087381  0  3.888871  0
C  C30  1  0.41425219  0.52707740  0.16618159  1  0  0.006348  0  3.769407  0  0  -0.030284  0  4.04377  0  0  -0.027978  0  4.062131  0  0  -0.006208  -0.031886  0  4.031452  0
C  C31  1  0.05728686  0.52700737  0.83386079  1  0  0.007784  0  3.767818  0  0  -0.028548  0  4.041863  0  0  -0.026235  0  4.060241  0  0  -0.004025  -0.030153  0  4.029501  0
C  C32  1  0.64034264  0.02678789  0.66630029  1  0  0.010021  0  3.766473  0  0  -0.026098  0  4.040186  0  0  -0.023845  0  4.058562  0  0  -0.00464  -0.02765  0  4.027863  0
C  C33  1  0.33064636  0.02695566  0.33387587  1  0  0.005862  0  3.766725  0  0  -0.030836  0  4.040918  0  0  -0.02855  0  4.059273  0  0  -0.005651  -0.032406  0  4.028623  0
C  C34  1  0.07135702  0.23180644  0.10439802  1  0  -0.175041  0  3.630357  0  0  -0.279999  0  3.877384  0  0  -0.276915  0  3.885453  0  0  -0.141636  -0.281792  0  3.871954  0
C  C35  1  0.69977797  0.23037708  0.89521414  1  0  -0.175038  0  3.636168  0  0  -0.279788  0  3.883701  0  0  -0.276651  0  3.89168  0  0  -0.1427  -0.281616  0  3.878313  0
C  C36  1  0.34446610  0.73045420  0.60461801  1  0  -0.174662  0  3.638228  0  0  -0.28031  0  3.885207  0  0  -0.277139  0  3.893274  0  0  -0.141558  -0.28215  0  3.879787  0
C  C37  1  0.92541139  0.73182537  0.39554888  1  0  -0.175892  0  3.632257  0  0  -0.280812  0  3.879609  0  0  -0.277757  0  3.887666  0  0  -0.141891  -0.282571  0  3.874201  0
Br  Br38  1  0.76841738  0.89681984  0.12095524  1  0  -0.551043  0  0.910033  0  0  -0.475284  0  1.202721  0  0  -0.494744  0  1.181975  0  0  -0.287795  -0.461451  0  1.216902  0
Br  Br39  1  0.33333988  0.90048424  0.88067079  1  0  -0.551249  0  0.909493  0  0  -0.475889  0  1.20318  0  0  -0.495332  0  1.182386  0  0  -0.287966  -0.462088  0  1.217362  0
Br  Br40  1  0.96298918  0.40049825  0.61931215  1  0  -0.551654  0  0.909156  0  0  -0.476179  0  1.20246  0  0  -0.495598  0  1.181666  0  0  -0.288411  -0.462355  0  1.216596  0
Br  Br41  1  0.63919126  0.39635671  0.37898065  1  0  -0.550633  0  0.910083  0  0  -0.475124  0  1.202885  0  0  -0.494576  0  1.182157  0  0  -0.287922  -0.461259  0  1.217001  0
N  N42  1  0.42935235  0.55584343  0.07701932  1  0  -0.398739  0  3.26757  0  0  -0.328922  0  3.55377  0  0  -0.348862  0  3.570704  0  0  -0.357687  -0.315273  0  3.54195  0
N  N43  1  0.01504055  0.55641790  0.92291063  1  0  -0.397122  0  3.268416  0  0  -0.327081  0  3.554886  0  0  -0.347027  0  3.57186  0  0  -0.357345  -0.313435  0  3.543019  0
N  N44  1  0.68704686  0.05621269  0.57723910  1  0  -0.398463  0  3.269357  0  0  -0.328695  0  3.555553  0  0  -0.348618  0  3.572486  0  0  -0.356518  -0.315054  0  3.543714  0
N  N45  1  0.25626774  0.05569553  0.42304523  1  0  -0.395967  0  3.268427  0  0  -0.326062  0  3.55463  0  0  -0.345997  0  3.571565  0  0  -0.356901  -0.312424  0  3.542806  0
N  N46  1  0.20159335  0.36454875  0.11254566  1  0  -0.028261  0  3.553137  0  0  0.069927  0  3.76407  0  0  0.056326  0  3.790228  0  0  -0.232875  0.078912  0  3.746284  0
N  N47  1  0.43500132  0.36347151  0.88720453  1  0  -0.029224  0  3.554441  0  0  0.069374  0  3.765579  0  0  0.055744  0  3.791717  0  0  -0.233129  0.078364  0  3.747813  0
N  N48  1  0.07164862  0.86353204  0.61281123  1  0  -0.029718  0  3.553729  0  0  0.06832  0  3.765362  0  0  0.054706  0  3.791484  0  0  -0.233141  0.077319  0  3.747593  0
N  N49  1  0.06380608  0.86458888  0.38748200  1  0  -0.028651  0  3.555708  0  0  0.069787  0  3.766684  0  0  0.056181  0  3.79284  0  0  -0.232726  0.078777  0  3.74889  0
