# generated using pymatgen
data_PrH13C7S2O13
_symmetry_space_group_name_H-M   'P 1'
_cell_length_a   7.94764747
_cell_length_b   10.37452686
_cell_length_c   10.68502934
_cell_angle_alpha   116.17293703
_cell_angle_beta   92.51166231
_cell_angle_gamma   107.52129399
_symmetry_Int_Tables_number   1
_chemical_formula_structural   PrH13C7S2O13
_chemical_formula_sum   'Pr2 H26 C14 S4 O26'
_cell_volume   737.76688161
_cell_formula_units_Z   2
loop_
 _symmetry_equiv_pos_site_id
 _symmetry_equiv_pos_as_xyz
  1  'x, y, z'
loop_
 _atom_site_type_symbol
 _atom_site_label
 _atom_site_symmetry_multiplicity
 _atom_site_fract_x
 _atom_site_fract_y
 _atom_site_fract_z
 _atom_site_occupancy
 _atom_site_hle17_bader_spin_density
 _atom_site_hle17_ddec_charge
 _atom_site_hle17_ddec_spin_density
 _atom_site_hle17_ddec_sum_bond_order
 _atom_site_hle17_magmom
 _atom_site_hse06_10hf_bader_spin_density
 _atom_site_hse06_10hf_ddec_charge
 _atom_site_hse06_10hf_ddec_spin_density
 _atom_site_hse06_10hf_ddec_sum_bond_order
 _atom_site_hse06_10hf_magmom
 _atom_site_hse06_bader_spin_density
 _atom_site_hse06_ddec_charge
 _atom_site_hse06_ddec_spin_density
 _atom_site_hse06_ddec_sum_bond_order
 _atom_site_hse06_magmom
 _atom_site_pbe_bader_spin_density
 _atom_site_pbe_cm5_charge
 _atom_site_pbe_ddec_charge
 _atom_site_pbe_ddec_spin_density
 _atom_site_pbe_ddec_sum_bond_order
 _atom_site_pbe_magmom
Pr  Pr0  1  0.43414189  0.81333532  0.71868543  1  0  2.412661  0  1.535031  0  0  2.304294  0  1.904749  0  0  2.337233  0  1.862197  0  0  1.494024  2.279266  0  1.935699  0
Pr  Pr1  1  0.56585775  0.18666578  0.28131589  1  0  2.412678  0  1.534946  0  0  2.304316  0  1.904654  0  0  2.337254  0  1.8621  0  0  1.494042  2.27929  0  1.935603  0
H  H2  1  0.42624422  0.73700967  0.27557431  1  0  0.13246  0  0.931806  0  0  0.139554  0  0.994056  0  0  0.143954  0  0.989889  0  0  0.121887  0.136116  0  0.997429  0
H  H3  1  0.57375579  0.26298915  0.72442418  1  0  0.132459  0  0.931812  0  0  0.139543  0  0.994061  0  0  0.143943  0  0.989892  0  0  0.121869  0.136105  0  0.997434  0
H  H4  1  0.16383546  0.24286337  0.03982328  1  0  0.12342  0  0.946304  0  0  0.129861  0  1.012667  0  0  0.134161  0  1.008793  0  0  0.116281  0.126392  0  1.016037  0
H  H5  1  0.83616591  0.75713891  0.96017766  1  0  0.123456  0  0.94629  0  0  0.129889  0  1.012652  0  0  0.134207  0  1.008757  0  0  0.116299  0.12642  0  1.016024  0
H  H6  1  0.25469500  0.51444076  0.81983416  1  0  0.126818  0  0.959978  0  0  0.131456  0  1.029283  0  0  0.136096  0  1.024485  0  0  0.115874  0.127992  0  1.032913  0
H  H7  1  0.74530084  0.48556027  0.18016605  1  0  0.126772  0  0.959961  0  0  0.13143  0  1.029248  0  0  0.136062  0  1.024473  0  0  0.115855  0.127965  0  1.032881  0
H  H8  1  0.18400062  0.82999062  0.47427024  1  0  0.453145  0  0.831284  0  0  0.426279  0  0.88601  0  0  0.435884  0  0.87183  0  0  0.307096  0.419413  0  0.896189  0
H  H9  1  0.81599682  0.17000816  0.52573188  1  0  0.453177  0  0.83125  0  0  0.426311  0  0.885972  0  0  0.435916  0  0.871794  0  0  0.307111  0.419445  0  0.896151  0
H  H10  1  0.26336067  0.98937410  0.61333163  1  0  0.436782  0  0.855795  0  0  0.406641  0  0.918687  0  0  0.416236  0  0.904356  0  0  0.306722  0.39968  0  0.929123  0
H  H11  1  0.73663552  0.01062465  0.38666856  1  0  0.436799  0  0.855763  0  0  0.406656  0  0.918657  0  0  0.416251  0  0.904324  0  0  0.306733  0.399694  0  0.929093  0
H  H12  1  0.69637091  0.85110185  0.50771028  1  0  0.460847  0  0.81812  0  0  0.433838  0  0.873185  0  0  0.443376  0  0.859016  0  0  0.313957  0.427071  0  0.883253  0
H  H13  1  0.30362942  0.14889469  0.49229100  1  0  0.460845  0  0.818128  0  0  0.433835  0  0.873196  0  0  0.443373  0  0.859027  0  0  0.313926  0.427068  0  0.883263  0
H  H14  1  0.74927455  0.01519202  0.64025682  1  0  0.433923  0  0.862337  0  0  0.404295  0  0.923947  0  0  0.413765  0  0.909938  0  0  0.30718  0.397552  0  0.933931  0
H  H15  1  0.25072797  0.98480685  0.35974553  1  0  0.4339  0  0.862361  0  0  0.404277  0  0.923965  0  0  0.413746  0  0.909956  0  0  0.307131  0.397535  0  0.933947  0
H  H16  1  0.15550075  0.47663192  0.54051786  1  0  0.431158  0  0.85887  0  0  0.404079  0  0.915568  0  0  0.413981  0  0.900793  0  0  0.309447  0.397082  0  0.92604  0
H  H17  1  0.84449983  0.52337147  0.45948166  1  0  0.43117  0  0.858829  0  0  0.404099  0  0.915533  0  0  0.414  0  0.90076  0  0  0.309454  0.397101  0  0.926005  0
H  H18  1  0.04346007  0.55977242  0.64542713  1  0  0.42528  0  0.877301  0  0  0.396313  0  0.937723  0  0  0.406406  0  0.922803  0  0  0.30089  0.389113  0  0.948375  0
H  H19  1  0.95654052  0.44023097  0.35457145  1  0  0.425426  0  0.877118  0  0  0.396462  0  0.937526  0  0  0.406554  0  0.922606  0  0  0.30096  0.389262  0  0.948177  0
H  H20  1  0.04394956  0.78661381  0.78633687  1  0  0.436266  0  0.855679  0  0  0.409382  0  0.911648  0  0  0.418411  0  0.898457  0  0  0.307948  0.403002  0  0.920981  0
H  H21  1  0.95605308  0.21338849  0.21366507  1  0  0.436244  0  0.855715  0  0  0.409352  0  0.911698  0  0  0.418381  0  0.898506  0  0  0.307942  0.402973  0  0.92103  0
H  H22  1  0.13547862  0.95115159  0.80554279  1  0  0.441648  0  0.858134  0  0  0.41085  0  0.920982  0  0  0.420861  0  0.906375  0  0  0.306244  0.403767  0  0.93135  0
H  H23  1  0.86452357  0.04884955  0.19445771  1  0  0.441649  0  0.858135  0  0  0.410852  0  0.920981  0  0  0.420863  0  0.906372  0  0  0.306241  0.403767  0  0.931352  0
H  H24  1  0.84500831  0.98840021  0.84189178  1  0  0.434164  0  0.864007  0  0  0.405269  0  0.924187  0  0  0.415143  0  0.90959  0  0  0.298795  0.398352  0  0.934404  0
H  H25  1  0.15499432  0.01160208  0.15811109  1  0  0.434147  0  0.864037  0  0  0.405263  0  0.924192  0  0  0.415136  0  0.909598  0  0  0.298797  0.398345  0  0.934412  0
H  H26  1  0.76948639  0.01323907  0.98218263  1  0  0.441855  0  0.850479  0  0  0.414909  0  0.90735  0  0  0.425258  0  0.892063  0  0  0.30191  0.407464  0  0.918379  0
H  H27  1  0.23051406  0.98676090  0.01781824  1  0  0.441879  0  0.850451  0  0  0.414935  0  0.907319  0  0  0.425283  0  0.89203  0  0  0.30192  0.40749  0  0.918347  0
C  C28  1  0.42780097  0.79350645  0.05136332  1  0  0.721897  0  3.873054  0  0  0.673172  0  4.164776  0  0  0.70808  0  4.154595  0  0  0.23862  0.649524  0  4.170843  0
C  C29  1  0.57220041  0.20649583  0.94863763  1  0  0.72183  0  3.873205  0  0  0.673113  0  4.164852  0  0  0.708021  0  4.154666  0  0  0.238626  0.649464  0  4.170915  0
C  C30  1  0.34890978  0.64039245  0.04796090  1  0  -0.063457  0  3.700866  0  0  -0.034482  0  3.934409  0  0  -0.04555  0  3.957383  0  0  -0.006985  -0.027432  0  3.919011  0
C  C31  1  0.65109288  0.35960984  0.95203823  1  0  -0.063397  0  3.701026  0  0  -0.034315  0  3.934365  0  0  -0.045384  0  3.957336  0  0  -0.00689  -0.027265  0  3.918963  0
C  C32  1  0.36212512  0.63238883  0.17529513  1  0  -0.017633  0  3.66557  0  0  -0.064269  0  3.92192  0  0  -0.057363  0  3.937062  0  0  -0.062194  -0.068491  0  3.912089  0
C  C33  1  0.63787871  0.36761005  0.82470166  1  0  -0.017676  0  3.665599  0  0  -0.064335  0  3.921875  0  0  -0.057426  0  3.937013  0  0  -0.062178  -0.068556  0  3.912043  0
C  C34  1  0.29540915  0.48979796  0.17067932  1  0  -0.126614  0  3.724438  0  0  -0.094851  0  3.975524  0  0  -0.105427  0  3.997878  0  0  -0.012785  -0.088264  0  3.960708  0
C  C35  1  0.70459397  0.51020548  0.82932032  1  0  -0.126563  0  3.724356  0  0  -0.09475  0  3.975362  0  0  -0.105326  0  3.997721  0  0  -0.012771  -0.088164  0  3.960546  0
C  C36  1  0.21214984  0.35421914  0.04231753  1  0  -0.042631  0  3.696332  0  0  -0.085652  0  3.94746  0  0  -0.080493  0  3.965124  0  0  -0.070643  -0.088808  0  3.936196  0
C  C37  1  0.78784727  0.64578192  0.95768274  1  0  -0.042712  0  3.696346  0  0  -0.085746  0  3.947481  0  0  -0.080601  0  3.965136  0  0  -0.070694  -0.088904  0  3.93622  0
C  C38  1  0.19644163  0.36526058  0.91723565  1  0  -0.118444  0  3.724299  0  0  -0.088995  0  3.980117  0  0  -0.099502  0  4.003561  0  0  -0.014909  -0.082521  0  3.964743  0
C  C39  1  0.80355838  0.63473824  0.08276377  1  0  -0.118447  0  3.724329  0  0  -0.089016  0  3.980173  0  0  -0.09952  0  4.003616  0  0  -0.014878  -0.082541  0  3.964798  0
C  C40  1  0.26517121  0.50674552  0.91830468  1  0  -0.035739  0  3.652091  0  0  -0.076336  0  3.89871  0  0  -0.070938  0  3.915828  0  0  -0.062039  -0.079542  0  3.887438  0
C  C41  1  0.73482593  0.49325554  0.08169278  1  0  -0.035741  0  3.652252  0  0  -0.076392  0  3.898865  0  0  -0.070996  0  3.915976  0  0  -0.062132  -0.079596  0  3.887586  0
S  S42  1  0.32396112  0.47720228  0.33009978  1  0  1.394426  0  5.544447  0  0  1.293377  0  6.059461  0  0  1.341817  0  6.03444  0  0  0.563924  1.260143  0  6.075432  0
S  S43  1  0.67603752  0.52279309  0.66989719  1  0  1.394286  0  5.544456  0  0  1.293218  0  6.059471  0  0  1.341654  0  6.034456  0  0  0.563785  1.259981  0  6.075444  0
S  S44  1  0.09036629  0.19430025  0.75246026  1  0  1.328726  0  5.593449  0  0  1.218631  0  6.117331  0  0  1.266518  0  6.094419  0  0  0.534787  1.185773  0  6.131767  0
S  S45  1  0.90963243  0.80569856  0.24754005  1  0  1.328791  0  5.593169  0  0  1.218709  0  6.117045  0  0  1.266596  0  6.094135  0  0  0.534828  1.185843  0  6.131486  0
O  O46  1  0.41518810  0.79614683  0.93426757  1  0  -0.742535  0  2.075565  0  0  -0.69462  0  2.338011  0  0  -0.71819  0  2.32511  0  0  -0.404721  -0.677886  0  2.346354  0
O  O47  1  0.58481280  0.20385430  0.06573474  1  0  -0.742513  0  2.075499  0  0  -0.694616  0  2.337914  0  0  -0.718178  0  2.325006  0  0  -0.404738  -0.677893  0  2.346283  0
O  O48  1  0.50275352  0.91093949  0.17251164  1  0  -0.730068  0  2.016352  0  0  -0.679288  0  2.267317  0  0  -0.703632  0  2.255768  0  0  -0.399754  -0.661743  0  2.27483  0
O  O49  1  0.49725499  0.08906177  0.82749101  1  0  -0.730059  0  2.016532  0  0  -0.679276  0  2.267447  0  0  -0.703634  0  2.255924  0  0  -0.399773  -0.661735  0  2.274972  0
O  O50  1  0.38707171  0.63497555  0.44682634  1  0  -0.733141  0  2.062374  0  0  -0.681482  0  2.330173  0  0  -0.702836  0  2.315409  0  0  -0.367567  -0.66654  0  2.340208  0
O  O51  1  0.61292749  0.36502440  0.55317260  1  0  -0.733081  0  2.062533  0  0  -0.681405  0  2.330331  0  0  -0.702758  0  2.315567  0  0  -0.367507  -0.666464  0  2.340366  0
O  O52  1  0.45371620  0.40046904  0.31919012  1  0  -0.740435  0  2.057717  0  0  -0.695451  0  2.335203  0  0  -0.716382  0  2.319357  0  0  -0.38404  -0.680468  0  2.345753  0
O  O53  1  0.54628220  0.59953204  0.68080740  1  0  -0.740384  0  2.057524  0  0  -0.695434  0  2.33507  0  0  -0.716366  0  2.319225  0  0  -0.383999  -0.680451  0  2.34562  0
O  O54  1  0.14380155  0.38400864  0.33668236  1  0  -0.71001  0  2.000511  0  0  -0.639406  0  2.226693  0  0  -0.661402  0  2.209349  0  0  -0.317695  -0.623749  0  2.23826  0
O  O55  1  0.85619764  0.61599131  0.66331751  1  0  -0.709959  0  2.000499  0  0  -0.639373  0  2.226706  0  0  -0.661369  0  2.209363  0  0  -0.317674  -0.62371  0  2.238264  0
O  O56  1  0.22264445  0.18185010  0.66026754  1  0  -0.666024  0  1.979298  0  0  -0.606883  0  2.222108  0  0  -0.628615  0  2.206905  0  0  -0.321548  -0.591505  0  2.232137  0
O  O57  1  0.77734820  0.81814289  0.33972819  1  0  -0.666045  0  1.97915  0  0  -0.606875  0  2.22194  0  0  -0.628607  0  2.206735  0  0  -0.321535  -0.591498  0  2.231972  0
O  O58  1  0.92799672  0.20869167  0.69634111  1  0  -0.671717  0  1.969951  0  0  -0.610572  0  2.206026  0  0  -0.63295  0  2.192106  0  0  -0.325137  -0.594691  0  2.215031  0
O  O59  1  0.07200199  0.79130713  0.30366106  1  0  -0.671721  0  1.969925  0  0  -0.610586  0  2.206002  0  0  -0.632964  0  2.19208  0  0  -0.325154  -0.594706  0  2.21501  0
O  O60  1  0.04158095  0.06871002  0.79017080  1  0  -0.696414  0  2.071405  0  0  -0.625297  0  2.309544  0  0  -0.64745  0  2.293886  0  0  -0.325847  -0.609836  0  2.319977  0
O  O61  1  0.95841569  0.93128988  0.20982990  1  0  -0.696424  0  2.07133  0  0  -0.625322  0  2.309462  0  0  -0.647479  0  2.293806  0  0  -0.325865  -0.609848  0  2.319886  0
O  O62  1  0.25545029  0.88181069  0.57181760  1  0  -0.924131  0  1.856494  0  0  -0.883224  0  2.040293  0  0  -0.898184  0  2.007643  0  0  -0.646982  -0.872613  0  2.063667  0
O  O63  1  0.74454716  0.11818809  0.42818358  1  0  -0.924173  0  1.856439  0  0  -0.88327  0  2.040257  0  0  -0.898229  0  2.007603  0  0  -0.647009  -0.872659  0  2.063632  0
O  O64  1  0.66859478  0.90746898  0.60071847  1  0  -0.917567  0  1.861731  0  0  -0.874982  0  2.047317  0  0  -0.890604  0  2.015431  0  0  -0.649713  -0.863941  0  2.069945  0
O  O65  1  0.33140855  0.09252876  0.39928249  1  0  -0.917558  0  1.861744  0  0  -0.874976  0  2.047334  0  0  -0.890599  0  2.015447  0  0  -0.649645  -0.863934  0  2.069957  0
O  O66  1  0.16606158  0.55742884  0.63730371  1  0  -0.89116  0  1.861524  0  0  -0.848546  0  2.036693  0  0  -0.8645  0  2.004806  0  0  -0.623276  -0.837124  0  2.059292  0
O  O67  1  0.83394167  0.44257803  0.36269458  1  0  -0.891299  0  1.861321  0  0  -0.848703  0  2.036525  0  0  -0.864659  0  2.004645  0  0  -0.623353  -0.83728  0  2.059128  0
O  O68  1  0.15991392  0.87399141  0.82779222  1  0  -0.892333  0  1.894209  0  0  -0.843385  0  2.072929  0  0  -0.861864  0  2.043061  0  0  -0.607852  -0.830143  0  2.093779  0
O  O69  1  0.84008826  0.12600973  0.17220828  1  0  -0.892305  0  1.8942  0  0  -0.843352  0  2.072923  0  0  -0.861832  0  2.043055  0  0  -0.607846  -0.830106  0  2.09377  0
O  O70  1  0.74606401  0.94156914  0.87863639  1  0  -0.915427  0  1.842563  0  0  -0.874484  0  2.026748  0  0  -0.89129  0  1.995532  0  0  -0.641882  -0.862408  0  2.049053  0
O  O71  1  0.25393645  0.05843083  0.12136354  1  0  -0.915447  0  1.842581  0  0  -0.874513  0  2.026776  0  0  -0.891318  0  1.995555  0  0  -0.641898  -0.862437  0  2.049084  0
