# generated using pymatgen
data_CuH20C28(NO2)2
_symmetry_space_group_name_H-M   'P 1'
_cell_length_a   8.73037219
_cell_length_b   13.12208583
_cell_length_c   13.83881173
_cell_angle_alpha   61.73342096
_cell_angle_beta   85.30560859
_cell_angle_gamma   80.02392987
_symmetry_Int_Tables_number   1
_chemical_formula_structural   CuH20C28(NO2)2
_chemical_formula_sum   'Cu2 H40 C56 N4 O8'
_cell_volume   1375.22045110
_cell_formula_units_Z   2
loop_
 _symmetry_equiv_pos_site_id
 _symmetry_equiv_pos_as_xyz
  1  'x, y, z'
loop_
 _atom_site_type_symbol
 _atom_site_label
 _atom_site_symmetry_multiplicity
 _atom_site_fract_x
 _atom_site_fract_y
 _atom_site_fract_z
 _atom_site_occupancy
 _atom_site_pbe_bader_charge
 _atom_site_pbe_bader_spin_density
 _atom_site_pbe_cm5_charge
 _atom_site_pbe_ddec_charge
 _atom_site_pbe_ddec_spin_density
 _atom_site_pbe_ddec_sum_bond_order
 _atom_site_pbe_magmom
Cu  Cu0  1  0.54280042  0.06314864  0.20265791  1  1.056309  0.572258  0.740508  0.737479  0.732745  2.295035  0.567
Cu  Cu1  1  0.04258209  0.26542119  0.79752557  1  1.056421  0.572283  0.739982  0.737281  0.733273  2.293943  0.567
H  H2  1  0.66686432  0.54536674  0.50332110  1  0.081102  0.001208  0.108963  0.114968  0.000631  0.99707  0.001
H  H3  1  0.16698824  0.04906927  0.49661789  1  0.064851  0.001218  0.109207  0.115211  0.000632  0.99818  0.001
H  H4  1  0.45221655  0.66713157  0.46858167  1  0.083585  0.000133  0.099955  0.096719  9.5e-05  1.013785  0.0
H  H5  1  0.95212406  0.13591104  0.53127143  1  0.063339  0.000131  0.100014  0.097418  9.5e-05  1.014218  0.0
H  H6  1  0.92068184  0.43044097  0.58994554  1  0.1244  0.002178  0.121715  0.100443  0.001018  0.993414  0.002
H  H7  1  0.42090471  0.02104132  0.41003209  1  0.150668  0.002155  0.121795  0.100984  0.001022  0.993813  0.002
H  H8  1  0.33215214  0.83779322  0.89095775  1  0.046452  3.2e-05  0.10192  0.102077  2.6e-05  1.009107  0.0
H  H9  1  0.83273460  0.72850476  0.10926544  1  0.039118  3.2e-05  0.101993  0.102243  2.7e-05  1.00896  0.0
H  H10  1  0.35425327  0.62635549  0.12236603  1  0.044145  8.4e-05  0.103231  0.093763  5.6e-05  1.008925  0.0
H  H11  1  0.85442804  0.74862896  0.87770649  1  0.049553  8.4e-05  0.102982  0.093466  5.6e-05  1.009043  0.0
H  H12  1  0.42833256  0.12503418  0.98605272  1  0.141248  0.002407  0.126409  0.107826  0.00118  0.987503  0.002
H  H13  1  0.92778227  0.11095590  0.01423119  1  0.144646  0.002402  0.126564  0.109117  0.001184  0.986368  0.002
H  H14  1  0.04938886  0.92883331  0.23631410  1  0.074591  0.000457  0.098937  0.100307  0.000378  1.032051  0.0
H  H15  1  0.54924265  0.16501169  0.76362498  1  0.071984  0.000452  0.099023  0.100624  0.000375  1.032136  0.0
H  H16  1  0.34947268  0.02239143  0.89203524  1  0.101069  0.001159  0.107151  0.123959  0.000597  1.034152  0.001
H  H17  1  0.84960397  0.91419343  0.10823694  1  0.11709  0.001171  0.107098  0.123972  0.000602  1.033802  0.001
H  H18  1  0.30286859  0.81187252  0.32184144  1  0.076685  1e-06  0.093239  0.089534  -4.8e-05  1.052976  0.0
H  H19  1  0.80274272  0.13380827  0.67804114  1  0.076349  1e-06  0.093033  0.089418  -4.8e-05  1.053126  0.0
H  H20  1  0.28350877  0.48675927  0.66345899  1  0.116425  0.000107  0.10471  0.119895  9.9e-05  1.041513  0.0
H  H21  1  0.78360818  0.14982132  0.33644655  1  0.130392  0.0001  0.10485  0.120309  9.3e-05  1.041068  0.0
H  H22  1  0.49999130  0.69493280  0.18176731  1  0.036065  0.00098  0.109218  0.114154  0.000504  1.004962  0.0
H  H23  1  0.00045545  0.87636151  0.81849776  1  0.058246  0.000979  0.108917  0.114038  0.000504  1.004543  0.0
H  H24  1  0.18164050  0.60320193  0.75707810  1  0.119166  0.000437  0.102551  0.102538  0.000388  1.029485  0.0
H  H25  1  0.68245597  0.36028545  0.24285737  1  0.09791  0.000454  0.102871  0.10365  0.000387  1.028819  0.0
H  H26  1  0.71229770  0.25523264  0.89315782  1  0.130604  0.001953  0.117361  0.09222  0.000879  1.028777  0.001
H  H27  1  0.21256919  0.14826651  0.10681601  1  0.124015  0.001954  0.11769  0.092671  0.000881  1.028814  0.001
H  H28  1  0.13585273  0.34570223  0.09252239  1  0.109085  2.1e-05  0.101169  0.099926  -5e-06  1.049105  0.0
H  H29  1  0.63458133  0.43870280  0.90734542  1  0.104188  2.3e-05  0.10109  0.099634  -5e-06  1.050219  0.0
H  H30  1  0.28724533  0.72703153  0.81752685  1  0.053726  1.1e-05  0.100887  0.100001  1e-06  1.001208  0.0
H  H31  1  0.78840334  0.54435950  0.18243765  1  0.045977  1.1e-05  0.100924  0.099787  1e-06  1.001023  0.0
H  H32  1  0.06179622  0.59145870  0.61229062  1  0.115074  0.000287  0.100148  0.110173  0.000226  1.042592  0.0
H  H33  1  0.56173243  0.20396979  0.38738183  1  0.109983  0.000285  0.100277  0.110423  0.000226  1.04348  0.0
H  H34  1  0.24548653  0.46737535  0.15507530  1  0.046776  0.00017  0.104174  0.104515  8.9e-05  0.987385  0.0
H  H35  1  0.74478108  0.62261880  0.84483848  1  0.062596  0.000171  0.104301  0.104319  9e-05  0.987421  0.0
H  H36  1  0.56971702  0.81373459  0.26375752  1  0.121378  0.002061  0.117998  0.090901  0.000929  1.018884  0.001
H  H37  1  0.06966336  0.07719843  0.73655781  1  0.125032  0.002062  0.118077  0.090457  0.000929  1.019894  0.001
H  H38  1  0.45089123  0.35835701  0.81901188  1  0.1239  0.000908  0.114458  0.133239  0.000479  0.989388  0.001
H  H39  1  0.95106765  0.17707162  0.18090666  1  0.100433  0.000923  0.114518  0.133052  0.000482  0.989424  0.001
H  H40  1  0.81088844  0.71512729  0.52765902  1  0.091906  1.4e-05  0.099468  0.103097  2e-06  1.015587  0.0
H  H41  1  0.31077425  0.24265653  0.47211934  1  0.071907  1.5e-05  0.099495  0.103044  1e-06  1.015294  0.0
C  C42  1  0.67096390  0.48266947  0.59029629  1  -0.074992  0.006486  -0.080713  -0.170865  0.004334  3.928339  0.005
C  C43  1  0.17107795  0.07319961  0.40966141  1  -0.011184  0.006477  -0.08087  -0.171156  0.004344  3.930621  0.005
C  C44  1  0.35331522  0.62733585  0.51727215  1  -0.129904  -0.001781  -0.079996  -0.104687  -0.001956  3.969232  -0.001
C  C45  1  0.85327764  0.14462128  0.48259345  1  -0.078909  -0.001784  -0.079231  -0.104981  -0.00196  3.967498  -0.001
C  C46  1  0.15217837  0.46609687  0.92140452  1  -0.066308  0.004762  -0.013199  -0.019617  0.003432  3.950494  0.004
C  C47  1  0.65188991  0.38777914  0.07849255  1  -0.035601  0.004762  -0.01387  -0.020899  0.003467  3.950017  0.004
C  C48  1  0.81306584  0.41968044  0.63731095  1  0.4671  0.000831  0.045081  0.092946  0.000705  3.954357  0.001
C  C49  1  0.31325493  0.05737999  0.36267118  1  0.444004  0.000839  0.044913  0.091981  0.000707  3.955144  0.001
C  C50  1  0.35935454  0.78594676  0.97832641  1  -0.052494  0.000727  -0.092509  -0.14726  0.000431  3.983381  0.001
C  C51  1  0.85982786  0.76400861  0.02189000  1  -0.006616  0.000737  -0.092181  -0.147028  0.000433  3.982733  0.001
C  C52  1  0.91486691  0.82941344  0.37720310  1  -0.030016  0.005358  -0.023845  -0.034101  0.003819  3.982275  0.004
C  C53  1  0.41470021  0.20634787  0.62269318  1  0.009894  0.005375  -0.023824  -0.033927  0.00384  3.981357  0.004
C  C54  1  0.33310222  0.67363886  0.03388149  1  0.014299  -0.00164  -0.073601  -0.093626  -0.00182  3.978998  -0.001
C  C55  1  0.83340988  0.70736748  0.96620424  1  -0.04674  -0.001663  -0.072844  -0.092699  -0.001837  3.97872  -0.001
C  C56  1  0.44082281  0.02966069  0.02639705  1  0.423175  0.001019  0.049995  0.093879  0.00075  3.93149  0.001
C  C57  1  0.94054423  0.05588595  0.97388676  1  0.41263  0.001103  0.049589  0.092941  0.000756  3.931417  0.001
C  C58  1  0.05369724  0.85531208  0.31861561  1  -0.017834  0.000186  -0.090923  -0.095183  0.000105  4.002382  0.0
C  C59  1  0.55355870  0.17384005  0.68127125  1  -0.04405  0.00019  -0.091353  -0.096401  0.000102  4.003035  0.0
C  C60  1  0.76259461  0.90311516  0.32948248  1  1.527263  -0.000904  0.18435  0.541976  -0.001064  4.242252  -0.002
C  C61  1  0.26227094  0.23186369  0.67053471  1  1.521498  -0.000883  0.184905  0.542589  -0.001034  4.240974  -0.002
C  C62  1  0.39803805  0.97064245  0.97448113  1  -0.040351  0.006992  -0.081845  -0.16918  0.00471  3.895373  0.006
C  C63  1  0.89809758  0.94491483  0.02579161  1  0.008154  0.006977  -0.081572  -0.169194  0.004729  3.895322  0.006
C  C64  1  0.19480554  0.78930026  0.36646469  1  -0.087243  -0.000328  -0.0937  -0.130171  -0.000426  3.966534  0.0
C  C65  1  0.69469533  0.15580823  0.63339846  1  -0.111186  -0.000331  -0.093244  -0.129883  -0.000427  3.966004  0.0
C  C66  1  0.38054007  0.52593135  0.61184061  1  0.007283  0.001051  -0.091238  -0.145405  0.000633  3.960732  0.001
C  C67  1  0.88055175  0.13759037  0.38807940  1  -0.044479  0.001051  -0.092116  -0.146486  0.000632  3.958896  0.001
C  C68  1  0.47962465  0.79013686  0.13532588  1  0.041067  0.004504  -0.082702  -0.174212  0.003121  3.93972  0.004
C  C69  1  0.97987191  0.92516028  0.86494192  1  -0.145055  0.004751  -0.082206  -0.1744  0.003128  3.939911  0.004
C  C70  1  0.09649890  0.38584759  0.88792481  1  1.540691  -0.0016  0.19183  0.548652  -0.001984  4.214898  -0.003
C  C71  1  0.59620055  0.27409054  0.11196152  1  1.526948  -0.001528  0.191544  0.548171  -0.00198  4.216607  -0.003
C  C72  1  0.41335416  0.84761631  0.02948187  1  0.047107  -0.003052  0.011054  0.160162  -0.00339  4.015644  -0.002
C  C73  1  0.91368666  0.87682656  0.97078411  1  0.009607  -0.003079  0.010475  0.159434  -0.003419  4.016627  -0.002
C  C74  1  0.19406400  0.57457600  0.84429462  1  -0.083765  0.00025  -0.082858  -0.093704  0.000176  3.977758  0.0
C  C75  1  0.69441989  0.41894857  0.15564730  1  -0.063511  0.000235  -0.082836  -0.09431  0.000176  3.976901  0.0
C  C76  1  0.53430455  0.46362547  0.65423216  1  0.012476  -0.003016  0.012327  0.158993  -0.003348  4.013762  -0.002
C  C77  1  0.03439899  0.11780926  0.34571579  1  -0.021805  -0.003027  0.012378  0.159487  -0.003357  4.012072  -0.002
C  C78  1  0.69812103  0.31915766  0.80671585  1  0.457731  -0.001617  0.045801  0.089385  -0.002196  3.957555  -0.001
C  C79  1  0.19832929  0.12586488  0.19324246  1  0.445068  -0.001564  0.046138  0.089259  -0.002185  3.957165  -0.001
C  C80  1  0.16938658  0.42929586  0.03335159  1  0.028581  0.000801  -0.079367  -0.073618  0.000488  3.963422  0.001
C  C81  1  0.66865276  0.46297698  0.96653238  1  0.022804  0.000827  -0.078922  -0.07309  0.000485  3.962965  0.001
C  C82  1  0.25278010  0.64404186  0.87867622  1  -0.075555  -0.000207  -0.08776  -0.129805  -0.000307  3.964566  0.0
C  C83  1  0.75337426  0.52265180  0.12129832  1  0.002097  -0.000212  -0.088615  -0.130086  -0.000313  3.963401  0.0
C  C84  1  0.06069357  0.66571250  0.53009318  1  -0.108478  0.000576  -0.090686  -0.134274  0.000324  3.940969  0.001
C  C85  1  0.56062662  0.19589935  0.46963730  1  -0.030114  0.000566  -0.090948  -0.135347  0.000325  3.940522  0.001
C  C86  1  0.20157460  0.69310906  0.47254494  1  -0.007069  -0.000291  -0.01119  0.110552  -0.00034  4.037884  0.0
C  C87  1  0.70148421  0.16570258  0.52726989  1  -0.01441  -0.00029  -0.01124  0.111676  -0.000338  4.035411  0.0
C  C88  1  0.22978967  0.49780360  0.06765399  1  -0.049375  0.00027  -0.082239  -0.121868  8.3e-05  3.955501  0.0
C  C89  1  0.72931978  0.56563444  0.93225313  1  -0.143869  0.000269  -0.082897  -0.121665  8.2e-05  3.954345  0.0
C  C90  1  0.52012572  0.85485025  0.18158228  1  0.425414  -0.001543  0.038693  0.075049  -0.002178  3.985254  -0.001
C  C91  1  0.02008342  0.03615817  0.81870598  1  0.545833  -0.001808  0.038228  0.076288  -0.002211  3.983697  -0.001
C  C92  1  0.27231292  0.60665136  0.99134831  1  0.0384  -0.000286  -0.009893  0.102679  -0.000329  4.054552  0.0
C  C93  1  0.77251688  0.59796209  0.00862758  1  0.048139  -0.000286  -0.00944  0.102729  -0.000331  4.053981  0.0
C  C94  1  0.55152561  0.37822203  0.76495036  1  -0.036348  0.005011  -0.075224  -0.16338  0.003429  3.900515  0.004
C  C95  1  0.05169170  0.14304297  0.23498565  1  0.01391  0.004991  -0.075753  -0.163171  0.003445  3.899317  0.004
C  C96  1  0.92006301  0.73386756  0.48319115  1  -0.009152  0.001002  -0.088334  -0.095867  0.000638  3.996549  0.001
C  C97  1  0.41996699  0.21695597  0.51660345  1  -0.050058  0.001025  -0.088401  -0.095319  0.000641  3.994806  0.001
N  N98  1  0.82695148  0.33942309  0.74437621  1  -1.223547  0.082378  -0.358476  -0.249015  0.054623  3.658351  0.071
N  N99  1  0.32716178  0.08402512  0.25562277  1  -1.232218  0.082642  -0.358903  -0.248989  0.054744  3.658355  0.071
N  N100  1  0.49924648  0.97296552  0.12898785  1  -1.24169  0.08622  -0.356868  -0.244785  0.057393  3.660277  0.074
N  N101  1  0.99892160  0.10173771  0.87130157  1  -1.217345  0.086422  -0.356848  -0.2456  0.057522  3.660109  0.074
O  O102  1  0.09311975  0.41720769  0.78391820  1  -1.117991  0.109157  -0.324316  -0.532632  0.069746  2.275951  0.097
O  O103  1  0.59301817  0.20157334  0.21596467  1  -1.118471  0.109001  -0.323739  -0.532276  0.069673  2.278753  0.097
O  O104  1  0.76631278  0.98793239  0.22976000  1  -1.120885  0.101833  -0.333045  -0.541817  0.065029  2.288916  0.091
O  O105  1  0.26595790  0.21715458  0.77022916  1  -1.112579  0.101651  -0.333488  -0.542221  0.064939  2.288689  0.091
O  O106  1  0.05933465  0.28936799  0.95967054  1  -1.176998  0.006104  -0.326486  -0.566395  0.003166  2.172144  0.006
O  O107  1  0.55895564  0.24929265  0.04022102  1  -1.169378  0.005895  -0.32658  -0.565973  0.003031  2.172046  0.006
O  O108  1  0.63886474  0.88176142  0.38405149  1  -1.175115  0.003872  -0.341629  -0.580424  0.00169  2.120048  0.004
O  O109  1  0.13849823  0.26454109  0.61605499  1  -1.176873  0.003773  -0.341609  -0.580682  0.001624  2.11973  0.004
