# generated using pymatgen
data_CdH22C26(SO4)2
_symmetry_space_group_name_H-M   'P 1'
_cell_length_a   7.72110052
_cell_length_b   18.17735104
_cell_length_c   21.39401717
_cell_angle_alpha   89.99797614
_cell_angle_beta   89.99958330
_cell_angle_gamma   89.99973948
_symmetry_Int_Tables_number   1
_chemical_formula_structural   CdH22C26(SO4)2
_chemical_formula_sum   'Cd4 H88 C104 S8 O32'
_cell_volume   3002.63222153
_cell_formula_units_Z   4
loop_
 _symmetry_equiv_pos_site_id
 _symmetry_equiv_pos_as_xyz
  1  'x, y, z'
loop_
 _atom_site_type_symbol
 _atom_site_label
 _atom_site_symmetry_multiplicity
 _atom_site_fract_x
 _atom_site_fract_y
 _atom_site_fract_z
 _atom_site_occupancy
 _atom_site_pbe_bader_charge
 _atom_site_pbe_bader_spin_density
 _atom_site_pbe_cm5_charge
 _atom_site_pbe_ddec_charge
 _atom_site_pbe_ddec_spin_density
 _atom_site_pbe_ddec_sum_bond_order
 _atom_site_pbe_magmom
Cd  Cd0  1  0.47966171  0.78494060  0.95758711  1  1.341334  0  0.775958  1.044191  0  2.011495  0
Cd  Cd1  1  0.02029794  0.21507629  0.45758635  1  1.341398  0  0.776013  1.04436  0  2.011586  0
Cd  Cd2  1  0.52031991  0.28492857  0.54240374  1  1.341436  0  0.775991  1.04432  0  2.011634  0
Cd  Cd3  1  0.97969016  0.71506773  0.04241955  1  1.341309  0  0.77597  1.044325  0  2.011566  0
H  H4  1  0.33840846  0.60083095  0.58144984  1  0.092973  0  0.093009  0.093211  0  1.070965  0
H  H5  1  0.74037259  0.77838964  0.54554880  1  0.067025  0  0.097168  0.105152  0  1.020951  0
H  H6  1  0.56487462  0.48810195  0.42381467  1  0.072246  0  0.101488  0.111546  0  1.002644  0
H  H7  1  0.48529718  0.51186378  0.83323869  1  0.049568  0  0.102019  0.100745  0  1.043433  0
H  H8  1  0.61583343  0.28787216  0.78577723  1  0.073986  0  0.095102  0.090403  0  1.04653  0
H  H9  1  0.04763702  0.58351225  0.53641123  1  0.079185  0  0.092575  0.091668  0  1.042379  0
H  H10  1  0.51307340  0.38029775  0.86368559  1  0.03943  0  0.096919  0.093708  0  1.018544  0
H  H11  1  0.27244799  0.46949814  0.37895463  1  0.069102  0  0.106302  0.107716  0  0.991479  0
H  H12  1  0.72650592  0.61335718  0.81888659  1  0.068287  0  0.10718  0.091654  0  0.976791  0
H  H13  1  0.71383426  0.69199895  0.76897007  1  0.083532  0  0.104398  0.087947  0  1.003758  0
H  H14  1  0.68817252  0.32580558  0.67851901  1  0.093904  0  0.10268  0.111515  0  1.039059  0
H  H15  1  0.23092372  0.67485433  0.66833951  1  0.052821  0  0.097666  0.099574  0  1.014303  0
H  H16  1  0.04243591  0.81336348  0.51932450  1  0.081185  0  0.087411  0.07814  0  1.081973  0
H  H17  1  0.93085108  0.63776029  0.69316018  1  0.077698  0  0.099337  0.105328  0  1.007866  0
H  H18  1  0.93729700  0.45590780  0.55123678  1  0.08543  0  0.100751  0.08243  0  1.05343  0
H  H19  1  0.96872992  0.39987235  0.61902850  1  0.097981  0  0.119962  0.117795  0  0.938863  0
H  H20  1  0.28916331  0.76167294  0.58008776  1  0.039943  0  0.092517  0.086355  0  1.033179  0
H  H21  1  0.01067225  0.51548300  0.43620017  1  0.071299  0  0.097411  0.09029  0  1.025882  0
H  H22  1  0.76051753  0.87316710  0.96053066  1  0.648796  0  0.28554  0.381283  0  0.96491  0
H  H23  1  0.60198280  0.92838645  0.96390994  1  0.603508  0  0.291883  0.368673  0  0.963173  0
H  H24  1  0.57164369  0.81675974  0.08425124  1  0.630014  0  0.31486  0.407869  0  0.880213  0
H  H25  1  0.36669495  0.80951518  0.08532432  1  0.674889  0  0.282794  0.385994  0  0.953922  0
H  H26  1  0.16160472  0.39914873  0.08143199  1  0.09277  0  0.092904  0.093229  0  1.070896  0
H  H27  1  0.75962705  0.22160929  0.04554493  1  0.0669  0  0.097129  0.105079  0  1.020954  0
H  H28  1  0.93520486  0.51191264  0.92379103  1  0.071702  0  0.101401  0.111125  0  1.002903  0
H  H29  1  0.01472346  0.48811700  0.33322646  1  0.049673  0  0.10197  0.100632  0  1.043472  0
H  H30  1  0.88408069  0.71210800  0.28576999  1  0.074606  0  0.09504  0.09017  0  1.04627  0
H  H31  1  0.45240692  0.41647369  0.03641085  1  0.078663  0  0.092428  0.091388  0  1.042306  0
H  H32  1  0.98688564  0.61968248  0.36367528  1  0.039405  0  0.096923  0.093831  0  1.018325  0
H  H33  1  0.22766232  0.53052091  0.87895664  1  0.068948  0  0.106322  0.107715  0  0.991424  0
H  H34  1  0.77350590  0.38665681  0.31887492  1  0.06853  0  0.107278  0.091726  0  0.976653  0
H  H35  1  0.78614756  0.30800941  0.26896447  1  0.083345  0  0.104428  0.087976  0  1.003753  0
H  H36  1  0.81177242  0.67418233  0.17851028  1  0.094127  0  0.102698  0.111493  0  1.039062  0
H  H37  1  0.26909922  0.32513604  0.16833951  1  0.053158  0  0.097686  0.099568  0  1.014106  0
H  H38  1  0.45756437  0.18663582  0.01932821  1  0.081218  0  0.087413  0.078196  0  1.081976  0
H  H39  1  0.56916736  0.36223636  0.19315114  1  0.07769  0  0.099369  0.105431  0  1.007952  0
H  H40  1  0.56266236  0.54410354  0.05122368  1  0.085815  0  0.100676  0.082378  0  1.053331  0
H  H41  1  0.53129144  0.60012518  0.11902034  1  0.098181  0  0.119863  0.117708  0  0.938941  0
H  H42  1  0.21084989  0.23831834  0.08009519  1  0.039523  0  0.092478  0.086249  0  1.033261  0
H  H43  1  0.48940961  0.48452047  0.93620900  1  0.071937  0  0.097387  0.090304  0  1.025956  0
H  H44  1  0.73946401  0.12683662  0.46052969  1  0.648751  0  0.285493  0.381055  0  0.965182  0
H  H45  1  0.89801680  0.07162538  0.46391726  1  0.603626  0  0.291895  0.36864  0  0.963275  0
H  H46  1  0.92836159  0.18324968  0.58426040  1  0.600387  0  0.314843  0.407839  0  0.880256  0
H  H47  1  0.13331037  0.19049294  0.58532183  1  0.674869  0  0.282828  0.386058  0  0.953831  0
H  H48  1  0.66161016  0.10082395  0.91855682  1  0.092797  0  0.09294  0.093178  0  1.0711  0
H  H49  1  0.25962594  0.27837971  0.95445159  1  0.066995  0  0.097164  0.10509  0  1.020926  0
H  H50  1  0.43517265  0.98810238  0.07620873  1  0.071655  0  0.10144  0.11125  0  1.002879  0
H  H51  1  0.51469780  0.01188016  0.66676084  1  0.049445  0  0.101974  0.100649  0  1.043398  0
H  H52  1  0.38407694  0.78788126  0.71423270  1  0.074684  0  0.095078  0.090248  0  1.046259  0
H  H53  1  0.95240510  0.08350559  0.96358334  1  0.078958  0  0.092483  0.091497  0  1.042242  0
H  H54  1  0.48685408  0.88031043  0.63632248  1  0.039383  0  0.096935  0.093827  0  1.018391  0
H  H55  1  0.72762280  0.96949670  0.12105250  1  0.069037  0  0.106271  0.107718  0  0.991514  0
H  H56  1  0.27353328  0.11334372  0.68111783  1  0.068197  0  0.107245  0.091696  0  0.976696  0
H  H57  1  0.28616781  0.19199054  0.73102731  1  0.083735  0  0.104422  0.087929  0  1.003746  0
H  H58  1  0.31179960  0.82581697  0.82149584  1  0.094014  0  0.102684  0.111534  0  1.039107  0
H  H59  1  0.76908890  0.17485349  0.83166073  1  0.052805  0  0.097689  0.099625  0  1.014327  0
H  H60  1  0.95756224  0.31335941  0.98066222  1  0.081513  0  0.087328  0.077925  0  1.082256  0
H  H61  1  0.06916065  0.13775630  0.80684631  1  0.077681  0  0.099346  0.105343  0  1.007854  0
H  H62  1  0.06267498  0.95590833  0.94876482  1  0.085421  0  0.100663  0.082292  0  1.053388  0
H  H63  1  0.03128154  0.89987575  0.88097291  1  0.098111  0  0.119916  0.117778  0  0.938826  0
H  H64  1  0.71083670  0.26167350  0.91990285  1  0.040004  0  0.092475  0.086209  0  1.033315  0
H  H65  1  0.98938797  0.01547965  0.06379632  1  0.071051  0  0.097391  0.090317  0  1.025827  0
H  H66  1  0.23947349  0.37316837  0.53946922  1  0.648799  0  0.285566  0.38123  0  0.964934  0
H  H67  1  0.39801539  0.42838481  0.53608641  1  0.603489  0  0.291887  0.368638  0  0.963243  0
H  H68  1  0.42834848  0.31675770  0.41574319  1  0.629925  0  0.314868  0.407836  0  0.880231  0
H  H69  1  0.63329729  0.30950895  0.41467406  1  0.674887  0  0.282784  0.385941  0  0.953972  0
H  H70  1  0.83836323  0.89916500  0.41856230  1  0.092643  0  0.092911  0.09324  0  1.071084  0
H  H71  1  0.24037781  0.72162080  0.45445376  1  0.067023  0  0.097132  0.105074  0  1.021031  0
H  H72  1  0.06479919  0.01190722  0.57619588  1  0.071946  0  0.101386  0.111161  0  1.002747  0
H  H73  1  0.98528625  0.98813189  0.16676422  1  0.04963  0  0.102017  0.1007  0  1.043353  0
H  H74  1  0.11584398  0.21212867  0.21422853  1  0.074075  0  0.095078  0.090312  0  1.046447  0
H  H75  1  0.54756990  0.91647929  0.46358993  1  0.078442  0  0.09246  0.091416  0  1.042193  0
H  H76  1  0.01308019  0.11970327  0.13631760  1  0.039581  0  0.096952  0.093731  0  1.018542  0
H  H77  1  0.77234800  0.03051284  0.62103999  1  0.069188  0  0.106238  0.107623  0  0.991463  0
H  H78  1  0.22648938  0.88665438  0.18111600  1  0.068355  0  0.107263  0.091689  0  0.976849  0
H  H79  1  0.21384988  0.80801428  0.23103162  1  0.081547  0  0.104414  0.087966  0  1.003766  0
H  H80  1  0.18817856  0.17419346  0.32148656  1  0.093868  0  0.102709  0.111567  0  1.038997  0
H  H81  1  0.73092005  0.82514072  0.33165467  1  0.052706  0  0.097758  0.099622  0  1.014261  0
H  H82  1  0.54243829  0.68663577  0.48067153  1  0.081254  0  0.087404  0.078168  0  1.081946  0
H  H83  1  0.43084891  0.86224098  0.30683538  1  0.077625  0  0.099399  0.105408  0  1.007748  0
H  H84  1  0.43729393  0.04409242  0.44877007  1  0.085537  0  0.100728  0.082377  0  1.0534  0
H  H85  1  0.46870828  0.10012341  0.38097593  1  0.098091  0  0.119894  0.117735  0  0.938893  0
H  H86  1  0.78916515  0.73831925  0.41990347  1  0.039928  0  0.092484  0.086194  0  1.033273  0
H  H87  1  0.51058407  0.98451632  0.56379407  1  0.07124  0  0.097333  0.09024  0  1.025928  0
H  H88  1  0.26053153  0.62684055  0.03946812  1  0.648887  0  0.285535  0.381122  0  0.965042  0
H  H89  1  0.10199877  0.57162150  0.03607613  1  0.603479  0  0.291859  0.368607  0  0.963328  0
H  H90  1  0.07163411  0.68324441  0.91575220  1  0.630174  0  0.314855  0.407843  0  0.880195  0
H  H91  1  0.86668654  0.69049832  0.91468074  1  0.674912  0  0.28277  0.385822  0  0.954134  0
C  C92  1  0.32420775  0.57225621  0.53709957  1  -0.130176  0  -0.095994  -0.130326  0  3.986583  0
C  C93  1  0.66948192  0.46487247  0.63241901  1  0.498001  0  0.083145  0.168162  0  4.016289  0
C  C94  1  0.65398003  0.53797482  0.61458911  1  -0.135131  0  -0.022417  -0.080698  0  4.022821  0
C  C95  1  0.63274179  0.44144647  0.69446993  1  0.009627  0  -0.010212  0.006579  0  3.993276  0
C  C96  1  0.60781483  0.59220954  0.66042126  1  -0.076004  0  -0.02259  -0.082051  0  4.047863  0
C  C97  1  0.84805396  0.75583564  0.57244204  1  -0.094336  0  -0.097679  -0.132677  0  3.9739  0
C  C98  1  0.45162225  0.50997659  0.44784690  1  -0.000203  0  -0.092448  -0.132715  0  3.9832  0
C  C99  1  0.53218098  0.47108950  0.80011456  1  -0.018551  0  -0.093789  -0.129495  0  3.988498  0
C  C100  1  0.47088940  0.54603453  0.50541757  1  -0.126513  0  -0.012937  0.048212  0  4.029687  0
C  C101  1  0.81631471  0.70604082  0.62117468  1  -0.135505  0  -0.01513  0.054302  0  4.057275  0
C  C102  1  0.60593311  0.34556621  0.77262129  1  0.016798  0  -0.088059  -0.065998  0  3.991562  0
C  C103  1  0.56396174  0.57015506  0.72064829  1  0.522785  0  0.078388  0.151637  0  4.036506  0
C  C104  1  0.57472338  0.49476415  0.73893256  1  0.026855  0  -0.01096  0.004171  0  4.002444  0
C  C105  1  0.16012785  0.56192205  0.51164889  1  0.02061  0  -0.094214  -0.07547  0  4.011636  0
C  C106  1  0.54779426  0.39793382  0.81659876  1  -0.045937  0  -0.088457  -0.072408  0  4.00903  0
C  C107  1  0.28619409  0.49940366  0.42285850  1  -0.045787  0  -0.086596  -0.062652  0  3.983369  0
C  C108  1  0.56453205  0.70043753  0.85275570  1  1.590137  0  0.196632  0.594709  0  4.191113  0
C  C109  1  0.63773747  0.65504307  0.79935445  1  0.39249  0  -0.066065  -0.113955  0  3.906568  0
C  C110  1  0.64741867  0.36676358  0.71256581  1  -0.067092  0  -0.087583  -0.10764  0  3.941866  0
C  C111  1  0.12433417  0.69717069  0.64069092  1  0.03477  0  -0.091747  -0.070085  0  4.008332  0
C  C112  1  0.01803633  0.77562618  0.55794383  1  0.029399  0  -0.094598  -0.068653  0  3.999694  0
C  C113  1  0.95513409  0.67650048  0.65523307  1  -0.080388  0  -0.099641  -0.13774  0  3.990121  0
C  C114  1  0.89247309  0.40617787  0.57566731  1  0.399109  0  -0.064519  -0.126468  0  3.901736  0
C  C115  1  0.15648659  0.74651274  0.59191248  1  -0.100549  0  -0.098018  -0.092058  0  4.005761  0
C  C116  1  0.14032838  0.52492886  0.45479292  1  -0.121344  0  -0.095137  -0.097144  0  4.017397  0
C  C117  1  0.92495372  0.33970090  0.53496203  1  1.576194  0  0.21508  0.614662  0  4.144309  0
C  C118  1  0.17584524  0.42772640  0.03708503  1  -0.129503  0  -0.095898  -0.130567  0  3.986486  0
C  C119  1  0.83054174  0.53511790  0.13240133  1  0.497812  0  0.083321  0.168596  0  4.016796  0
C  C120  1  0.84605696  0.46201629  0.11457126  1  -0.134981  0  -0.022571  -0.081121  0  4.02295  0
C  C121  1  0.86723648  0.55854078  0.19444912  1  0.008983  0  -0.010244  0.006717  0  3.993565  0
C  C122  1  0.89221857  0.40777527  0.16040680  1  -0.07652  0  -0.022584  -0.081761  0  4.047814  0
C  C123  1  0.65195157  0.24416327  0.07244056  1  -0.094161  0  -0.097629  -0.132412  0  3.973976  0
C  C124  1  0.04844641  0.49004455  0.94783653  1  0.001053  0  -0.092044  -0.131673  0  3.982937  0
C  C125  1  0.96781183  0.52889061  0.30009627  1  -0.018746  0  -0.093532  -0.128916  0  3.988481  0
C  C126  1  0.02916169  0.45396590  0.00540026  1  -0.126222  0  -0.013009  0.048193  0  4.02934  0
C  C127  1  0.68369624  0.29394946  0.12116741  1  -0.135564  0  -0.015077  0.054225  0  4.05717  0
C  C128  1  0.89400201  0.65440899  0.27260829  1  0.018006  0  -0.087952  -0.065397  0  3.990653  0
C  C129  1  0.93605481  0.42983220  0.22062605  1  0.523011  0  0.078487  0.151668  0  4.036699  0
C  C130  1  0.92527853  0.50522070  0.23891369  1  0.0273  0  -0.011053  0.003849  0  4.002649  0
C  C131  1  0.33992570  0.43806822  0.01163738  1  0.020364  0  -0.094026  -0.075082  0  4.011772  0
C  C132  1  0.95217099  0.60204121  0.31658859  1  -0.045979  0  -0.088574  -0.073011  0  4.008751  0
C  C133  1  0.21389195  0.50061026  0.92285957  1  -0.046119  0  -0.086643  -0.063037  0  3.983481  0
C  C134  1  0.93546479  0.29956296  0.35274719  1  1.590752  0  0.196746  0.594966  0  4.190917  0
C  C135  1  0.86225665  0.34496074  0.29934755  1  0.392407  0  -0.066135  -0.114015  0  3.906411  0
C  C136  1  0.85252424  0.63321687  0.21255401  1  -0.068187  0  -0.087649  -0.107856  0  3.941816  0
C  C137  1  0.37568030  0.30282303  0.14068386  1  0.034553  0  -0.091744  -0.069993  0  4.008527  0
C  C138  1  0.48196441  0.22437042  0.05794402  1  0.02923  0  -0.094647  -0.068841  0  3.999756  0
C  C139  1  0.54487223  0.32350435  0.15522199  1  -0.080489  0  -0.099657  -0.13784  0  3.990091  0
C  C140  1  0.60754403  0.59382201  0.07565728  1  0.398707  0  -0.064357  -0.126287  0  3.901519  0
C  C141  1  0.34352506  0.25348080  0.09191493  1  -0.100248  0  -0.098009  -0.091992  0  4.006013  0
C  C142  1  0.35974530  0.47507494  0.95479113  1  -0.122431  0  -0.095352  -0.097294  0  4.017688  0
C  C143  1  0.57503838  0.66031277  0.03496971  1  1.575096  0  0.215173  0.614928  0  4.144466  0
C  C144  1  0.67583449  0.07225560  0.96290608  1  -0.129829  0  -0.095998  -0.130567  0  3.986354  0
C  C145  1  0.33054177  0.96487696  0.86759681  1  0.497523  0  0.083143  0.168373  0  4.016503  0
C  C146  1  0.34604186  0.03798135  0.88542552  1  -0.134822  0  -0.022499  -0.080927  0  4.022756  0
C  C147  1  0.36724330  0.94145841  0.80554425  1  0.009592  0  -0.010326  0.006636  0  3.993595  0
C  C148  1  0.39221424  0.09221788  0.83959221  1  -0.077213  0  -0.02261  -0.082029  0  4.047966  0
C  C149  1  0.15194611  0.25582923  0.92755762  1  -0.093929  0  -0.097656  -0.132481  0  3.973785  0
C  C150  1  0.54842249  0.00996740  0.05216424  1  0.000764  0  -0.092332  -0.132212  0  3.983274  0
C  C151  1  0.46780249  0.97110619  0.69989546  1  -0.018406  0  -0.093635  -0.129062  0  3.988389  0
C  C152  1  0.52914276  0.04603069  0.99459402  1  -0.12637  0  -0.012913  0.04835  0  4.029179  0
C  C153  1  0.18369757  0.20604243  0.87882695  1  -0.135539  0  -0.01521  0.05398  0  4.057289  0
C  C154  1  0.39399346  0.84558190  0.72739157  1  0.017702  0  -0.088017  -0.065513  0  3.990743  0
C  C155  1  0.43606239  0.07016252  0.77936818  1  0.523697  0  0.078483  0.151799  0  4.036666  0
C  C156  1  0.42528574  0.99477343  0.76108188  1  0.026666  0  -0.010951  0.004013  0  4.002564  0
C  C157  1  0.83991450  0.06191623  0.98835661  1  0.020716  0  -0.094017  -0.074925  0  4.011643  0
C  C158  1  0.45215375  0.89795068  0.68340879  1  -0.046031  0  -0.08851  -0.072951  0  4.008807  0
C  C159  1  0.71386731  0.99940187  0.07714400  1  -0.045994  0  -0.086545  -0.062865  0  3.983574  0
C  C160  1  0.43551526  0.20043176  0.64724704  1  1.590198  0  0.196483  0.594504  0  4.191551  0
C  C161  1  0.36228185  0.15503412  0.70064779  1  0.392628  0  -0.066152  -0.113871  0  3.906412  0
C  C162  1  0.35253098  0.86677575  0.78744781  1  -0.068255  0  -0.087562  -0.107803  0  3.941706  0
C  C163  1  0.87567302  0.19716685  0.85930865  1  0.034895  0  -0.09181  -0.070297  0  4.00839  0
C  C164  1  0.98195706  0.27562036  0.94205010  1  0.029031  0  -0.094594  -0.068574  0  3.999863  0
C  C165  1  0.04487722  0.17649331  0.84476898  1  -0.080924  0  -0.099571  -0.137563  0  3.989787  0
C  C166  1  0.10752923  0.90618208  0.92433812  1  0.398923  0  -0.064334  -0.126075  0  3.901401  0
C  C167  1  0.84350841  0.24650529  0.90808420  1  -0.100755  0  -0.097922  -0.091774  0  4.00556  0
C  C168  1  0.85972396  0.02492708  0.04520655  1  -0.121656  0  -0.095263  -0.097358  0  4.017623  0
C  C169  1  0.07504803  0.83970293  0.96504073  1  1.576442  0  0.214908  0.614386  0  4.144616  0
C  C170  1  0.82413534  0.92773922  0.46290512  1  -0.129145  0  -0.095941  -0.130515  0  3.986546  0
C  C171  1  0.16946258  0.03512550  0.36759082  1  0.497833  0  0.083118  0.168317  0  4.016732  0
C  C172  1  0.15396340  0.96202533  0.38541974  1  -0.135515  0  -0.022414  -0.080941  0  4.023025  0
C  C173  1  0.13275722  0.05855433  0.30553905  1  0.00933  0  -0.010233  0.006561  0  3.993314  0
C  C174  1  0.10779850  0.90778684  0.33958630  1  -0.075871  0  -0.02266  -0.082013  0  4.047936  0
C  C175  1  0.34805564  0.74416854  0.42755699  1  -0.094073  0  -0.097671  -0.132516  0  3.973996  0
C  C176  1  0.95155369  0.99004170  0.55215422  1  0.000903  0  -0.092202  -0.131953  0  3.98304  0
C  C177  1  0.03218220  0.02890763  0.19989373  1  -0.018504  0  -0.093675  -0.129261  0  3.988515  0
C  C178  1  0.97083026  0.95397327  0.49458864  1  -0.126476  0  -0.01297  0.04818  0  4.029262  0
C  C179  1  0.31631172  0.79395462  0.37882536  1  -0.135412  0  -0.01516  0.054165  0  4.057042  0
C  C180  1  0.10594013  0.15443078  0.22738589  1  0.01666  0  -0.087967  -0.065826  0  3.991302  0
C  C181  1  0.06396979  0.92984525  0.27936498  1  0.523008  0  0.078526  0.151827  0  4.036412  0
C  C182  1  0.07473000  0.00523125  0.26107329  1  0.026678  0  -0.011033  0.004075  0  4.002205  0
C  C183  1  0.66006125  0.93807643  0.48835761  1  0.020651  0  -0.093996  -0.074942  0  4.011854  0
C  C184  1  0.04779115  0.10206163  0.18340389  1  -0.045619  0  -0.088519  -0.072551  0  4.008892  0
C  C185  1  0.78610315  0.00060289  0.57713656  1  -0.046112  0  -0.086391  -0.062699  0  3.983429  0
C  C186  1  0.06449648  0.79956608  0.14725851  1  1.591191  0  0.19652  0.594765  0  4.191312  0
C  C187  1  0.13774298  0.84497031  0.20065070  1  0.394242  0  -0.066206  -0.11409  0  3.906636  0
C  C188  1  0.14743367  0.13323499  0.28743706  1  -0.067184  0  -0.087687  -0.107792  0  3.941998  0
C  C189  1  0.62433015  0.80282401  0.35930305  1  0.035306  0  -0.091924  -0.07031  0  4.008569  0
C  C190  1  0.51804431  0.72437312  0.44205179  1  0.029349  0  -0.09457  -0.06875  0  3.999535  0
C  C191  1  0.45514188  0.82350515  0.34476336  1  -0.081317  0  -0.099603  -0.13771  0  3.989722  0
C  C192  1  0.39245964  0.09381913  0.42433918  1  0.398886  0  -0.064367  -0.126179  0  3.901574  0
C  C193  1  0.65649370  0.75348685  0.40808047  1  -0.100726  0  -0.097981  -0.09175  0  4.005662  0
C  C194  1  0.64024849  0.97507021  0.54520708  1  -0.121997  0  -0.095349  -0.097328  0  4.01773  0
C  C195  1  0.42493348  0.16030429  0.46503269  1  1.575112  0  0.214966  0.614604  0  4.145045  0
S  S196  1  0.68336907  0.56151288  0.53468601  1  0.083696  0  0.020291  -0.019696  0  2.834932  0
S  S197  1  0.59788460  0.68657354  0.64065031  1  0.096417  0  0.030276  -0.015287  0  2.882352  0
S  S198  1  0.81666966  0.43848374  0.03466753  1  0.083614  0  0.02031  -0.019566  0  2.834716  0
S  S199  1  0.90214535  0.31340934  0.14064006  1  0.096574  0  0.030359  -0.015218  0  2.882074  0
S  S200  1  0.31665515  0.06151505  0.96532885  1  0.08367  0  0.020331  -0.019642  0  2.83487  0
S  S201  1  0.40213955  0.18658105  0.85935425  1  0.096829  0  0.030376  -0.015052  0  2.882316  0
S  S202  1  0.18331858  0.93848666  0.46532464  1  0.083712  0  0.020378  -0.019532  0  2.834867  0
S  S203  1  0.09786628  0.81341956  0.35935354  1  0.096827  0  0.030352  -0.015161  0  2.882033  0
O  O204  1  0.50289328  0.62015490  0.76394617  1  -1.073901  0  -0.199132  -0.207849  0  2.570941  0
O  O205  1  0.71148446  0.41083850  0.58957929  1  -1.092868  0  -0.192526  -0.219391  0  2.656391  0
O  O206  1  0.40480857  0.70998017  0.86034852  1  -1.163738  0  -0.32452  -0.545027  0  2.128161  0
O  O207  1  0.68069370  0.72889187  0.88859506  1  -1.172689  0  -0.333496  -0.579181  0  2.229826  0
O  O208  1  0.07216109  0.33494247  0.50890912  1  -1.166188  0  -0.305549  -0.537798  0  2.248844  0
O  O209  1  0.81099881  0.28996727  0.52855037  1  -1.152438  0  -0.317544  -0.567985  0  2.391048  0
O  O210  1  0.64747551  0.88681098  0.94000335  1  -1.217009  0  -0.58435  -0.740833  0  2.101304  0
O  O211  1  0.46638291  0.83423035  0.06382483  1  -1.2749  0  -0.582943  -0.764467  0  2.014786  0
O  O212  1  0.99710808  0.37983221  0.26393463  1  -1.07393  0  -0.199195  -0.20799  0  2.570852  0
O  O213  1  0.78852846  0.58915365  0.08956523  1  -1.09289  0  -0.192647  -0.219754  0  2.656612  0
O  O214  1  0.09515838  0.29001764  0.36034486  1  -1.164467  0  -0.324481  -0.544911  0  2.128678  0
O  O215  1  0.81927775  0.27111318  0.38859329  1  -1.172277  0  -0.33366  -0.579543  0  2.229468  0
O  O216  1  0.42786272  0.66508422  0.00890646  1  -1.165982  0  -0.305353  -0.537763  0  2.249295  0
O  O217  1  0.68901027  0.71004941  0.02857452  1  -1.151749  0  -0.317789  -0.56826  0  2.390861  0
O  O218  1  0.85252202  0.11320019  0.44000954  1  -1.216991  0  -0.584325  -0.740669  0  2.101713  0
O  O219  1  0.03361381  0.16578086  0.56382706  1  -1.245116  0  -0.582969  -0.764538  0  2.014766  0
O  O220  1  0.49711865  0.12016074  0.73606366  1  -1.07421  0  -0.19912  -0.207965  0  2.571163  0
O  O221  1  0.28851910  0.91083909  0.91043348  1  -1.09248  0  -0.19258  -0.219772  0  2.656587  0
O  O222  1  0.59519072  0.20997552  0.63965346  1  -1.164028  0  -0.324489  -0.544858  0  2.128958  0
O  O223  1  0.31932222  0.22888286  0.61140122  1  -1.172361  0  -0.333436  -0.579287  0  2.229512  0
O  O224  1  0.92780315  0.83494237  0.99110032  1  -1.166231  0  -0.305527  -0.537851  0  2.247923  0
O  O225  1  0.18896075  0.78997432  0.97144780  1  -1.152364  0  -0.317389  -0.567649  0  2.391826  0
O  O226  1  0.35252832  0.38680734  0.55999237  1  -1.216956  0  -0.584359  -0.74075  0  2.101447  0
O  O227  1  0.53360777  0.33422397  0.43617281  1  -1.274799  0  -0.582937  -0.764415  0  2.014942  0
O  O228  1  0.00290022  0.87984828  0.23606024  1  -1.073861  0  -0.199149  -0.207945  0  2.57095  0
O  O229  1  0.21147785  0.08916490  0.41042623  1  -1.092908  0  -0.192654  -0.219629  0  2.656386  0
O  O230  1  0.90483148  0.79002115  0.13966299  1  -1.164515  0  -0.32432  -0.544716  0  2.12911  0
O  O231  1  0.18070067  0.77111428  0.11140905  1  -1.172521  0  -0.333574  -0.579549  0  2.229318  0
O  O232  1  0.57215700  0.16506889  0.49109627  1  -1.166047  0  -0.305491  -0.537867  0  2.248494  0
O  O233  1  0.31100379  0.21003209  0.47143481  1  -1.151585  0  -0.317463  -0.567893  0  2.391886  0
O  O234  1  0.14747626  0.61319192  0.05998962  1  -1.2169  0  -0.584267  -0.740567  0  2.101545  0
O  O235  1  0.96637171  0.66577856  0.93618186  1  -1.2749  0  -0.582917  -0.764335  0  2.014865  0
