# generated using pymatgen
data_MgH12C8(NO4)2
_symmetry_space_group_name_H-M   'P 1'
_cell_length_a   7.64854941
_cell_length_b   7.56991347
_cell_length_c   9.42292146
_cell_angle_alpha   89.99997908
_cell_angle_beta   90.00020783
_cell_angle_gamma   108.99513241
_symmetry_Int_Tables_number   1
_chemical_formula_structural   MgH12C8(NO4)2
_chemical_formula_sum   'Mg2 H24 C16 N4 O16'
_cell_volume   515.86769353
_cell_formula_units_Z   2
loop_
 _symmetry_equiv_pos_site_id
 _symmetry_equiv_pos_as_xyz
  1  'x, y, z'
loop_
 _atom_site_type_symbol
 _atom_site_label
 _atom_site_symmetry_multiplicity
 _atom_site_fract_x
 _atom_site_fract_y
 _atom_site_fract_z
 _atom_site_occupancy
 _atom_site_pbe_bader_spin_density
 _atom_site_pbe_cm5_charge
 _atom_site_pbe_ddec_charge
 _atom_site_pbe_ddec_spin_density
 _atom_site_pbe_ddec_sum_bond_order
 _atom_site_pbe_magmom
Mg  Mg0  1  0.99999933  0.99999923  0.99999984  1  0  0.807512  1.432814  0  1.357578  0
Mg  Mg1  1  0.99999938  0.49999717  0.50000196  1  0  0.807576  1.432834  0  1.357472  0
H  H2  1  0.33292749  0.15935544  0.38436003  1  0  0.123361  0.127709  0  0.974245  0
H  H3  1  0.66707039  0.34064132  0.88436573  1  0  0.123331  0.127676  0  0.974228  0
H  H4  1  0.66707282  0.84064500  0.61563794  1  0  0.123351  0.127714  0  0.974229  0
H  H5  1  0.33292724  0.65935493  0.11563968  1  0  0.123344  0.127695  0  0.974257  0
H  H6  1  0.22313961  0.91214987  0.38978056  1  0  0.128009  0.137782  0  1.002487  0
H  H7  1  0.77686256  0.58784479  0.88978455  1  0  0.128022  0.137801  0  1.002478  0
H  H8  1  0.77686070  0.08785057  0.61021529  1  0  0.128019  0.137844  0  1.002403  0
H  H9  1  0.22313808  0.41214865  0.11021767  1  0  0.128006  0.137783  0  1.00248  0
H  H10  1  0.13743174  0.13893027  0.58201925  1  0  0.125344  0.135916  0  0.999502  0
H  H11  1  0.86256514  0.36106752  0.08202568  1  0  0.12534  0.13594  0  0.999591  0
H  H12  1  0.86256504  0.86106739  0.41797660  1  0  0.125336  0.135897  0  0.999527  0
H  H13  1  0.13743608  0.63893571  0.91797760  1  0  0.125355  0.135961  0  0.999497  0
H  H14  1  0.25082260  0.14582348  0.74641960  1  0  0.120139  0.112798  0  1.035461  0
H  H15  1  0.74917286  0.35417172  0.24642569  1  0  0.120149  0.112748  0  1.035516  0
H  H16  1  0.74917641  0.85417696  0.25357625  1  0  0.12015  0.112765  0  1.035518  0
H  H17  1  0.25082745  0.64582872  0.75357759  1  0  0.12013  0.112726  0  1.035497  0
H  H18  1  0.65034775  0.95452945  0.91285888  1  0  0.299746  0.395723  0  0.93307  0
H  H19  1  0.34965198  0.54546945  0.41286177  1  0  0.299756  0.395736  0  0.933055  0
H  H20  1  0.34965256  0.04547099  0.08713697  1  0  0.299726  0.395651  0  0.933125  0
H  H21  1  0.65034878  0.45453239  0.58713833  1  0  0.299749  0.395727  0  0.933059  0
H  H22  1  0.64337451  0.96096802  0.08095233  1  0  0.293927  0.382185  0  0.962841  0
H  H23  1  0.35662669  0.53903187  0.58095402  1  0  0.293913  0.382155  0  0.962883  0
H  H24  1  0.35662403  0.03903103  0.91904352  1  0  0.293932  0.382192  0  0.962829  0
H  H25  1  0.64337362  0.46096857  0.41904608  1  0  0.29393  0.382167  0  0.962869  0
C  C26  1  0.49222816  0.00139153  0.65209786  1  0  0.256615  0.463791  0  4.062414  0
C  C27  1  0.50776867  0.49860915  0.15211061  1  0  0.256629  0.463774  0  4.062531  0
C  C28  1  0.50777084  0.99860892  0.34789905  1  0  0.256608  0.463654  0  4.062388  0
C  C29  1  0.49222903  0.50139130  0.84789161  1  0  0.256686  0.463965  0  4.06242  0
C  C30  1  0.34690150  0.02743390  0.42351460  1  0  -0.047207  -0.195871  0  3.891456  0
C  C31  1  0.65309833  0.47256430  0.92352021  1  0  -0.047201  -0.195924  0  3.891378  0
C  C32  1  0.65309790  0.97256375  0.57648125  1  0  -0.047235  -0.196054  0  3.891494  0
C  C33  1  0.34690106  0.52743334  0.07648520  1  0  -0.047204  -0.195883  0  3.891502  0
C  C34  1  0.05191119  0.87489901  0.69031025  1  0  0.230515  0.663343  0  4.15175  0
C  C35  1  0.94809445  0.62510098  0.19032869  1  0  0.2305  0.66345  0  4.152061  0
C  C36  1  0.94808911  0.12510143  0.30968667  1  0  0.230529  0.663403  0  4.151911  0
C  C37  1  0.05190775  0.37490924  0.80966823  1  0  0.230493  0.663349  0  4.152034  0
C  C38  1  0.20083734  0.06071703  0.65213456  1  0  -0.062531  -0.238123  0  3.860251  0
C  C39  1  0.79916204  0.43927944  0.15214077  1  0  -0.062585  -0.238173  0  3.860323  0
C  C40  1  0.79916075  0.93928062  0.34786023  1  0  -0.062566  -0.238114  0  3.860246  0
C  C41  1  0.20084048  0.56072379  0.84786251  1  0  -0.062591  -0.23814  0  3.860186  0
N  N42  1  0.35694371  0.03294112  0.57771838  1  0  -0.26273  -0.04686  0  3.671277  0
N  N43  1  0.64305447  0.46705666  0.07772306  1  0  -0.26274  -0.046888  0  3.67108  0
N  N44  1  0.64305438  0.96705653  0.42227959  1  0  -0.262719  -0.046802  0  3.671249  0
N  N45  1  0.35694715  0.53294378  0.92228129  1  0  -0.262715  -0.046949  0  3.671211  0
O  O46  1  0.01664106  0.74831829  0.59714697  1  0  -0.356528  -0.663702  0  2.303337  0
O  O47  1  0.98335546  0.75168303  0.09715379  1  0  -0.356545  -0.663821  0  2.303128  0
O  O48  1  0.98335619  0.25168077  0.40285207  1  0  -0.356542  -0.663757  0  2.303258  0
O  O49  1  0.01664525  0.24831460  0.90285586  1  0  -0.356625  -0.663905  0  2.302901  0
O  O50  1  0.49285289  0.99719577  0.78628749  1  0  -0.292688  -0.516018  0  2.231992  0
O  O51  1  0.50714675  0.50280857  0.28628662  1  0  -0.292694  -0.516  0  2.232336  0
O  O52  1  0.50714924  0.00281026  0.21370836  1  0  -0.292675  -0.515938  0  2.231898  0
O  O53  1  0.49285584  0.49719885  0.71371773  1  0  -0.292749  -0.516099  0  2.232262  0
O  O54  1  0.70967219  0.92789276  0.99997951  1  0  -0.612086  -0.840213  0  2.073486  0
O  O55  1  0.29032881  0.57210484  0.49998009  1  0  -0.612073  -0.840193  0  2.073496  0
O  O56  1  0.29032636  0.07210629  0.00001740  1  0  -0.612085  -0.840144  0  2.073558  0
O  O57  1  0.70966928  0.42789281  0.50001895  1  0  -0.612077  -0.840179  0  2.073483  0
O  O58  1  0.97109115  0.86126473  0.80888632  1  0  -0.347635  -0.634804  0  2.256322  0
O  O59  1  0.02890409  0.63872987  0.30887972  1  0  -0.347586  -0.634758  0  2.256976  0
O  O60  1  0.02890478  0.13873433  0.19111591  1  0  -0.347611  -0.634775  0  2.256616  0
O  O61  1  0.97110013  0.36127055  0.69112675  1  0  -0.347505  -0.634581  0  2.2571  0
