# generated using pymatgen
data_Zr6H29C50O42F
_symmetry_space_group_name_H-M   'P 1'
_cell_length_a   14.79462471
_cell_length_b   14.79181584
_cell_length_c   14.81270929
_cell_angle_alpha   60.05727825
_cell_angle_beta   59.94146034
_cell_angle_gamma   60.09085700
_symmetry_Int_Tables_number   1
_chemical_formula_structural   Zr6H29C50O42F
_chemical_formula_sum   'Zr6 H29 C50 O42 F1'
_cell_volume   2293.70328840
_cell_formula_units_Z   1
loop_
 _symmetry_equiv_pos_site_id
 _symmetry_equiv_pos_as_xyz
  1  'x, y, z'
loop_
 _atom_site_type_symbol
 _atom_site_label
 _atom_site_symmetry_multiplicity
 _atom_site_fract_x
 _atom_site_fract_y
 _atom_site_fract_z
 _atom_site_occupancy
 _atom_site_pbe_bader_charge
 _atom_site_pbe_bader_spin_density
 _atom_site_pbe_cm5_charge
 _atom_site_pbe_ddec_charge
 _atom_site_pbe_ddec_spin_density
 _atom_site_pbe_ddec_sum_bond_order
 _atom_site_pbe_magmom
Zr  Zr0  1  0.88049718  0.88289518  0.61705751  1  2.631315  0  1.63267  2.36432  0  2.773855  0
Zr  Zr1  1  0.12034120  0.11847794  0.38145179  1  2.633762  0  1.635705  2.369655  0  2.770019  0
Zr  Zr2  1  0.11893725  0.88024618  0.61985874  1  2.637547  0  1.635769  2.373459  0  2.752572  0
Zr  Zr3  1  0.88170558  0.12158479  0.37859468  1  2.63656  0  1.63476  2.372132  0  2.750684  0
Zr  Zr4  1  0.11926525  0.88154925  0.38025983  1  2.633572  0  1.633232  2.369871  0  2.762752  0
Zr  Zr5  1  0.88115371  0.11977739  0.61846430  1  2.63506  0  1.632834  2.368423  0  2.764608  0
H  H6  1  0.09313630  0.71908952  0.59299689  1  0.615171  0  0.333918  0.426416  0  0.853615  0
H  H7  1  0.09559175  0.09414000  0.21779685  1  0.627518  0  0.33433  0.427388  0  0.850086  0
H  H8  1  0.09440260  0.09376416  0.59412166  1  0.595089  0  0.333505  0.426828  0  0.850771  0
H  H9  1  0.71827053  0.09541715  0.59264471  1  0.604035  0  0.333404  0.426374  0  0.851801  0
H  H10  1  0.14145261  0.58960336  0.35286722  1  0.104292  0  0.118229  0.143714  0  0.978109  0
H  H11  1  0.85376082  0.41592908  0.64283843  1  0.071668  0  0.117332  0.142715  0  0.978664  0
H  H12  1  0.58909464  0.14217283  0.91562511  1  0.134215  0  0.118166  0.143404  0  0.977749  0
H  H13  1  0.41760137  0.85232679  0.08911177  1  0.119159  0  0.117554  0.142975  0  0.978875  0
H  H14  1  0.85254114  0.14084618  0.09008677  1  0.134441  0  0.116215  0.138986  0  0.987122  0
H  H15  1  0.14164079  0.85502317  0.91462042  1  0.113102  0  0.118148  0.143311  0  0.976918  0
H  H16  1  0.58880661  0.41520455  0.35392635  1  0.094259  0  0.116073  0.13823  0  0.988282  0
H  H17  1  0.41637814  0.59064953  0.63979139  1  0.119236  0  0.118298  0.143465  0  0.977318  0
H  H18  1  0.14111811  0.59062770  0.91584543  1  0.124932  0  0.120453  0.15157  0  0.975508  0
H  H19  1  0.74126148  0.62323852  0.96413701  1  0.06733  0  0.099858  0.117389  0  0.994141  0
H  H20  1  0.82850909  0.53804721  0.87864149  1  0.076312  0  0.099467  0.115751  0  0.991034  0
H  H21  1  0.83395993  0.36857614  0.04805639  1  0.062178  0  0.102591  0.115355  0  0.977726  0
H  H22  1  0.74701246  0.45370571  0.13349730  1  0.053105  0  0.103828  0.11795  0  0.97684  0
H  H23  1  0.58978233  0.85458402  0.64024914  1  0.115264  0  0.117731  0.142894  0  0.979051  0
H  H24  1  0.41633743  0.14170569  0.35314661  1  0.109059  0  0.118718  0.14456  0  0.976924  0
H  H25  1  0.15190060  0.35262772  0.34100879  1  0.637878  0  0.311052  0.354725  0  0.964453  0
H  H26  1  0.84286275  0.65519696  0.65170713  1  0.633772  0  0.309246  0.35097  0  0.972393  0
H  H27  1  0.35136983  0.15312757  0.15336495  1  0.632414  0  0.311605  0.355344  0  0.963514  0
H  H28  1  0.65545910  0.84304919  0.85028398  1  0.638674  0  0.309662  0.351142  0  0.972356  0
H  H29  1  0.84209695  0.15303439  0.85137614  1  0.63988  0  0.309797  0.353781  0  0.966755  0
H  H30  1  0.15182761  0.84241192  0.15361279  1  0.638726  0  0.309759  0.35328  0  0.968171  0
H  H31  1  0.35226667  0.65427449  0.34113988  1  0.642304  0  0.30976  0.353421  0  0.96783  0
H  H32  1  0.65373627  0.35248150  0.65167530  1  0.634406  0  0.309683  0.352784  0  0.968975  0
H  H33  1  0.35194832  0.84235337  0.65190922  1  0.637338  0  0.309887  0.353072  0  0.968442  0
H  H34  1  0.65482948  0.15311934  0.34111639  1  0.630945  0  0.309561  0.352702  0  0.969646  0
C  C35  1  0.99697072  0.69854700  0.49615581  1  1.505437  0  0.237012  0.655008  0  4.068795  0
C  C36  1  0.30928147  0.99632792  0.19769232  1  1.485995  0  0.237555  0.65437  0  4.072652  0
C  C37  1  0.99740213  0.30811801  0.49793184  1  1.503392  0  0.236467  0.653474  0  4.072275  0
C  C38  1  0.69761248  0.99817205  0.80726195  1  1.482865  0  0.237876  0.654601  0  4.069921  0
C  C39  1  0.99473236  0.70150191  0.80493737  1  1.536037  0  0.240465  0.652523  0  4.086715  0
C  C40  1  0.69799344  0.99870767  0.49544955  1  1.508589  0  0.237476  0.657224  0  4.067736  0
C  C41  1  0.99982502  0.30595392  0.20008880  1  1.553134  0  0.239563  0.671469  0  4.091265  0
C  C42  1  0.30876935  0.99677286  0.49727421  1  1.497194  0  0.237105  0.655589  0  4.067677  0
C  C43  1  0.30845040  0.69803808  0.49597011  1  1.474784  0  0.23755  0.655826  0  4.069297  0
C  C44  1  0.99665832  0.99805692  0.80792578  1  1.513448  0  0.23724  0.655914  0  4.067848  0
C  C45  1  0.69788308  0.30913862  0.49660670  1  1.482353  0  0.237485  0.65463  0  4.070207  0
C  C46  1  0.99732260  0.99734724  0.19711845  1  1.501625  0  0.236555  0.654019  0  4.070757  0
C  C47  1  0.99875789  0.40790707  0.49653056  1  0.021637  0  -0.029861  -0.16462  0  3.992583  0
C  C48  1  0.99609161  0.59803355  0.49861888  1  -0.009694  0  -0.031199  -0.16716  0  3.999497  0
C  C49  1  0.08175904  0.45717863  0.41336031  1  0.493737  0  0.086697  0.294668  0  4.069323  0
C  C50  1  0.91381914  0.54808017  0.58246260  1  0.493635  0  0.084227  0.292652  0  4.070063  0
C  C51  1  0.07854546  0.55149043  0.41630326  1  0.066549  0  -0.090637  -0.184808  0  3.938914  0
C  C52  1  0.91675560  0.45399210  0.57949700  1  0.090414  0  -0.092752  -0.188314  0  3.942667  0
C  C53  1  0.40890235  0.99795694  0.09778735  1  -0.021977  0  -0.030254  -0.16542  0  3.994188  0
C  C54  1  0.59846204  0.99594228  0.90761769  1  -0.011704  0  -0.030392  -0.164613  0  3.997651  0
C  C55  1  0.45754197  0.08156098  0.04810300  1  0.515642  0  0.087048  0.294319  0  4.070494  0
C  C56  1  0.54955990  0.91259600  0.95707255  1  0.535713  0  0.084253  0.29057  0  4.070973  0
C  C57  1  0.55163353  0.07862344  0.95381372  1  0.041704  0  -0.090719  -0.184498  0  3.936638  0
C  C58  1  0.45550567  0.91548150  0.05121771  1  0.039186  0  -0.092838  -0.187824  0  3.942847  0
C  C59  1  0.99559031  0.99957017  0.90743712  1  -0.096375  0  -0.030663  -0.166693  0  3.995817  0
C  C60  1  0.99837125  0.99600628  0.09755367  1  0.017795  0  -0.030395  -0.164495  0  3.994954  0
C  C61  1  0.91289855  0.08228711  0.95697046  1  0.586113  0  0.084603  0.293654  0  4.071518  0
C  C62  1  0.08150313  0.91377607  0.04755108  1  0.485299  0  0.085268  0.29288  0  4.070632  0
C  C63  1  0.91594651  0.07852624  0.05133597  1  0.015063  0  -0.093635  -0.191129  0  3.947328  0
C  C64  1  0.07832695  0.91742369  0.95327457  1  0.057235  0  -0.090687  -0.184648  0  3.938968  0
C  C65  1  0.40829168  0.59839167  0.49465310  1  -0.00436  0  -0.029999  -0.165306  0  3.996125  0
C  C66  1  0.59778947  0.40842633  0.49814772  1  0.01474  0  -0.030573  -0.164782  0  3.995485  0
C  C67  1  0.45748873  0.54839232  0.41237149  1  0.54554  0  0.084068  0.292439  0  4.073981  0
C  C68  1  0.54815955  0.45795427  0.58085451  1  0.506808  0  0.085197  0.292339  0  4.071759  0
C  C69  1  0.55124031  0.45415077  0.41606573  1  0.007939  0  -0.093282  -0.190182  0  3.947453  0
C  C70  1  0.45433313  0.55220607  0.57718428  1  0.060047  0  -0.091811  -0.186109  0  3.94032  0
C  C71  1  0.99477701  0.60132282  0.90505023  1  0.016389  0  -0.008325  -0.056009  0  3.987855  0
C  C72  1  0.99981431  0.40574965  0.09995594  1  -0.037386  0  -0.019822  -0.200752  0  3.956174  0
C  C73  1  0.91660360  0.54877520  0.95607792  1  -0.00185  0  -0.006003  0.048443  0  3.885449  0
C  C74  1  0.07901312  0.45991595  0.04577655  1  0.466245  0  0.111846  0.283977  0  4.030756  0
C  C75  1  0.91972500  0.45445706  0.05015488  1  0.063422  0  0.002274  0.086214  0  3.885634  0
C  C76  1  0.07724247  0.55399987  0.95234976  1  0.006347  0  -0.091679  -0.227682  0  3.965611  0
C  C77  1  0.81525096  0.55067362  0.95202048  1  -0.015863  0  -0.148909  -0.196299  0  3.850718  0
C  C78  1  0.81867101  0.44402414  0.05852198  1  -0.01638  0  -0.144929  -0.192464  0  3.857818  0
C  C79  1  0.40843684  0.99598233  0.49826320  1  0.080408  0  -0.030024  -0.165508  0  3.996187  0
C  C80  1  0.59818086  0.99969905  0.49462414  1  -0.087046  0  -0.030478  -0.168006  0  3.99967  0
C  C81  1  0.45757994  0.91362993  0.58109613  1  0.484176  0  0.085018  0.292398  0  4.071686  0
C  C82  1  0.54860538  0.08250244  0.41223739  1  0.573806  0  0.085406  0.294506  0  4.071917  0
C  C83  1  0.55169797  0.91727615  0.57746841  1  0.058535  0  -0.091737  -0.185109  0  3.939446  0
C  C84  1  0.45450626  0.07884941  0.41582904  1  7.1e-05  0  -0.090787  -0.185658  0  3.937081  0
O  O85  1  0.91922114  0.74006722  0.57334830  1  -1.190433  0  -0.354035  -0.632438  0  2.321216  0
O  O86  1  0.26814778  0.07374665  0.23888045  1  -1.181342  0  -0.35308  -0.630936  0  2.318412  0
O  O87  1  0.07567381  0.26621956  0.42130611  1  -1.183996  0  -0.351706  -0.629068  0  2.317833  0
O  O88  1  0.73762289  0.92186059  0.76493220  1  -1.185038  0  -0.35405  -0.632474  0  2.32258  0
O  O89  1  0.07195380  0.74110198  0.76470734  1  -1.185703  0  -0.359708  -0.619843  0  2.281076  0
O  O90  1  0.73882518  0.07663002  0.41843353  1  -1.19122  0  -0.353134  -0.633778  0  2.316839  0
O  O91  1  0.92261111  0.26675115  0.23832186  1  -1.170667  0  -0.355823  -0.616723  0  2.265013  0
O  O92  1  0.26704120  0.91971318  0.57519836  1  -1.18623  0  -0.352508  -0.633622  0  2.313836  0
O  O93  1  0.26703338  0.73841495  0.41899097  1  -1.182736  0  -0.353977  -0.634223  0  2.314236  0
O  O94  1  0.91952477  0.07586745  0.76661444  1  -1.190324  0  -0.354101  -0.634586  0  2.314613  0
O  O95  1  0.73835965  0.26774981  0.57456327  1  -1.18353  0  -0.353692  -0.633294  0  2.313515  0
O  O96  1  0.07516484  0.92020384  0.23768493  1  -1.183663  0  -0.353127  -0.632934  0  2.315142  0
O  O97  1  0.07250554  0.92257225  0.76665375  1  -1.187892  0  -0.350626  -0.611044  0  2.275842  0
O  O98  1  0.73914445  0.26813001  0.42081320  1  -1.178516  0  -0.351661  -0.611921  0  2.280413  0
O  O99  1  0.92242168  0.07374866  0.23752702  1  -1.183847  0  -0.351775  -0.612084  0  2.278657  0
O  O100  1  0.26680503  0.73876167  0.57206878  1  -1.175948  0  -0.351034  -0.611614  0  2.274867  0
O  O101  1  0.91850743  0.74044749  0.76482438  1  -1.176599  0  -0.35238  -0.614045  0  2.258694  0
O  O102  1  0.26744463  0.07271899  0.42196741  1  -1.183518  0  -0.354146  -0.613945  0  2.276881  0
O  O103  1  0.07564421  0.26449694  0.24125176  1  -1.176124  0  -0.360339  -0.624863  0  2.307064  0
O  O104  1  0.73867322  0.92333515  0.57140577  1  -1.190898  0  -0.354921  -0.614799  0  2.280129  0
O  O105  1  0.73842448  0.07427962  0.76594544  1  -1.188101  0  -0.353621  -0.61319  0  2.275651  0
O  O106  1  0.07317306  0.73924601  0.42059195  1  -1.19149  0  -0.352669  -0.613107  0  2.275466  0
O  O107  1  0.26746545  0.92111653  0.23811103  1  -1.18289  0  -0.354781  -0.614958  0  2.275736  0
O  O108  1  0.92154389  0.26688260  0.57386479  1  -1.186659  0  -0.355377  -0.61581  0  2.275845  0
O  O109  1  0.79852125  0.06885305  0.56577393  1  -1.229415  0  -0.696104  -1.068794  0  2.36146  0
O  O110  1  0.06752441  0.06701178  0.56750170  1  -1.222908  0  -0.696094  -1.069256  0  2.36042  0
O  O111  1  0.06845834  0.06709282  0.29797327  1  -1.253648  0  -0.696748  -1.071023  0  2.366929  0
O  O112  1  0.06680106  0.79925924  0.56601370  1  -1.24322  0  -0.696168  -1.070313  0  2.368934  0
O  O113  1  0.14916227  0.95004304  0.45058350  1  -1.190547  0  -0.79325  -1.147419  0  2.132794  0
O  O114  1  0.95062133  0.95200239  0.44880136  1  -1.20034  0  -0.793029  -1.145735  0  2.132114  0
O  O115  1  0.95119516  0.14907923  0.45015804  1  -1.194152  0  -0.793079  -1.14702  0  2.139667  0
O  O116  1  0.95006892  0.95127959  0.64807515  1  -1.196874  0  -0.793111  -1.146953  0  2.138133  0
O  O117  1  0.16392746  0.41784638  0.33084181  1  -1.139276  0  -0.354959  -0.435  0  2.25317  0
O  O118  1  0.83235031  0.58749222  0.66558698  1  -1.147572  0  -0.357001  -0.444332  0  2.261735  0
O  O119  1  0.41737431  0.16446891  0.08707805  1  -1.134052  0  -0.355761  -0.435819  0  2.250909  0
O  O120  1  0.59011199  0.83004104  0.91706571  1  -1.148819  0  -0.356886  -0.443891  0  2.264358  0
O  O121  1  0.83096812  0.16501915  0.91700489  1  -1.150287  0  -0.359893  -0.441404  0  2.243763  0
O  O122  1  0.16398194  0.83160766  0.08688399  1  -1.140291  0  -0.358043  -0.438698  0  2.244299  0
O  O123  1  0.41787145  0.58775517  0.33012062  1  -1.152139  0  -0.359507  -0.440665  0  2.246413  0
O  O124  1  0.58731591  0.41819450  0.66348831  1  -1.136313  0  -0.357735  -0.437378  0  2.244784  0
O  O125  1  0.41757371  0.83148210  0.66371147  1  -1.142947  0  -0.357441  -0.438269  0  2.245083  0
O  O126  1  0.58826787  0.16506353  0.33012353  1  -1.142439  0  -0.357924  -0.438817  0  2.245898  0
F  F127  1  0.16224395  0.42021285  0.08438635  1  -0.618327  0  -0.093655  -0.127887  0  1.355659  0
