# generated using pymatgen
data_NaZnFePH27C25S(BrO)3
_symmetry_space_group_name_H-M   'P 1'
_cell_length_a   8.67757495
_cell_length_b   9.17045169
_cell_length_c   18.10210000
_cell_angle_alpha   91.27804508
_cell_angle_beta   100.14788983
_cell_angle_gamma   95.10208073
_symmetry_Int_Tables_number   1
_chemical_formula_structural   NaZnFePH27C25S(BrO)3
_chemical_formula_sum   'Na2 Zn2 Fe2 P2 H54 C50 S2 Br6 O6'
_cell_volume   1411.30291535
_cell_formula_units_Z   2
loop_
 _symmetry_equiv_pos_site_id
 _symmetry_equiv_pos_as_xyz
  1  'x, y, z'
loop_
 _atom_site_type_symbol
 _atom_site_label
 _atom_site_symmetry_multiplicity
 _atom_site_fract_x
 _atom_site_fract_y
 _atom_site_fract_z
 _atom_site_occupancy
 _atom_site_hle17_bader_spin_density
 _atom_site_hle17_ddec_charge
 _atom_site_hle17_ddec_spin_density
 _atom_site_hle17_ddec_sum_bond_order
 _atom_site_hle17_magmom
 _atom_site_hse06_10hf_bader_spin_density
 _atom_site_hse06_10hf_ddec_charge
 _atom_site_hse06_10hf_ddec_spin_density
 _atom_site_hse06_10hf_ddec_sum_bond_order
 _atom_site_hse06_10hf_magmom
 _atom_site_hse06_bader_spin_density
 _atom_site_hse06_ddec_charge
 _atom_site_hse06_ddec_spin_density
 _atom_site_hse06_ddec_sum_bond_order
 _atom_site_hse06_magmom
 _atom_site_pbe_bader_charge
 _atom_site_pbe_bader_spin_density
 _atom_site_pbe_cm5_charge
 _atom_site_pbe_ddec_charge
 _atom_site_pbe_ddec_spin_density
 _atom_site_pbe_ddec_sum_bond_order
 _atom_site_pbe_magmom
Na  Na0  1  0.71343725  0.06466998  0.03927005  1  0  0.890088  0  0.378532  0  0  0.8329  0  0.542532  0  0  0.844391  0  0.520524  0  0.885862  0  0.562272  0.824259  0  0.558707  0
Na  Na1  1  0.28655842  0.93533509  0.96073229  1  0  0.890076  0  0.378525  0  0  0.832898  0  0.542504  0  0  0.84439  0  0.520497  0  0.885863  0  0.562257  0.824257  0  0.55868  0
Zn  Zn2  1  0.68330222  0.15397934  0.23742352  1  0  0.545168  0  2.313715  0  0  0.396411  0  2.788308  0  0  0.42979  0  2.752514  0  0.84406  0  0.374025  0.372793  0  2.814815  0
Zn  Zn3  1  0.31669440  0.84602354  0.76257446  1  0  0.545165  0  2.313696  0  0  0.39642  0  2.788285  0  0  0.429801  0  2.752486  0  0.844082  0  0.374053  0.372802  0  2.814792  0
Fe  Fe4  1  0.13985445  0.45660673  0.27451774  1  0  0.114933  0  3.593201  0  0  0.222908  0  3.99207  0  0  0.228692  0  3.978382  0  0.715798  0  0.536447  0.225996  0  3.994476  0
Fe  Fe5  1  0.86014663  0.54339396  0.72548446  1  0  0.114799  0  3.593233  0  0  0.222857  0  3.991957  0  0  0.228672  0  3.97827  0  0.715764  0  0.536434  0.225943  0  3.99436  0
P  P6  1  0.81740124  0.29665627  0.34605329  1  0  0.346103  0  3.629152  0  0  0.313647  0  4.040193  0  0  0.323537  0  4.038724  0  1.410941  0  0.051008  0.306518  0  4.04255  0
P  P7  1  0.18260079  0.70334223  0.65394565  1  0  0.346165  0  3.629044  0  0  0.313679  0  4.040047  0  0  0.323574  0  4.038578  0  1.410698  0  0.051008  0.30655  0  4.042403  0
H  H8  1  0.39100591  0.49358714  0.19740618  1  0  0.116607  0  0.966047  0  0  0.128479  0  1.027641  0  0  0.13078  0  1.0278  0  0.094965  0  0.099621  0.126942  0  1.027514  0
H  H9  1  0.60899645  0.50641464  0.80259558  1  0  0.116542  0  0.966103  0  0  0.12844  0  1.027652  0  0  0.130765  0  1.027786  0  0.094994  0  0.099608  0.126877  0  1.027552  0
H  H10  1  0.27435664  0.73619654  0.24674844  1  0  0.114838  0  0.962938  0  0  0.1264  0  1.023463  0  0  0.129151  0  1.022559  0  0.11879  0  0.098417  0.124422  0  1.024237  0
H  H11  1  0.72564594  0.26380743  0.75325613  1  0  0.114783  0  0.963006  0  0  0.12632  0  1.023558  0  0  0.129072  0  1.022655  0  0.118983  0  0.09843  0.124342  0  1.024333  0
H  H12  1  0.95776026  0.68650805  0.22257451  1  0  0.115796  0  0.962468  0  0  0.129428  0  1.019593  0  0  0.132068  0  1.01889  0  0.110175  0  0.09813  0.127697  0  1.019968  0
H  H13  1  0.04224009  0.31349702  0.77742988  1  0  0.115659  0  0.962666  0  0  0.12934  0  1.019736  0  0  0.131961  0  1.019047  0  0.110205  0  0.098085  0.12761  0  1.020112  0
H  H14  1  0.87783740  0.41231306  0.15752307  1  0  0.108903  0  1.015401  0  0  0.117695  0  1.085673  0  0  0.121024  0  1.083992  0  0.131601  0  0.086178  0.115464  0  1.086905  0
H  H15  1  0.12215944  0.58769201  0.84247882  1  0  0.108856  0  1.015425  0  0  0.117659  0  1.085682  0  0  0.120988  0  1.084004  0  0.131593  0  0.08618  0.115429  0  1.086913  0
H  H16  1  0.11529299  0.15690902  0.30048367  1  0  0.116505  0  0.971784  0  0  0.127578  0  1.036548  0  0  0.130828  0  1.034932  0  0.13236  0  0.095875  0.125434  0  1.03763  0
H  H17  1  0.88470658  0.84308838  0.69951395  1  0  0.116529  0  0.971829  0  0  0.12757  0  1.036629  0  0  0.130832  0  1.035003  0  0.132403  0  0.095895  0.125428  0  1.037704  0
H  H18  1  0.39938661  0.31343129  0.33743050  1  0  0.105883  0  0.971921  0  0  0.116918  0  1.036536  0  0  0.119469  0  1.035908  0  0.101229  0  0.096706  0.11511  0  1.037156  0
H  H19  1  0.60061180  0.68656612  0.66256867  1  0  0.105871  0  0.97195  0  0  0.116908  0  1.036575  0  0  0.11946  0  1.035948  0  0.101302  0  0.096711  0.115101  0  1.037194  0
H  H20  1  0.35675705  0.57570704  0.39872226  1  0  0.109399  0  0.972041  0  0  0.124055  0  1.027825  0  0  0.126149  0  1.028461  0  0.096173  0  0.103617  0.122507  0  1.02756  0
H  H21  1  0.64324582  0.42428817  0.60128113  1  0  0.109414  0  0.971969  0  0  0.124038  0  1.027792  0  0  0.126131  0  1.028427  0  0.095921  0  0.103585  0.122493  0  1.02753  0
H  H22  1  0.04569267  0.58163982  0.40049597  1  0  0.112899  0  0.975853  0  0  0.125993  0  1.035772  0  0  0.128199  0  1.036459  0  0.129078  0  0.102688  0.12447  0  1.035376  0
H  H23  1  0.95430785  0.41835539  0.59950667  1  0  0.11285  0  0.975901  0  0  0.125966  0  1.035804  0  0  0.128173  0  1.03649  0  0.129041  0  0.102677  0.124424  0  1.03543  0
H  H24  1  0.07364062  0.16919967  0.15214959  1  0  0.139366  0  0.95594  0  0  0.147175  0  1.023377  0  0  0.150114  0  1.021303  0  0.118088  0  0.104964  0.144916  0  1.025145  0
H  H25  1  0.92635388  0.83080540  0.84785044  1  0  0.139401  0  0.955909  0  0  0.147217  0  1.023358  0  0  0.150157  0  1.021283  0  0.118091  0  0.104954  0.144957  0  1.02513  0
H  H26  1  0.27406844  0.22611706  0.14601304  1  0  0.1378  0  0.956098  0  0  0.14251  0  1.026299  0  0  0.145463  0  1.024933  0  0.129908  0  0.098977  0.140297  0  1.027565  0
H  H27  1  0.72592455  0.77388473  0.85398462  1  0  0.137911  0  0.956018  0  0  0.142575  0  1.026281  0  0  0.14553  0  1.024914  0  0.129807  0  0.099035  0.140381  0  1.02753  0
H  H28  1  0.07035062  0.23598639  0.46983983  1  0  0.094242  0  0.98214  0  0  0.107359  0  1.040493  0  0  0.109014  0  1.041914  0  0.096541  0  0.100124  0.10624  0  1.039393  0
H  H29  1  0.92965569  0.76401978  0.53015624  1  0  0.094187  0  0.98217  0  0  0.107344  0  1.040485  0  0  0.109001  0  1.041905  0  0.096526  0  0.100146  0.106223  0  1.039383  0
H  H30  1  0.06837160  0.13701039  0.59559318  1  0  0.089244  0  0.960576  0  0  0.099028  0  1.022313  0  0  0.101085  0  1.022972  0  0.097561  0  0.099171  0.09749  0  1.022112  0
H  H31  1  0.93163037  0.86299906  0.40440477  1  0  0.089215  0  0.960516  0  0  0.09898  0  1.022292  0  0  0.101035  0  1.022949  0  0.097438  0  0.099151  0.097443  0  1.022087  0
H  H32  1  0.81291324  0.05919846  0.63534506  1  0  0.092495  0  0.956126  0  0  0.102119  0  1.018458  0  0  0.105312  0  1.016604  0  0.084026  0  0.098391  0.099849  0  1.019694  0
H  H33  1  0.18709029  0.94080332  0.36465128  1  0  0.092467  0  0.956179  0  0  0.102109  0  1.018505  0  0  0.105306  0  1.016642  0  0.084009  0  0.098355  0.099834  0  1.01975  0
H  H34  1  0.56330251  0.07243244  0.54645911  1  0  0.080309  0  0.991602  0  0  0.092052  0  1.054725  0  0  0.094071  0  1.05459  0  0.091746  0  0.097251  0.090615  0  1.054833  0
H  H35  1  0.43670197  0.92756715  0.45353674  1  0  0.080253  0  0.991521  0  0  0.092009  0  1.054647  0  0  0.094027  0  1.054512  0  0.091854  0  0.097257  0.090572  0  1.054754  0
H  H36  1  0.56376710  0.16576052  0.41865347  1  0  0.084103  0  0.97278  0  0  0.093558  0  1.041719  0  0  0.096425  0  1.040201  0  0.072335  0  0.094532  0.091471  0  1.042975  0
H  H37  1  0.43624089  0.83423907  0.58134322  1  0  0.084146  0  0.97281  0  0  0.09358  0  1.04174  0  0  0.096449  0  1.040226  0  0.072332  0  0.09456  0.091494  0  1.042994  0
H  H38  1  0.73941497  0.45597236  0.47733051  1  0  0.089509  0  0.995016  0  0  0.102376  0  1.054808  0  0  0.104071  0  1.05597  0  0.112066  0  0.097379  0.100892  0  1.05465  0
H  H39  1  0.26059024  0.54402285  0.52267142  1  0  0.089502  0  0.995024  0  0  0.102356  0  1.05483  0  0  0.104049  0  1.055996  0  0.111922  0  0.0974  0.100873  0  1.054672  0
H  H40  1  0.64092271  0.69761543  0.49107041  1  0  0.089643  0  0.952096  0  0  0.103986  0  1.006694  0  0  0.106083  0  1.007054  0  0.083691  0  0.10005  0.102607  0  1.006333  0
H  H41  1  0.35907781  0.30237978  0.50893002  1  0  0.089619  0  0.952097  0  0  0.103985  0  1.006669  0  0  0.106087  0  1.007029  0  0.083624  0  0.100048  0.102607  0  1.006305  0
H  H42  1  0.58320446  0.85221050  0.37811034  1  0  0.077361  0  0.993336  0  0  0.08284  0  1.066663  0  0  0.085407  0  1.065708  0  0.087155  0  0.088315  0.080684  0  1.068162  0
H  H43  1  0.41679350  0.14778252  0.62189040  1  0  0.077314  0  0.993408  0  0  0.082855  0  1.06668  0  0  0.085419  0  1.065728  0  0.087111  0  0.088331  0.0807  0  1.068179  0
H  H44  1  0.61843257  0.76016649  0.25450002  1  0  0.080774  0  0.996031  0  0  0.086564  0  1.06827  0  0  0.089206  0  1.067699  0  0.108122  0  0.08778  0.084578  0  1.06894  0
H  H45  1  0.38156550  0.23982763  0.74550075  1  0  0.080704  0  0.996063  0  0  0.08649  0  1.068301  0  0  0.089129  0  1.067723  0  0.108124  0  0.087759  0.084507  0  1.068969  0
H  H46  1  0.71159403  0.51337401  0.23953465  1  0  0.085416  0  0.987152  0  0  0.096911  0  1.05104  0  0  0.099511  0  1.049826  0  0.08118  0  0.091309  0.094899  0  1.052313  0
H  H47  1  0.28840638  0.48662010  0.76046686  1  0  0.085412  0  0.987114  0  0  0.096906  0  1.051007  0  0  0.099505  0  1.049797  0  0.081205  0  0.091299  0.094895  0  1.05228  0
H  H48  1  0.31820055  0.39975946  0.02050552  1  0  0.160511  0  0.942827  0  0  0.175896  0  1.004378  0  0  0.178404  0  1.003662  0  0.060674  0  0.105538  0.174204  0  1.004555  0
H  H49  1  0.68179753  0.60023466  0.97949524  1  0  0.160585  0  0.942801  0  0  0.175975  0  1.004321  0  0  0.178484  0  1.003602  0  0.060644  0  0.105551  0.174283  0  1.004501  0
H  H50  1  0.14763580  0.50003157  0.01892192  1  0  0.177068  0  0.93476  0  0  0.194251  0  0.988459  0  0  0.197136  0  0.988206  0  0.138246  0  0.11326  0.191795  0  0.989458  0
H  H51  1  0.85236957  0.49997679  0.98107851  1  0  0.177152  0  0.934748  0  0  0.194322  0  0.988446  0  0  0.197207  0  0.988195  0  0.138273  0  0.113281  0.191866  0  0.989446  0
H  H52  1  0.16502111  0.38867180  0.93813698  1  0  0.172798  0  0.929543  0  0  0.19362  0  0.980079  0  0  0.195759  0  0.980153  0  0.114871  0  0.115888  0.192033  0  0.980157  0
H  H53  1  0.83498220  0.61132779  0.06186264  1  0  0.172806  0  0.929591  0  0  0.193607  0  0.980143  0  0  0.195745  0  0.980219  0  0.114878  0  0.115878  0.192032  0  0.980206  0
H  H54  1  0.45321425  0.96872406  0.12088935  1  0  0.346452  0  0.920407  0  0  0.324039  0  0.998434  0  0  0.332997  0  0.987339  0  0.604347  0  0.281476  0.317756  0  1.006016  0
H  H55  1  0.54678873  0.03127224  0.87911240  1  0  0.346461  0  0.920379  0  0  0.324047  0  0.998412  0  0  0.333005  0  0.987319  0  0.604329  0  0.281485  0.317761  0  1.005994  0
H  H56  1  0.38759323  0.72130490  0.11598412  1  0  0.080935  0  0.958518  0  0  0.101901  0  1.017678  0  0  0.102465  0  1.018472  0  0.051724  0  0.094053  0.101462  0  1.016962  0
H  H57  1  0.61240646  0.27869360  0.88401572  1  0  0.080922  0  0.958512  0  0  0.101893  0  1.017672  0  0  0.102457  0  1.018466  0  0.051819  0  0.094052  0.101454  0  1.016955  0
H  H58  1  0.59844809  0.75539945  0.12955378  1  0  0.068684  0  0.960613  0  0  0.083566  0  1.031904  0  0  0.084513  0  1.031156  0  0.042663  0  0.084218  0.082799  0  1.032457  0
H  H59  1  0.40155160  0.24459905  0.87044662  1  0  0.06867  0  0.960609  0  0  0.083546  0  1.031908  0  0  0.084494  0  1.031157  0  0.04266  0  0.084217  0.082779  0  1.032461  0
H  H60  1  0.48645207  0.70925419  0.03769212  1  0  0.074213  0  0.96531  0  0  0.091356  0  1.033882  0  0  0.092158  0  1.033321  0  0.0256  0  0.091028  0.090849  0  1.033726  0
H  H61  1  0.51354389  0.29074212  0.96230850  1  0  0.074192  0  0.965317  0  0  0.091337  0  1.033875  0  0  0.092139  0  1.033314  0  0.025365  0  0.091019  0.090828  0  1.03372  0
C  C62  1  0.13798082  0.40426136  0.16508837  1  0  0.079467  0  3.762992  0  0  0.092135  0  4.01491  0  0  0.089432  0  4.039151  0  -0.096173  0  -0.082349  0.09322  0  3.999043  0
C  C63  1  0.86201942  0.59574262  0.83491269  1  0  0.07948  0  3.763025  0  0  0.092127  0  4.015015  0  0  0.089422  0  4.039267  0  -0.095961  0  -0.08234  0.093212  0  3.999149  0
C  C64  1  0.26773669  0.51095598  0.19385668  1  0  -0.161702  0  3.697289  0  0  -0.193792  0  3.96521  0  0  -0.198739  0  3.984335  0  -0.140585  0  -0.154323  -0.191196  0  3.952716  0
C  C65  1  0.73226567  0.48904580  0.80614674  1  0  -0.161605  0  3.697285  0  0  -0.193689  0  3.96514  0  0  -0.198662  0  3.984262  0  -0.140406  0  -0.154278  -0.191069  0  3.952657  0
C  C66  1  0.20585923  0.63798529  0.22019275  1  0  -0.093582  0  3.712181  0  0  -0.121947  0  3.983097  0  0  -0.124745  0  4.000482  0  -0.203999  0  -0.14975  -0.120672  0  3.971929  0
C  C67  1  0.79414453  0.36201868  0.77981192  1  0  -0.093444  0  3.712112  0  0  -0.121795  0  3.983049  0  0  -0.124594  0  4.000436  0  -0.204303  0  -0.149724  -0.120519  0  3.971875  0
C  C68  1  0.03796048  0.61116564  0.20749667  1  0  -0.103874  0  3.713095  0  0  -0.132603  0  3.984757  0  0  -0.135742  0  4.002311  0  -0.087772  0  -0.153229  -0.131008  0  3.97309  0
C  C69  1  0.96204116  0.38884052  0.79250674  1  0  -0.103826  0  3.713114  0  0  -0.132612  0  3.984827  0  0  -0.135731  0  4.002375  0  -0.087736  0  -0.153229  -0.131019  0  3.973162  0
C  C70  1  0.99579485  0.46714110  0.17346705  1  0  -0.173973  0  3.716202  0  0  -0.210067  0  3.992071  0  0  -0.215005  0  4.010519  0  -0.242992  0  -0.162171  -0.207381  0  3.979823  0
C  C71  1  0.00420444  0.53286507  0.82653451  1  0  -0.173949  0  3.716168  0  0  -0.210053  0  3.992111  0  0  -0.214992  0  4.010551  0  -0.243241  0  -0.162229  -0.207366  0  3.979863  0
C  C72  1  0.02171736  0.35315513  0.34834345  1  0  -0.144882  0  3.780586  0  0  -0.121752  0  4.051108  0  0  -0.127743  0  4.069361  0  -0.680354  0  -0.093549  -0.118051  0  4.038374  0
C  C73  1  0.97828116  0.64684337  0.65165519  1  0  -0.144917  0  3.780713  0  0  -0.12173  0  4.051156  0  0  -0.12773  0  4.069425  0  -0.679941  0  -0.093583  -0.118027  0  4.038414  0
C  C74  1  0.13882894  0.26498851  0.32804680  1  0  -0.125586  0  3.70564  0  0  -0.162895  0  3.98133  0  0  -0.165173  0  3.997903  0  -0.134809  0  -0.154813  -0.161549  0  3.969511  0
C  C75  1  0.86116946  0.73500889  0.67195126  1  0  -0.125594  0  3.705771  0  0  -0.162909  0  3.981466  0  0  -0.165207  0  3.998043  0  -0.134945  0  -0.154848  -0.161563  0  3.969648  0
C  C76  1  0.28889002  0.34771319  0.34854600  1  0  -0.105528  0  3.715201  0  0  -0.132822  0  3.987498  0  0  -0.135698  0  4.004218  0  -0.179905  0  -0.154818  -0.13158  0  3.976195  0
C  C77  1  0.71111062  0.65228311  0.65145390  1  0  -0.105432  0  3.715307  0  0  -0.132732  0  3.987598  0  0  -0.13561  0  4.004323  0  -0.179956  0  -0.154793  -0.13149  0  3.976295  0
C  C78  1  0.26583024  0.48686114  0.38053098  1  0  -0.103722  0  3.720587  0  0  -0.13023  0  3.988915  0  0  -0.132508  0  4.004564  0  -0.149852  0  -0.152592  -0.12915  0  3.978493  0
C  C79  1  0.73417051  0.51313626  0.61947060  1  0  -0.103813  0  3.720425  0  0  -0.130312  0  3.988791  0  0  -0.132593  0  4.004441  0  -0.149337  0  -0.152556  -0.129238  0  3.978372  0
C  C80  1  0.10160781  0.49081523  0.38076849  1  0  -0.125451  0  3.706757  0  0  -0.161175  0  3.980683  0  0  -0.162512  0  3.995584  0  -0.142689  0  -0.152337  -0.161053  0  3.970823  0
C  C81  1  0.89839411  0.50918218  0.61923263  1  0  -0.125302  0  3.706737  0  0  -0.161067  0  3.98063  0  0  -0.162407  0  3.995541  0  -0.143067  0  -0.152293  -0.160929  0  3.970781  0
C  C82  1  0.15268753  0.25605045  0.13344563  1  0  -0.327971  0  3.629343  0  0  -0.358104  0  3.862391  0  0  -0.362134  0  3.870512  0  -0.168161  0  -0.147581  -0.355171  0  3.857134  0
C  C83  1  0.84730451  0.74395352  0.86655142  1  0  -0.328055  0  3.629166  0  0  -0.358245  0  3.862431  0  0  -0.362277  0  3.870551  0  -0.16816  0  -0.147611  -0.355327  0  3.857164  0
C  C84  1  0.81759697  0.20964005  0.43592026  1  0  -0.094821  0  3.743527  0  0  -0.056196  0  3.978036  0  0  -0.061632  0  4.003614  0  -0.572824  0  -0.025038  -0.052949  0  3.96208  0
C  C85  1  0.18240868  0.79035955  0.56407679  1  0  -0.095009  0  3.743676  0  0  -0.056343  0  3.978164  0  0  -0.061779  0  4.003742  0  -0.572868  0  -0.025081  -0.053097  0  3.962209  0
C  C86  1  0.95879391  0.19931713  0.48606772  1  0  -0.070817  0  3.728085  0  0  -0.091314  0  3.966223  0  0  -0.091946  0  3.988122  0  -0.066333  0  -0.08327  -0.090871  0  3.951541  0
C  C87  1  0.04121185  0.80068356  0.51392990  1  0  -0.070666  0  3.728083  0  0  -0.091206  0  3.96619  0  0  -0.091836  0  3.988086  0  -0.066218  0  -0.083253  -0.090759  0  3.951505  0
C  C88  1  0.95753222  0.14380104  0.55720508  1  0  -0.059574  0  3.753138  0  0  -0.068382  0  3.99596  0  0  -0.070864  0  4.01696  0  -0.070359  0  -0.084943  -0.066668  0  3.981502  0
C  C89  1  0.04247154  0.85620294  0.44279296  1  0  -0.05957  0  3.753157  0  0  -0.068359  0  3.996001  0  0  -0.070837  0  4.016998  0  -0.070216  0  -0.084934  -0.066644  0  3.981543  0
C  C90  1  0.81513137  0.09945588  0.57927784  1  0  -0.051105  0  3.732572  0  0  -0.0632  0  3.973241  0  0  -0.063676  0  3.993043  0  -0.004246  0  -0.082569  -0.062569  0  3.959203  0
C  C91  1  0.18487099  0.90054591  0.42072006  1  0  -0.05105  0  3.732841  0  0  -0.063166  0  3.973483  0  0  -0.063641  0  3.993289  0  -0.004239  0  -0.082538  -0.062535  0  3.959441  0
C  C92  1  0.67424174  0.10719532  0.52907798  1  0  -0.075054  0  3.767874  0  0  -0.084862  0  4.009707  0  0  -0.087899  0  4.032368  0  -0.074255  0  -0.092009  -0.082765  0  3.994155  0
C  C93  1  0.32575945  0.89280646  0.47091926  1  0  -0.075005  0  3.767866  0  0  -0.084819  0  4.009718  0  0  -0.087856  0  4.032383  0  -0.074005  0  -0.092026  -0.082721  0  3.994164  0
C  C94  1  0.67456983  0.16029010  0.45743003  1  0  -0.089111  0  3.763522  0  0  -0.108711  0  4.008052  0  0  -0.109965  0  4.029805  0  -0.026458  0  -0.088911  -0.108101  0  3.994588  0
C  C95  1  0.32543615  0.83971278  0.54256653  1  0  -0.089136  0  3.763622  0  0  -0.108726  0  4.00814  0  0  -0.109987  0  4.0299  0  -0.02657  0  -0.088919  -0.108116  0  3.994675  0
C  C96  1  0.73334240  0.46911431  0.35774293  1  0  -0.093547  0  3.749948  0  0  -0.053774  0  3.983725  0  0  -0.059769  0  4.010046  0  -0.53681  0  -0.023462  -0.049714  0  3.965549  0
C  C97  1  0.26666186  0.53088309  0.64225729  1  0  -0.093597  0  3.750042  0  0  -0.053805  0  3.9838  0  0  -0.059808  0  4.010135  0  -0.536886  0  -0.023478  -0.049746  0  3.965623  0
C  C98  1  0.71187564  0.52134464  0.42819789  1  0  -0.074077  0  3.731842  0  0  -0.095026  0  3.969975  0  0  -0.095552  0  3.9915  0  -0.100546  0  -0.086387  -0.093843  0  3.954755  0
C  C99  1  0.28813203  0.47865167  0.57180315  1  0  -0.074056  0  3.731957  0  0  -0.095006  0  3.970093  0  0  -0.095527  0  3.991617  0  -0.100265  0  -0.086401  -0.093825  0  3.954873  0
C  C100  1  0.65688620  0.65842625  0.43580228  1  0  -0.069593  0  3.758347  0  0  -0.077734  0  4.001207  0  0  -0.079986  0  4.020984  0  -0.066646  0  -0.088366  -0.076038  0  3.986782  0
C  C101  1  0.34311773  0.34156787  0.56419898  1  0  -0.069576  0  3.758262  0  0  -0.077717  0  4.001119  0  0  -0.079977  0  4.020904  0  -0.066478  0  -0.08838  -0.076021  0  3.986696  0
C  C102  1  0.62452878  0.74427564  0.37325255  1  0  -0.065266  0  3.762163  0  0  -0.079412  0  4.008527  0  0  -0.079822  0  4.028077  0  -0.047608  0  -0.088275  -0.078231  0  3.994732  0
C  C103  1  0.37547163  0.25571848  0.62674786  1  0  -0.06524  0  3.7621  0  0  -0.079464  0  4.008481  0  0  -0.07987  0  4.028034  0  -0.047794  0  -0.08824  -0.078283  0  3.994688  0
C  C104  1  0.64431655  0.69199710  0.30280771  1  0  -0.063792  0  3.757659  0  0  -0.073713  0  4.001188  0  0  -0.076666  0  4.022917  0  -0.040788  0  -0.089658  -0.071971  0  3.986533  0
C  C105  1  0.35568398  0.30799811  0.69719328  1  0  -0.063619  0  3.757476  0  0  -0.073524  0  4.001051  0  0  -0.076466  0  4.022768  0  -0.040761  0  -0.089619  -0.071783  0  3.986395  0
C  C106  1  0.69784332  0.55470294  0.29471499  1  0  -0.069906  0  3.730063  0  0  -0.087587  0  3.967187  0  0  -0.088441  0  3.988812  0  -0.071281  0  -0.082793  -0.087045  0  3.952954  0
C  C107  1  0.30216094  0.44529446  0.70528634  1  0  -0.069933  0  3.729951  0  0  -0.087626  0  3.967097  0  0  -0.08848  0  3.988726  0  -0.071305  0  -0.082809  -0.087084  0  3.952863  0
C  C108  1  0.19168933  0.40034123  0.99958343  1  0  -0.483947  0  3.523428  0  0  -0.555245  0  3.757779  0  0  -0.561632  0  3.760763  0  -0.223804  0  -0.22541  -0.550471  0  3.756258  0
C  C109  1  0.80830707  0.59965946  0.00041671  1  0  -0.484125  0  3.523525  0  0  -0.555401  0  3.757855  0  0  -0.561787  0  3.760836  0  -0.223835  0  -0.225435  -0.550639  0  3.756328  0
C  C110  1  0.48716071  0.76769010  0.09130445  1  0  -0.028927  0  3.665992  0  0  -0.11936  0  3.930833  0  0  -0.113833  0  3.934541  0  0.402211  0  -0.158704  -0.122437  0  3.927275  0
C  C111  1  0.51283886  0.23230730  0.90869592  1  0  -0.028878  0  3.665976  0  0  -0.119299  0  3.930813  0  0  -0.113774  0  3.934522  0  0.402396  0  -0.158672  -0.122376  0  3.927254  0
S  S112  1  0.09606651  0.24235631  0.03278611  1  0  1.237296  0  5.088143  0  0  1.183934  0  5.58368  0  0  1.219741  0  5.571615  0  2.41389  0  0.480623  1.15911  0  5.591686  0
S  S113  1  0.90392659  0.75764656  0.96721268  1  0  1.23733  0  5.0882  0  0  1.18409  0  5.583596  0  0  1.219895  0  5.571531  0  2.413778  0  0.480709  1.159264  0  5.591612  0
Br  Br114  1  0.43591194  0.02707602  0.25503135  1  0  -0.475349  0  1.012729  0  0  -0.404326  0  1.296234  0  0  -0.421275  0  1.274746  0  -0.601868  0  -0.230947  -0.392139  0  1.311974  0
Br  Br115  1  0.56408145  0.97291809  0.74496681  1  0  -0.475337  0  1.012769  0  0  -0.404324  0  1.296262  0  0  -0.421274  0  1.274778  0  -0.601824  0  -0.23096  -0.392138  0  1.312003  0
Br  Br116  1  0.85957321  0.98679958  0.20101202  1  0  -0.515244  0  1.002912  0  0  -0.450699  0  1.281858  0  0  -0.466156  0  1.259404  0  -0.611651  0  -0.245818  -0.439966  0  1.298212  0
Br  Br117  1  0.14041188  0.01319344  0.79898377  1  0  -0.515241  0  1.002907  0  0  -0.450703  0  1.281841  0  0  -0.466157  0  1.259387  0  -0.611709  0  -0.24583  -0.439971  0  1.298196  0
Br  Br118  1  0.59315846  0.29853745  0.12625782  1  0  -0.536258  0  1.012417  0  0  -0.468748  0  1.295285  0  0  -0.483745  0  1.272546  0  -0.632902  0  -0.24365  -0.458585  0  1.310595  0
Br  Br119  1  0.40683838  0.70146762  0.87374352  1  0  -0.536262  0  1.012339  0  0  -0.468775  0  1.295222  0  0  -0.483773  0  1.272487  0  -0.632908  0  -0.243669  -0.458614  0  1.310533  0
O  O120  1  0.92588281  0.24853560  0.01361477  1  0  -0.661207  0  1.880443  0  0  -0.609585  0  2.118434  0  0  -0.62927  0  2.107143  0  -1.304135  0  -0.356914  -0.595793  0  2.126745  0
O  O121  1  0.07410121  0.75148152  0.98638507  1  0  -0.661158  0  1.880623  0  0  -0.6096  0  2.118631  0  0  -0.629282  0  2.107343  0  -1.30402  0  -0.356873  -0.595801  0  2.126928  0
O  O122  1  0.16110046  0.11469374  0.00577920  1  0  -0.679967  0  1.938815  0  0  -0.635447  0  2.195896  0  0  -0.654776  0  2.182425  0  -1.335602  0  -0.399604  -0.622161  0  2.205858  0
O  O123  1  0.83887531  0.88531133  0.99422036  1  0  -0.680049  0  1.938625  0  0  -0.635543  0  2.195675  0  0  -0.654874  0  2.1822  0  -1.33558  0  -0.399782  -0.622256  0  2.205639  0
O  O124  1  0.47274263  0.91962939  0.07492094  1  0  -0.610975  0  2.159446  0  0  -0.55088  0  2.395904  0  0  -0.565549  0  2.383047  0  -1.172387  0  -0.49504  -0.540252  0  2.403967  0
O  O125  1  0.52725706  0.08036910  0.92507946  1  0  -0.610991  0  2.159436  0  0  -0.550899  0  2.395891  0  0  -0.565571  0  2.383033  0  -1.172389  0  -0.495059  -0.540266  0  2.403957  0
