# generated using pymatgen
data_CuH5C4BrN3Cl2
_symmetry_space_group_name_H-M   'P 1'
_cell_length_a   6.89656104
_cell_length_b   7.51317674
_cell_length_c   16.71046031
_cell_angle_alpha   89.99812514
_cell_angle_beta   89.99920412
_cell_angle_gamma   90.55809925
_symmetry_Int_Tables_number   1
_chemical_formula_structural   CuH5C4BrN3Cl2
_chemical_formula_sum   'Cu4 H20 C16 Br4 N12 Cl8'
_cell_volume   865.81279363
_cell_formula_units_Z   4
loop_
 _symmetry_equiv_pos_site_id
 _symmetry_equiv_pos_as_xyz
  1  'x, y, z'
loop_
 _atom_site_type_symbol
 _atom_site_label
 _atom_site_symmetry_multiplicity
 _atom_site_fract_x
 _atom_site_fract_y
 _atom_site_fract_z
 _atom_site_occupancy
 _atom_site_hle17_bader_spin_density
 _atom_site_hle17_ddec_charge
 _atom_site_hle17_ddec_spin_density
 _atom_site_hle17_ddec_sum_bond_order
 _atom_site_hle17_magmom
 _atom_site_hse06_10hf_bader_spin_density
 _atom_site_hse06_10hf_ddec_charge
 _atom_site_hse06_10hf_ddec_spin_density
 _atom_site_hse06_10hf_ddec_sum_bond_order
 _atom_site_hse06_10hf_magmom
 _atom_site_hse06_bader_spin_density
 _atom_site_hse06_ddec_charge
 _atom_site_hse06_ddec_spin_density
 _atom_site_hse06_ddec_sum_bond_order
 _atom_site_hse06_magmom
 _atom_site_pbe_bader_spin_density
 _atom_site_pbe_cm5_charge
 _atom_site_pbe_ddec_charge
 _atom_site_pbe_ddec_spin_density
 _atom_site_pbe_ddec_sum_bond_order
 _atom_site_pbe_magmom
Cu  Cu0  1  0.17495111  0.40827150  0.22535965  1  0  0.484066  0  1.955128  0  0  0.39447  0  2.45535  0  0  0.391539  0  2.409575  0  0  0.345729  0.40093  0  2.483122  0
Cu  Cu1  1  0.32504052  0.59173958  0.72537169  1  0  0.484198  0  1.955267  0  0  0.39461  0  2.4555  0  0  0.391688  0  2.409697  0  0  0.345862  0.401096  0  2.483257  0
Cu  Cu2  1  0.82503850  0.59172793  0.77464780  1  0  0.484195  0  1.955027  0  0  0.394614  0  2.455264  0  0  0.391677  0  2.409488  0  0  0.345813  0.401077  0  2.483045  0
Cu  Cu3  1  0.67496234  0.40826768  0.27462739  1  0  0.484225  0  1.95512  0  0  0.394636  0  2.455364  0  0  0.391726  0  2.409579  0  0  0.345853  0.401113  0  2.483128  0
H  H4  1  0.31819183  0.87436606  0.21958532  1  0  0.331879  0  0.934022  0  0  0.310626  0  1.004259  0  0  0.318213  0  0.998991  0  0  0.274702  0.305287  0  1.008004  0
H  H5  1  0.18178950  0.12563094  0.71959099  1  0  0.33201  0  0.933836  0  0  0.310665  0  1.004173  0  0  0.318251  0  0.998905  0  0  0.274714  0.305327  0  1.007911  0
H  H6  1  0.68179350  0.12563608  0.78040837  1  0  0.331932  0  0.933883  0  0  0.310576  0  1.004245  0  0  0.318164  0  0.998975  0  0  0.274647  0.305236  0  1.007991  0
H  H7  1  0.81819877  0.87437250  0.28041587  1  0  0.332032  0  0.933882  0  0  0.310733  0  1.004158  0  0  0.318321  0  0.998887  0  0  0.274727  0.305396  0  1.007902  0
H  H8  1  0.24504393  0.08713855  0.18022832  1  0  0.330263  0  0.956191  0  0  0.304902  0  1.036659  0  0  0.314218  0  1.028338  0  0  0.261771  0.298327  0  1.042412  0
H  H9  1  0.25494157  0.91285741  0.68023262  1  0  0.330266  0  0.956158  0  0  0.304945  0  1.036578  0  0  0.31426  0  1.028259  0  0  0.261819  0.298364  0  1.042341  0
H  H10  1  0.75495260  0.91284749  0.81977554  1  0  0.330181  0  0.956036  0  0  0.304941  0  1.036382  0  0  0.314259  0  1.028061  0  0  0.26173  0.298367  0  1.042138  0
H  H11  1  0.74505394  0.08714594  0.31976466  1  0  0.330309  0  0.956112  0  0  0.30497  0  1.036556  0  0  0.314287  0  1.028234  0  0  0.261835  0.298394  0  1.042315  0
H  H12  1  0.33315323  0.82407459  0.35090517  1  0  0.315154  0  0.881236  0  0  0.296442  0  0.941069  0  0  0.305567  0  0.934683  0  0  0.303824  0.289903  0  0.945756  0
H  H13  1  0.16683656  0.17591362  0.85090662  1  0  0.315019  0  0.881307  0  0  0.296406  0  0.941026  0  0  0.305532  0  0.934645  0  0  0.303789  0.289885  0  0.945717  0
H  H14  1  0.66684762  0.17591007  0.64909211  1  0  0.315151  0  0.881273  0  0  0.296461  0  0.941054  0  0  0.305582  0  0.934673  0  0  0.303828  0.289928  0  0.94574  0
H  H15  1  0.83315582  0.82408045  0.14909006  1  0  0.315014  0  0.881359  0  0  0.296418  0  0.941061  0  0  0.305548  0  0.93467  0  0  0.303762  0.289906  0  0.945751  0
H  H16  1  0.10282576  0.41625373  0.39940886  1  0  0.099452  0  0.922925  0  0  0.103252  0  0.992679  0  0  0.1079  0  0.985284  0  0  0.11471  0.099513  0  0.998557  0
H  H17  1  0.39718710  0.58373583  0.89942779  1  0  0.099487  0  0.923024  0  0  0.103311  0  0.992749  0  0  0.107959  0  0.985356  0  0  0.114733  0.099572  0  0.998629  0
H  H18  1  0.89718247  0.58373616  0.60058901  1  0  0.099529  0  0.922804  0  0  0.103334  0  0.99255  0  0  0.107985  0  0.985152  0  0  0.114777  0.099591  0  0.998426  0
H  H19  1  0.60280976  0.41626352  0.10058086  1  0  0.099474  0  0.923016  0  0  0.103288  0  0.992749  0  0  0.107938  0  0.985351  0  0  0.114727  0.099547  0  0.998629  0
H  H20  1  0.29601940  0.90460682  0.48849158  1  0  0.116126  0  0.974235  0  0  0.124187  0  1.039451  0  0  0.128185  0  1.034529  0  0  0.110182  0.121105  0  1.043108  0
H  H21  1  0.20399186  0.09537862  0.98848858  1  0  0.116261  0  0.974325  0  0  0.124256  0  1.039562  0  0  0.12825  0  1.034644  0  0  0.110189  0.121179  0  1.043223  0
H  H22  1  0.70398847  0.09536843  0.51150989  1  0  0.116207  0  0.974485  0  0  0.124257  0  1.039648  0  0  0.128257  0  1.034721  0  0  0.11018  0.121175  0  1.043308  0
H  H23  1  0.79599206  0.90462487  0.01150391  1  0  0.116316  0  0.974132  0  0  0.124236  0  1.039473  0  0  0.128233  0  1.034553  0  0  0.110166  0.121157  0  1.043132  0
C  C24  1  0.24826618  0.06158090  0.30174878  1  0  0.653751  0  3.73626  0  0  0.600265  0  4.006401  0  0  0.628543  0  4.009459  0  0  0.364262  0.581567  0  4.004578  0
C  C25  1  0.25173368  0.93839629  0.80175812  1  0  0.653575  0  3.736212  0  0  0.600104  0  4.00632  0  0  0.628357  0  4.009385  0  0  0.364204  0.581433  0  4.0045  0
C  C26  1  0.75174933  0.93841024  0.69824072  1  0  0.653599  0  3.736322  0  0  0.600104  0  4.006485  0  0  0.628375  0  4.00955  0  0  0.364094  0.581413  0  4.004661  0
C  C27  1  0.74826157  0.06159641  0.19825113  1  0  0.653447  0  3.7369  0  0  0.600029  0  4.006921  0  0  0.628311  0  4.009991  0  0  0.364135  0.581374  0  4.005102  0
C  C28  1  0.15705923  0.28192214  0.39061996  1  0  0.199147  0  3.639696  0  0  0.148668  0  3.90222  0  0  0.171708  0  3.903989  0  0  0.070364  0.132642  0  3.902639  0
C  C29  1  0.34295108  0.71806945  0.89062951  1  0  0.19902  0  3.639426  0  0  0.148562  0  3.902044  0  0  0.171583  0  3.9038  0  0  0.070333  0.132518  0  3.902502  0
C  C30  1  0.84295361  0.71807835  0.60937912  1  0  0.19901  0  3.639171  0  0  0.14863  0  3.90178  0  0  0.171667  0  3.90355  0  0  0.070369  0.13261  0  3.902187  0
C  C31  1  0.65704291  0.28193126  0.10937076  1  0  0.19907  0  3.639335  0  0  0.148599  0  3.901909  0  0  0.171654  0  3.903673  0  0  0.070336  0.132555  0  3.902369  0
C  C32  1  0.19743688  0.17175367  0.45633336  1  0  -0.04754  0  3.7334  0  0  -0.028901  0  4.018658  0  0  -0.039714  0  4.037686  0  0  -0.031739  -0.022605  0  4.00704  0
C  C33  1  0.30260351  0.82825252  0.95634397  1  0  -0.047272  0  3.732804  0  0  -0.028884  0  4.018436  0  0  -0.039702  0  4.037479  0  0  -0.031691  -0.022586  0  4.00681  0
C  C34  1  0.80259678  0.82826787  0.54366452  1  0  -0.047219  0  3.732867  0  0  -0.02893  0  4.018559  0  0  -0.039742  0  4.037589  0  0  -0.031795  -0.02263  0  4.006932  0
C  C35  1  0.69740831  0.17176529  0.04365690  1  0  -0.047488  0  3.733414  0  0  -0.028958  0  4.018817  0  0  -0.039773  0  4.037846  0  0  -0.031695  -0.02266  0  4.007188  0
C  C36  1  0.26292896  0.00233938  0.44198348  1  0  0.139152  0  3.63177  0  0  0.078913  0  3.897424  0  0  0.098356  0  3.905217  0  0  0.053073  0.065636  0  3.893001  0
C  C37  1  0.23709308  0.99766812  0.94199386  1  0  0.139046  0  3.631189  0  0  0.07893  0  3.896991  0  0  0.098377  0  3.904784  0  0  0.053145  0.065671  0  3.8926  0
C  C38  1  0.73709448  0.99767962  0.55801201  1  0  0.139007  0  3.632096  0  0  0.078933  0  3.897724  0  0  0.098378  0  3.905506  0  0  0.053134  0.065659  0  3.893312  0
C  C39  1  0.76290134  0.00234989  0.05800582  1  0  0.139079  0  3.631008  0  0  0.07898  0  3.896769  0  0  0.098428  0  3.904559  0  0  0.053121  0.065739  0  3.892384  0
Br  Br40  1  0.16917723  0.26202776  0.56100376  1  0  0.010748  0  1.386475  0  0  0.011199  0  1.666645  0  0  0.009856  0  1.659282  0  0  0.072265  0.011193  0  1.672583  0
Br  Br41  1  0.33081108  0.73792134  0.06100893  1  0  0.010651  0  1.38645  0  0  0.01119  0  1.666754  0  0  0.009847  0  1.659399  0  0  0.072234  0.011201  0  1.672701  0
Br  Br42  1  0.83082098  0.73796757  0.43899412  1  0  0.010642  0  1.386305  0  0  0.011208  0  1.66661  0  0  0.009862  0  1.659254  0  0  0.072255  0.011201  0  1.67255  0
Br  Br43  1  0.66918149  0.26208071  0.93899673  1  0  0.010675  0  1.386667  0  0  0.011164  0  1.666904  0  0  0.009818  0  1.659548  0  0  0.072207  0.01118  0  1.672852  0
N  N44  1  0.18444968  0.23025656  0.31494011  1  0  -0.414694  0  3.260375  0  0  -0.348634  0  3.572484  0  0  -0.362472  0  3.565661  0  0  -0.357472  -0.341501  0  3.577861  0
N  N45  1  0.31552823  0.76973054  0.81494489  1  0  -0.414746  0  3.260676  0  0  -0.348658  0  3.572781  0  0  -0.362424  0  3.565894  0  0  -0.357519  -0.341528  0  3.578146  0
N  N46  1  0.81555697  0.76972802  0.68506615  1  0  -0.414778  0  3.260479  0  0  -0.348725  0  3.572614  0  0  -0.362552  0  3.565791  0  0  -0.357514  -0.341596  0  3.57799  0
N  N47  1  0.68445970  0.23025960  0.18505478  1  0  -0.414637  0  3.260646  0  0  -0.348586  0  3.572719  0  0  -0.362453  0  3.565927  0  0  -0.3575  -0.34145  0  3.578072  0
N  N48  1  0.27267268  0.00244570  0.22801149  1  0  -0.670461  0  3.13217  0  0  -0.635723  0  3.370153  0  0  -0.657193  0  3.365308  0  0  -0.565898  -0.621386  0  3.373637  0
N  N49  1  0.22730674  0.99754402  0.72801354  1  0  -0.670629  0  3.131769  0  0  -0.635801  0  3.36975  0  0  -0.657278  0  3.364917  0  0  -0.566001  -0.62145  0  3.373218  0
N  N50  1  0.72732564  0.99755363  0.77198340  1  0  -0.670423  0  3.131574  0  0  -0.635698  0  3.369602  0  0  -0.657171  0  3.364765  0  0  -0.565776  -0.62136  0  3.373084  0
N  N51  1  0.77268287  0.00245541  0.27198553  1  0  -0.670599  0  3.132312  0  0  -0.635812  0  3.370161  0  0  -0.657282  0  3.36531  0  0  -0.565941  -0.621464  0  3.373627  0
N  N52  1  0.28575125  0.95109897  0.36476100  1  0  -0.345857  0  3.365881  0  0  -0.273317  0  3.591247  0  0  -0.29446  0  3.599198  0  0  -0.355157  -0.260057  0  3.586631  0
N  N53  1  0.21424238  0.04888681  0.86476458  1  0  -0.345685  0  3.365245  0  0  -0.273232  0  3.590574  0  0  -0.29434  0  3.598455  0  0  -0.355166  -0.260054  0  3.586037  0
N  N54  1  0.71425882  0.04890688  0.63523389  1  0  -0.34576  0  3.365882  0  0  -0.273243  0  3.591234  0  0  -0.294394  0  3.599214  0  0  -0.35508  -0.260009  0  3.586641  0
N  N55  1  0.78575014  0.95111259  0.13523928  1  0  -0.345676  0  3.36488  0  0  -0.273272  0  3.590175  0  0  -0.294397  0  3.598085  0  0  -0.355095  -0.260141  0  3.585681  0
Cl  Cl56  1  0.92226364  0.61443714  0.23789914  1  0  -0.578649  0  1.326902  0  0  -0.516627  0  1.690732  0  0  -0.531289  0  1.658908  0  0  -0.308681  -0.50581  0  1.71199  0
Cl  Cl57  1  0.57772874  0.38557735  0.73789274  1  0  -0.578681  0  1.326766  0  0  -0.516596  0  1.690519  0  0  -0.531255  0  1.658704  0  0  -0.308724  -0.505787  0  1.711777  0
Cl  Cl58  1  0.07773342  0.38557019  0.76210592  1  0  -0.578697  0  1.326867  0  0  -0.516658  0  1.690643  0  0  -0.531322  0  1.658826  0  0  -0.308717  -0.505844  0  1.711903  0
Cl  Cl59  1  0.42226829  0.61442865  0.26210215  1  0  -0.578663  0  1.3268  0  0  -0.516613  0  1.690603  0  0  -0.531271  0  1.658783  0  0  -0.308704  -0.505798  0  1.711861  0
Cl  Cl60  1  0.18337999  0.28813847  0.10059432  1  0  -0.622555  0  1.093375  0  0  -0.56975  0  1.39597  0  0  -0.589011  0  1.373665  0  0  -0.351918  -0.55477  0  1.409986  0
Cl  Cl61  1  0.31659692  0.71187165  0.60060290  1  0  -0.622514  0  1.093334  0  0  -0.569787  0  1.395999  0  0  -0.589045  0  1.373682  0  0  -0.351944  -0.554827  0  1.410013  0
Cl  Cl62  1  0.81660712  0.71187696  0.89940895  1  0  -0.622545  0  1.09343  0  0  -0.569769  0  1.396024  0  0  -0.589038  0  1.373737  0  0  -0.35191  -0.554783  0  1.410045  0
Cl  Cl63  1  0.68339873  0.28813703  0.39939797  1  0  -0.622596  0  1.093279  0  0  -0.569839  0  1.395899  0  0  -0.589084  0  1.373562  0  0  -0.351961  -0.554871  0  1.409913  0
