# generated using pymatgen
data_PrH5C10O9
_symmetry_space_group_name_H-M   'P 1'
_cell_length_a   6.34364999
_cell_length_b   9.42913740
_cell_length_c   9.67587674
_cell_angle_alpha   87.92997340
_cell_angle_beta   74.16576042
_cell_angle_gamma   76.84376266
_symmetry_Int_Tables_number   1
_chemical_formula_structural   PrH5C10O9
_chemical_formula_sum   'Pr2 H10 C20 O18'
_cell_volume   541.97988613
_cell_formula_units_Z   2
loop_
 _symmetry_equiv_pos_site_id
 _symmetry_equiv_pos_as_xyz
  1  'x, y, z'
loop_
 _atom_site_type_symbol
 _atom_site_label
 _atom_site_symmetry_multiplicity
 _atom_site_fract_x
 _atom_site_fract_y
 _atom_site_fract_z
 _atom_site_occupancy
 _atom_site_hle17_bader_spin_density
 _atom_site_hle17_ddec_charge
 _atom_site_hle17_ddec_spin_density
 _atom_site_hle17_ddec_sum_bond_order
 _atom_site_hle17_magmom
 _atom_site_hse06_10hf_bader_spin_density
 _atom_site_hse06_10hf_ddec_charge
 _atom_site_hse06_10hf_ddec_spin_density
 _atom_site_hse06_10hf_ddec_sum_bond_order
 _atom_site_hse06_10hf_magmom
 _atom_site_hse06_bader_spin_density
 _atom_site_hse06_ddec_charge
 _atom_site_hse06_ddec_spin_density
 _atom_site_hse06_ddec_sum_bond_order
 _atom_site_hse06_magmom
 _atom_site_pbe_bader_spin_density
 _atom_site_pbe_cm5_charge
 _atom_site_pbe_ddec_charge
 _atom_site_pbe_ddec_spin_density
 _atom_site_pbe_ddec_sum_bond_order
 _atom_site_pbe_magmom
Pr  Pr0  1  0.15256780  0.55946681  0.27957393  1  0  2.332557  0  1.617331  0  0  2.219638  0  1.993522  0  0  2.258454  0  1.950007  0  0  1.518595  2.145344  0  2.110586  0
Pr  Pr1  1  0.84743135  0.44053706  0.72042627  1  0  2.332545  0  1.617397  0  0  2.219621  0  1.993592  0  0  2.258431  0  1.950079  0  0  1.518631  2.145342  0  2.110636  0
H  H2  1  0.01266123  0.92252455  0.26395195  1  0  0.424061  0  0.869004  0  0  0.392012  0  0.945638  0  0  0.404779  0  0.927511  0  0  0.317063  0.383202  0  0.958017  0
H  H3  1  0.98733251  0.07747606  0.73604830  1  0  0.424177  0  0.86884  0  0  0.392085  0  0.94554  0  0  0.404854  0  0.927409  0  0  0.317067  0.383272  0  0.957927  0
H  H4  1  0.69808914  0.44010868  0.34349204  1  0  0.47067  0  0.804913  0  0  0.439183  0  0.868662  0  0  0.448456  0  0.855069  0  0  0.325188  0.432546  0  0.878274  0
H  H5  1  0.30191254  0.55989736  0.65651074  1  0  0.470636  0  0.804961  0  0  0.439143  0  0.868721  0  0  0.448416  0  0.855128  0  0  0.32516  0.432507  0  0.878333  0
H  H6  1  0.85991688  0.39098424  0.19006142  1  0  0.461635  0  0.785397  0  0  0.442779  0  0.839379  0  0  0.451306  0  0.827465  0  0  0.339331  0.436211  0  0.847209  0
H  H7  1  0.14007697  0.60902073  0.80993660  1  0  0.461657  0  0.785421  0  0  0.442799  0  0.8394  0  0  0.451325  0  0.827448  0  0  0.339334  0.436229  0  0.847235  0
H  H8  1  0.20852345  0.06630867  0.36829549  1  0  0.118969  0  0.923106  0  0  0.132313  0  0.97582  0  0  0.135986  0  0.973956  0  0  0.118197  0.129504  0  0.977666  0
H  H9  1  0.79147686  0.93369191  0.63171081  1  0  0.118919  0  0.923132  0  0  0.132275  0  0.975838  0  0  0.135944  0  0.973975  0  0  0.118162  0.129463  0  0.977686  0
H  H10  1  0.67538304  0.15708298  0.11118180  1  0  0.124028  0  0.945246  0  0  0.13264  0  1.005775  0  0  0.137179  0  1.002272  0  0  0.115334  0.128908  0  1.009529  0
H  H11  1  0.32462129  0.84291545  0.88881661  1  0  0.124031  0  0.94521  0  0  0.132622  0  1.005774  0  0  0.137174  0  1.002256  0  0  0.115321  0.128889  0  1.009527  0
C  C12  1  0.82915578  0.87531151  0.15151061  1  0  0.685855  0  3.778603  0  0  0.636433  0  4.077764  0  0  0.669967  0  4.068451  0  0  0.250669  0.612905  0  4.083342  0
C  C13  1  0.17084048  0.12469127  0.84849221  1  0  0.685884  0  3.778626  0  0  0.636422  0  4.077774  0  0  0.669953  0  4.068461  0  0  0.250621  0.612893  0  4.083352  0
C  C14  1  0.34645005  0.29680945  0.42028415  1  0  0.708679  0  3.884662  0  0  0.655495  0  4.190425  0  0  0.690846  0  4.177443  0  0  0.224865  0.63328  0  4.191097  0
C  C15  1  0.65355177  0.70318680  0.57971375  1  0  0.708566  0  3.884993  0  0  0.655447  0  4.190619  0  0  0.690796  0  4.17764  0  0  0.224834  0.633233  0  4.191294  0
C  C16  1  0.42709853  0.14574546  0.46668705  1  0  -0.032493  0  3.683782  0  0  -0.020226  0  3.922004  0  0  -0.022583  0  3.93912  0  0  0.008247  -0.020151  0  3.911816  0
C  C17  1  0.57289614  0.85424315  0.53331548  1  0  -0.032364  0  3.683791  0  0  -0.020156  0  3.92187  0  0  -0.022514  0  3.938983  0  0  0.008244  -0.020071  0  3.911664  0
C  C18  1  0.39232495  0.31929157  0.98157234  1  0  0.754065  0  3.852534  0  0  0.708037  0  4.1465  0  0  0.743596  0  4.132635  0  0  0.248794  0.683693  0  4.152944  0
C  C19  1  0.60768190  0.68070905  0.01842245  1  0  0.753949  0  3.852652  0  0  0.707888  0  4.146698  0  0  0.743473  0  4.132805  0  0  0.248821  0.683551  0  4.153126  0
C  C20  1  0.33605742  0.03757122  0.42664291  1  0  -0.066606  0  3.672459  0  0  -0.104035  0  3.929966  0  0  -0.103905  0  3.947711  0  0  -0.068964  -0.10359  0  3.920235  0
C  C21  1  0.66393054  0.96242719  0.57336154  1  0  -0.06668  0  3.672261  0  0  -0.104057  0  3.929838  0  0  -0.103917  0  3.947579  0  0  -0.068931  -0.103614  0  3.920106  0
C  C22  1  0.40754803  0.89182370  0.45873863  1  0  -0.055314  0  3.709654  0  0  -0.042592  0  3.946146  0  0  -0.047426  0  3.965126  0  0  -0.002752  -0.04062  0  3.935361  0
C  C23  1  0.59245644  0.10817906  0.54126582  1  0  -0.055247  0  3.709501  0  0  -0.042756  0  3.946305  0  0  -0.047595  0  3.965285  0  0  -0.002811  -0.040777  0  3.935516  0
C  C24  1  0.30955813  0.77882113  0.41148302  1  0  0.666853  0  3.892858  0  0  0.615915  0  4.189283  0  0  0.649716  0  4.180501  0  0  0.211918  0.593753  0  4.190549  0
C  C25  1  0.69044331  0.22117620  0.58851698  1  0  0.666963  0  3.892878  0  0  0.616103  0  4.189258  0  0  0.649904  0  4.180477  0  0  0.212026  0.593939  0  4.190523  0
C  C26  1  0.59942686  0.08870544  0.06040039  1  0  -0.074891  0  3.676462  0  0  -0.114998  0  3.938682  0  0  -0.11466  0  3.956151  0  0  -0.073415  -0.114698  0  3.928016  0
C  C27  1  0.40057230  0.91129842  0.93960084  1  0  -0.074789  0  3.676344  0  0  -0.114904  0  3.938539  0  0  -0.114571  0  3.955993  0  0  -0.073345  -0.114604  0  3.927869  0
C  C28  1  0.44015048  0.15418453  0.98889955  1  0  -0.032321  0  3.640355  0  0  -0.022005  0  3.876442  0  0  -0.023656  0  3.893865  0  0  0.00934  -0.022302  0  3.866106  0
C  C29  1  0.55985539  0.84580953  0.01110183  1  0  -0.032359  0  3.640083  0  0  -0.022042  0  3.876279  0  0  -0.023705  0  3.893702  0  0  0.009294  -0.022335  0  3.865932  0
C  C30  1  0.66043555  0.93701068  0.07228891  1  0  -0.074029  0  3.716871  0  0  -0.063143  0  3.957172  0  0  -0.069568  0  3.978421  0  0  -0.006288  -0.058615  0  3.944649  0
C  C31  1  0.33955705  0.06299319  0.92771247  1  0  -0.074238  0  3.717217  0  0  -0.063232  0  3.957337  0  0  -0.069656  0  3.97859  0  0  -0.006331  -0.0587  0  3.944813  0
O  O32  1  0.89121375  0.74161977  0.16547617  1  0  -0.647316  0  2.016821  0  0  -0.609524  0  2.264586  0  0  -0.628453  0  2.252458  0  0  -0.33131  -0.590993  0  2.274705  0
O  O33  1  0.10878239  0.25837866  0.83452371  1  0  -0.647249  0  2.016759  0  0  -0.609458  0  2.264535  0  0  -0.628387  0  2.252414  0  0  -0.331293  -0.590928  0  2.274653  0
O  O34  1  0.15697280  0.37408445  0.49152486  1  0  -0.782777  0  2.094946  0  0  -0.738406  0  2.361718  0  0  -0.761951  0  2.348723  0  0  -0.412204  -0.711195  0  2.368123  0
O  O35  1  0.84302750  0.62591616  0.50847317  1  0  -0.78273  0  2.095009  0  0  -0.738399  0  2.361756  0  0  -0.761943  0  2.348763  0  0  -0.412216  -0.711183  0  2.368148  0
O  O36  1  0.45588109  0.33948901  0.30244796  1  0  -0.684907  0  1.993132  0  0  -0.638467  0  2.232931  0  0  -0.662161  0  2.222344  0  0  -0.357902  -0.617817  0  2.239792  0
O  O37  1  0.54412892  0.66050724  0.69754846  1  0  -0.684835  0  1.993336  0  0  -0.638387  0  2.233037  0  0  -0.662082  0  2.222453  0  0  -0.357844  -0.617742  0  2.239896  0
O  O38  1  0.53597956  0.37201569  0.88999914  1  0  -0.737938  0  2.04113  0  0  -0.699787  0  2.301609  0  0  -0.723815  0  2.288087  0  0  -0.399043  -0.675612  0  2.312429  0
O  O39  1  0.46402854  0.62798603  0.10999333  1  0  -0.737843  0  2.041224  0  0  -0.69968  0  2.301713  0  0  -0.723713  0  2.28818  0  0  -0.399011  -0.675507  0  2.312526  0
O  O40  1  0.38481953  0.64501303  0.42984192  1  0  -0.652325  0  1.986029  0  0  -0.600749  0  2.220257  0  0  -0.623145  0  2.211179  0  0  -0.331641  -0.581623  0  2.225504  0
O  O41  1  0.61518847  0.35498431  0.57015690  1  0  -0.652339  0  1.985971  0  0  -0.600772  0  2.22017  0  0  -0.623157  0  2.211077  0  0  -0.33165  -0.581659  0  2.225445  0
O  O42  1  0.22226566  0.39248012  0.07261030  1  0  -0.723725  0  2.001726  0  0  -0.681361  0  2.249491  0  0  -0.70537  0  2.235476  0  0  -0.383668  -0.657375  0  2.259798  0
O  O43  1  0.77773790  0.60752049  0.92738507  1  0  -0.723718  0  2.001641  0  0  -0.681326  0  2.249414  0  0  -0.705346  0  2.235386  0  0  -0.383763  -0.657348  0  2.259717  0
O  O44  1  0.90621593  0.97360219  0.20576761  1  0  -0.537886  0  2.082005  0  0  -0.486943  0  2.294923  0  0  -0.509752  0  2.279658  0  0  -0.312636  -0.471168  0  2.305995  0
O  O45  1  0.09378351  0.02639620  0.79423994  1  0  -0.538003  0  2.08188  0  0  -0.487052  0  2.294858  0  0  -0.509863  0  2.279596  0  0  -0.312632  -0.471276  0  2.305931  0
O  O46  1  0.85137948  0.43230423  0.28261817  1  0  -0.903699  0  1.864938  0  0  -0.865448  0  2.065786  0  0  -0.880825  0  2.0354  0  0  -0.635679  -0.848805  0  2.088847  0
O  O47  1  0.14861967  0.56769965  0.71737893  1  0  -0.903665  0  1.864966  0  0  -0.865412  0  2.065814  0  0  -0.880787  0  2.03539  0  0  -0.635652  -0.848771  0  2.088871  0
O  O48  1  0.14912116  0.81876136  0.35109842  1  0  -0.741166  0  2.122508  0  0  -0.686738  0  2.368343  0  0  -0.712996  0  2.358672  0  0  -0.372011  -0.664768  0  2.374141  0
O  O49  1  0.85088078  0.18123924  0.64890035  1  0  -0.741247  0  2.122519  0  0  -0.686795  0  2.368311  0  0  -0.713053  0  2.358639  0  0  -0.372066  -0.664822  0  2.374111  0
