# generated using pymatgen
data_CuH5C7N2
_symmetry_space_group_name_H-M   'P 1'
_cell_length_a   11.50308721
_cell_length_b   14.43093809
_cell_length_c   14.43102076
_cell_angle_alpha   120.00035799
_cell_angle_beta   90.00020213
_cell_angle_gamma   90.00007994
_symmetry_Int_Tables_number   1
_chemical_formula_structural   CuH5C7N2
_chemical_formula_sum   'Cu12 H60 C84 N24'
_cell_volume   2074.60343433
_cell_formula_units_Z   12
loop_
 _symmetry_equiv_pos_site_id
 _symmetry_equiv_pos_as_xyz
  1  'x, y, z'
loop_
 _atom_site_type_symbol
 _atom_site_label
 _atom_site_symmetry_multiplicity
 _atom_site_fract_x
 _atom_site_fract_y
 _atom_site_fract_z
 _atom_site_occupancy
 _atom_site_pbe_bader_charge
 _atom_site_pbe_bader_spin_density
 _atom_site_pbe_cm5_charge
 _atom_site_pbe_ddec_charge
 _atom_site_pbe_ddec_spin_density
 _atom_site_pbe_ddec_sum_bond_order
 _atom_site_pbe_magmom
Cu  Cu0  1  0.74981431  0.85646380  0.42562923  1  0.546092  0  0.491715  0.282219  0  2.116359  0
Cu  Cu1  1  0.74981513  0.42563381  0.56916688  1  0.546245  0  0.491746  0.282285  0  2.116418  0
Cu  Cu2  1  0.74981343  0.56916287  0.14353118  1  0.547101  0  0.491707  0.282267  0  2.11636  0
Cu  Cu3  1  0.74981577  0.14353607  0.57437243  1  0.547546  0  0.491723  0.282244  0  2.116324  0
Cu  Cu4  1  0.74981060  0.57436489  0.43083042  1  0.547216  0  0.49169  0.282212  0  2.116356  0
Cu  Cu5  1  0.74981317  0.43083630  0.85646979  1  0.545169  0  0.491703  0.28222  0  2.11642  0
Cu  Cu6  1  0.25018555  0.14353672  0.57437121  1  0.54609  0  0.491707  0.282217  0  2.116363  0
Cu  Cu7  1  0.25018386  0.57436751  0.43083277  1  0.5472  0  0.491724  0.282282  0  2.116333  0
Cu  Cu8  1  0.25018556  0.43083616  0.85646936  1  0.547099  0  0.491694  0.282265  0  2.116298  0
Cu  Cu9  1  0.25018496  0.85646415  0.42562692  1  0.547531  0  0.491698  0.282247  0  2.116341  0
Cu  Cu10  1  0.25018839  0.42563494  0.56916933  1  0.546284  0  0.491706  0.282234  0  2.116342  0
Cu  Cu11  1  0.25018669  0.56916312  0.14353036  1  0.545167  0  0.491689  0.282215  0  2.116397  0
H  H12  1  0.99999816  0.78111490  0.32617381  1  0.09422  0  0.124644  0.091683  0  1.013816  0
H  H13  1  0.00000411  0.32617273  0.54505919  1  0.133762  0  0.124663  0.091704  0  1.013782  0
H  H14  1  0.00000182  0.54505705  0.21888462  1  0.123669  0  0.124674  0.091713  0  1.013787  0
H  H15  1  0.00000170  0.21888631  0.67382732  1  0.094206  0  0.124637  0.09167  0  1.013815  0
H  H16  1  0.99999488  0.67382680  0.45493947  1  0.133766  0  0.124663  0.091734  0  1.01378  0
H  H17  1  0.99999804  0.45493989  0.78111385  1  0.123785  0  0.124652  0.09172  0  1.01376  0
H  H18  1  0.49999986  0.88157722  0.51961302  1  0.147563  0  0.119829  0.080397  0  1.057891  0
H  H19  1  0.50000330  0.51961805  0.63803788  1  0.158909  0  0.119801  0.08042  0  1.058019  0
H  H20  1  0.50000050  0.63803534  0.11841992  1  0.152386  0  0.119828  0.080462  0  1.057965  0
H  H21  1  0.50000086  0.11842231  0.48038563  1  0.147546  0  0.119834  0.080426  0  1.057873  0
H  H22  1  0.49999656  0.48038287  0.36196216  1  0.158928  0  0.119808  0.08041  0  1.058035  0
H  H23  1  0.49999936  0.36196379  0.88157914  1  0.152416  0  0.119823  0.080407  0  1.058001  0
H  H24  1  0.78074754  0.99024422  0.67064376  1  0.053976  0  0.095512  0.100084  0  1.048891  0
H  H25  1  0.78074729  0.67064449  0.68039540  1  0.053154  0  0.095496  0.100123  0  1.048844  0
H  H26  1  0.78074579  0.68039771  0.00975458  1  0.054008  0  0.095499  0.100103  0  1.048857  0
H  H27  1  0.78074333  0.00975356  0.32935746  1  0.053934  0  0.095507  0.100121  0  1.048845  0
H  H28  1  0.78074445  0.32935004  0.31959937  1  0.053165  0  0.095489  0.100116  0  1.04884  0
H  H29  1  0.78074768  0.31960336  0.99024751  1  0.054022  0  0.095499  0.100123  0  1.048825  0
H  H30  1  0.21925319  0.00975480  0.32935679  1  0.053963  0  0.095507  0.100098  0  1.048859  0
H  H31  1  0.21925257  0.32935683  0.31960425  1  0.053169  0  0.095503  0.10012  0  1.048835  0
H  H32  1  0.21925494  0.31960241  0.99024626  1  0.054006  0  0.095507  0.100133  0  1.048873  0
H  H33  1  0.21925566  0.99024695  0.67064298  1  0.053941  0  0.095502  0.100109  0  1.048868  0
H  H34  1  0.21925454  0.67065087  0.68040067  1  0.053044  0  0.095496  0.100134  0  1.048837  0
H  H35  1  0.21925218  0.68039676  0.00975333  1  0.054034  0  0.095506  0.100133  0  1.048817  0
H  H36  1  0.71945929  0.81767404  0.19240371  1  0.055357  0  0.097486  0.105186  0  1.040414  0
H  H37  1  0.71946178  0.19240424  0.37473190  1  0.05644  0  0.097511  0.105154  0  1.040412  0
H  H38  1  0.71946150  0.37473044  0.18232669  1  0.055015  0  0.097508  0.105173  0  1.040387  0
H  H39  1  0.71946013  0.18232791  0.80759840  1  0.055348  0  0.097497  0.105172  0  1.040433  0
H  H40  1  0.71945938  0.80759534  0.62526704  1  0.056479  0  0.097497  0.105179  0  1.040425  0
H  H41  1  0.71945966  0.62527012  0.81767403  1  0.055067  0  0.097488  0.105181  0  1.040417  0
H  H42  1  0.28054057  0.18232509  0.80759534  1  0.055356  0  0.097488  0.105186  0  1.040419  0
H  H43  1  0.28053895  0.80759697  0.62526924  1  0.056457  0  0.097503  0.105164  0  1.040411  0
H  H44  1  0.28053923  0.62527088  0.81767295  1  0.055025  0  0.097509  0.105172  0  1.040393  0
H  H45  1  0.28053973  0.81767479  0.19240263  1  0.055363  0  0.0975  0.105182  0  1.040375  0
H  H46  1  0.28054134  0.19240528  0.37473190  1  0.056509  0  0.097487  0.10518  0  1.040384  0
H  H47  1  0.28054107  0.37473109  0.18232710  1  0.055072  0  0.097495  0.105198  0  1.040406  0
H  H48  1  0.89321436  0.09591527  0.84109681  1  0.082922  0  0.092311  0.094461  0  1.029374  0
H  H49  1  0.89321217  0.84109881  0.74518038  1  0.08194  0  0.092311  0.094442  0  1.029481  0
H  H50  1  0.89320983  0.74517908  0.90408431  1  0.077673  0  0.092301  0.094427  0  1.029395  0
H  H51  1  0.89321091  0.90408409  0.15890371  1  0.08246  0  0.0923  0.094428  0  1.029459  0
H  H52  1  0.89321223  0.15889957  0.25481835  1  0.081926  0  0.092291  0.09442  0  1.029473  0
H  H53  1  0.89321369  0.25482057  0.09591730  1  0.077692  0  0.092307  0.094431  0  1.029413  0
H  H54  1  0.10678724  0.90408415  0.15890334  1  0.082915  0  0.092308  0.09444  0  1.0294  0
H  H55  1  0.10678856  0.15890280  0.25482036  1  0.081616  0  0.09229  0.094418  0  1.029444  0
H  H56  1  0.10679003  0.25482173  0.09591722  1  0.077678  0  0.092301  0.094427  0  1.029423  0
H  H57  1  0.10678895  0.09591613  0.84109564  1  0.08246  0  0.092299  0.094422  0  1.029471  0
H  H58  1  0.10678763  0.84110094  0.74518209  1  0.081919  0  0.092309  0.094444  0  1.029485  0
H  H59  1  0.10678617  0.74517776  0.90408256  1  0.077719  0  0.092306  0.094434  0  1.02941  0
H  H60  1  0.60671961  0.79035083  0.03148814  1  0.079543  0  0.093237  0.097268  0  1.028936  0
H  H61  1  0.60671943  0.03148774  0.24113951  1  0.071676  0  0.093221  0.097269  0  1.028924  0
H  H62  1  0.60671954  0.24113835  0.20965102  1  0.071904  0  0.093229  0.097265  0  1.028932  0
H  H63  1  0.60672034  0.20965154  0.96851267  1  0.079514  0  0.09323  0.097254  0  1.028931  0
H  H64  1  0.60671965  0.96851354  0.75886101  1  0.071824  0  0.093219  0.097247  0  1.028936  0
H  H65  1  0.60671954  0.75886114  0.79034851  1  0.071911  0  0.093228  0.097254  0  1.028932  0
H  H66  1  0.39328112  0.20965009  0.96851190  1  0.079557  0  0.09323  0.09727  0  1.028911  0
H  H67  1  0.39328130  0.96851278  0.75886093  1  0.071677  0  0.093224  0.09726  0  1.028914  0
H  H68  1  0.39328206  0.75886147  0.79034873  1  0.071918  0  0.093232  0.09728  0  1.028934  0
H  H69  1  0.39328125  0.79034977  0.03148697  1  0.079516  0  0.093236  0.097276  0  1.028914  0
H  H70  1  0.39328108  0.03148738  0.24113904  1  0.071847  0  0.093226  0.097268  0  1.02893  0
H  H71  1  0.39328119  0.24113828  0.20965163  1  0.071915  0  0.093221  0.097256  0  1.028903  0
C  C72  1  0.99999753  0.83068037  0.41265646  1  0.998522  0  0.133545  0.175505  0  3.957064  0
C  C73  1  0.00000079  0.41265854  0.58197691  1  0.989861  0  0.133511  0.175496  0  3.956974  0
C  C74  1  0.00000088  0.58197342  0.16931812  1  0.979904  0  0.133458  0.175452  0  3.956995  0
C  C75  1  0.00000233  0.16932055  0.58734358  1  0.998499  0  0.133567  0.175537  0  3.957111  0
C  C76  1  0.99999820  0.58734139  0.41802134  1  0.989845  0  0.133508  0.175409  0  3.957214  0
C  C77  1  0.99999725  0.41802243  0.83068005  1  0.979848  0  0.13353  0.17544  0  3.957128  0
C  C78  1  0.49999967  0.86462840  0.43748317  1  0.9613  0  0.134086  0.1913  0  3.932151  0
C  C79  1  0.50000308  0.43748780  0.57285915  1  0.981629  0  0.134106  0.191236  0  3.932252  0
C  C80  1  0.50000048  0.57285482  0.13536875  1  0.967773  0  0.134063  0.191171  0  3.93227  0
C  C81  1  0.50000019  0.13537182  0.56251618  1  0.9621  0  0.134074  0.191289  0  3.932114  0
C  C82  1  0.49999678  0.56251312  0.42714090  1  0.982285  0  0.13409  0.191226  0  3.932235  0
C  C83  1  0.49999938  0.42714639  0.86463239  1  0.966993  0  0.134082  0.191253  0  3.932327  0
C  C84  1  0.93843364  0.92830713  0.57682977  1  0.270871  0  0.074109  0.141449  0  4.032633  0
C  C85  1  0.93843437  0.57683284  0.64852147  1  0.265082  0  0.074103  0.141513  0  4.032615  0
C  C86  1  0.93843227  0.64851856  0.07169014  1  0.42427  0  0.074145  0.141522  0  4.032566  0
C  C87  1  0.93843082  0.07169180  0.42316876  1  0.430946  0  0.074096  0.141438  0  4.032647  0
C  C88  1  0.93843096  0.42316828  0.35147765  1  0.425022  0  0.074083  0.14143  0  4.032685  0
C  C89  1  0.93843307  0.35147877  0.92830999  1  0.264486  0  0.074077  0.141445  0  4.03269  0
C  C90  1  0.06156622  0.07169229  0.42317038  1  0.270871  0  0.074093  0.141465  0  4.032683  0
C  C91  1  0.06156549  0.42316808  0.35147857  1  0.265084  0  0.074093  0.141526  0  4.032602  0
C  C92  1  0.06156759  0.35147908  0.92830902  1  0.424127  0  0.07417  0.141536  0  4.032691  0
C  C93  1  0.06156904  0.92830872  0.57683168  1  0.430935  0  0.074105  0.141516  0  4.032645  0
C  C94  1  0.06156803  0.57683194  0.64852170  1  0.42504  0  0.074108  0.14146  0  4.032681  0
C  C95  1  0.06156679  0.64851956  0.07168987  1  0.26486  0  0.074121  0.141487  0  4.032735  0
C  C96  1  0.87550992  0.98872667  0.67145070  1  -0.033825  0  -0.105866  -0.185047  0  4.034628  0
C  C97  1  0.87551055  0.67145000  0.68271964  1  -0.021152  0  -0.105898  -0.18521  0  4.034727  0
C  C98  1  0.87550992  0.68272053  0.01127250  1  -0.02175  0  -0.105873  -0.18509  0  4.034597  0
C  C99  1  0.87550919  0.01127253  0.32855124  1  -0.033893  0  -0.105895  -0.185101  0  4.034652  0
C  C100  1  0.87550770  0.32854634  0.31727544  1  -0.021054  0  -0.105879  -0.18514  0  4.034558  0
C  C101  1  0.87551093  0.31727837  0.98872834  1  -0.021647  0  -0.105907  -0.185167  0  4.034583  0
C  C102  1  0.12448994  0.01127276  0.32854945  1  -0.033771  0  -0.105863  -0.185078  0  4.034625  0
C  C103  1  0.12448931  0.32855131  0.31728000  1  -0.021169  0  -0.105876  -0.185156  0  4.034542  0
C  C104  1  0.12449081  0.31727849  0.98872805  1  -0.021755  0  -0.105929  -0.185184  0  4.034627  0
C  C105  1  0.12449067  0.98872769  0.67144811  1  -0.033907  0  -0.105849  -0.185049  0  4.034698  0
C  C106  1  0.12449129  0.67145388  0.68272391  1  -0.020914  0  -0.10589  -0.185164  0  4.034531  0
C  C107  1  0.12448806  0.68271996  0.01127152  1  -0.022413  0  -0.105905  -0.185163  0  4.034634  0
C  C108  1  0.56170012  0.83607263  0.28257250  1  0.270416  0  0.075596  0.137739  0  4.044915  0
C  C109  1  0.56170349  0.28257382  0.44650318  1  0.431684  0  0.075585  0.137831  0  4.044871  0
C  C110  1  0.56170126  0.44649977  0.16392745  1  0.438879  0  0.075578  0.137778  0  4.04493  0
C  C111  1  0.56170139  0.16392879  0.71742891  1  0.42927  0  0.075549  0.137727  0  4.044934  0
C  C112  1  0.56169889  0.71742621  0.55349685  1  0.273647  0  0.075634  0.137777  0  4.044826  0
C  C113  1  0.56170025  0.55350026  0.83607257  1  0.280066  0  0.07561  0.137796  0  4.044909  0
C  C114  1  0.43829974  0.16392828  0.71742754  1  0.270434  0  0.075626  0.13784  0  4.044779  0
C  C115  1  0.43829723  0.71742699  0.55349836  1  0.431598  0  0.075561  0.137776  0  4.044927  0
C  C116  1  0.43829860  0.55350074  0.83607299  1  0.438925  0  0.075555  0.137737  0  4.044951  0
C  C117  1  0.43829934  0.83607213  0.28257113  1  0.429303  0  0.075587  0.137807  0  4.044976  0
C  C118  1  0.43830271  0.28257390  0.44650400  1  0.27365  0  0.075636  0.137813  0  4.04483  0
C  C119  1  0.43830048  0.44650026  0.16392787  1  0.280038  0  0.075601  0.137769  0  4.044865  0
C  C120  1  0.62466300  0.81902482  0.19246620  1  -0.036049  0  -0.10466  -0.186081  0  4.02997  0
C  C121  1  0.62466374  0.19246643  0.37344419  1  -0.036133  0  -0.104678  -0.186067  0  4.029875  0
C  C122  1  0.62466260  0.37344209  0.18097589  1  -0.044993  0  -0.104674  -0.18609  0  4.029868  0
C  C123  1  0.62466297  0.18097612  0.80753480  1  -0.036013  0  -0.104628  -0.186053  0  4.030053  0
C  C124  1  0.62466310  0.80753312  0.62655542  1  -0.036958  0  -0.104653  -0.186043  0  4.029911  0
C  C125  1  0.62466337  0.62655884  0.81902511  1  -0.044835  0  -0.104666  -0.186119  0  4.029958  0
C  C126  1  0.37533686  0.18097570  0.80753424  1  -0.035971  0  -0.104665  -0.186119  0  4.029964  0
C  C127  1  0.37533699  0.80753368  0.62655665  1  -0.036043  0  -0.104667  -0.186058  0  4.029942  0
C  C128  1  0.37533726  0.62655882  0.81902415  1  -0.044761  0  -0.104618  -0.186004  0  4.030015  0
C  C129  1  0.37533863  0.81902549  0.19246593  1  -0.036066  0  -0.104638  -0.186034  0  4.030036  0
C  C130  1  0.37533850  0.19246711  0.37344393  1  -0.036938  0  -0.104655  -0.186079  0  4.029916  0
C  C131  1  0.37533736  0.37344127  0.18097573  1  -0.044828  0  -0.104642  -0.186089  0  4.029961  0
C  C132  1  0.93862717  0.04762920  0.76556420  1  -0.137388  0  -0.105296  -0.091988  0  4.026056  0
C  C133  1  0.93862507  0.76556632  0.71793332  1  0.015202  0  -0.105253  -0.09189  0  4.026076  0
C  C134  1  0.93862382  0.71793206  0.95236927  1  0.023535  0  -0.105298  -0.091976  0  4.026056  0
C  C135  1  0.93862414  0.95236923  0.23443622  1  0.027936  0  -0.105289  -0.091994  0  4.026087  0
C  C136  1  0.93862625  0.23443261  0.28206521  1  -0.149924  0  -0.105234  -0.091888  0  4.026018  0
C  C137  1  0.93862663  0.28206706  0.04763185  1  -0.141482  0  -0.105252  -0.091904  0  4.025978  0
C  C138  1  0.06137356  0.95237023  0.23443595  1  -0.137435  0  -0.105281  -0.091938  0  4.026045  0
C  C139  1  0.06137479  0.23443489  0.28206781  1  0.015565  0  -0.105257  -0.091922  0  4.026002  0
C  C140  1  0.06137604  0.28206806  0.04763157  1  0.023506  0  -0.105283  -0.091955  0  4.026008  0
C  C141  1  0.06137659  0.04763020  0.76556392  1  0.027926  0  -0.105303  -0.092005  0  4.026119  0
C  C142  1  0.06137361  0.76556900  0.71793552  1  -0.149951  0  -0.105247  -0.091914  0  4.026013  0
C  C143  1  0.06137323  0.71793197  0.95236870  1  -0.141176  0  -0.105236  -0.091905  0  4.025976  0
C  C144  1  0.56140586  0.80377370  0.10346759  1  -0.026992  0  -0.105196  -0.096754  0  4.025801  0
C  C145  1  0.56140657  0.10346778  0.29969592  1  0.036522  0  -0.105169  -0.096723  0  4.025756  0
C  C146  1  0.56140651  0.29969405  0.19622648  1  0.031606  0  -0.105198  -0.096734  0  4.025722  0
C  C147  1  0.56140625  0.19622742  0.89653273  1  0.022393  0  -0.105187  -0.096697  0  4.025804  0
C  C148  1  0.56140467  0.89653225  0.70030411  1  -0.128547  0  -0.105197  -0.096753  0  4.025754  0
C  C149  1  0.56140560  0.70030598  0.80377354  1  0.031378  0  -0.10518  -0.096693  0  4.025744  0
C  C150  1  0.43859574  0.19622612  0.89653216  1  -0.142613  0  -0.105197  -0.096759  0  4.025812  0
C  C151  1  0.43859416  0.89653234  0.70030492  1  0.036513  0  -0.105185  -0.096744  0  4.025748  0
C  C152  1  0.43859509  0.70030578  0.80377326  1  -0.133627  0  -0.105224  -0.096799  0  4.025836  0
C  C153  1  0.43859448  0.80377419  0.10346801  1  -0.093149  0  -0.105201  -0.096774  0  4.025809  0
C  C154  1  0.43859606  0.10346826  0.29969634  1  -0.128553  0  -0.105189  -0.096765  0  4.025803  0
C  C155  1  0.43859513  0.29969453  0.19622690  1  -0.1336  0  -0.105196  -0.096744  0  4.025751  0
N  N156  1  0.59836008  0.85386473  0.38186632  1  -1.214444  0  -0.42645  -0.330701  0  3.739554  0
N  N157  1  0.59836349  0.38186937  0.52800462  1  -1.240386  0  -0.426477  -0.330818  0  3.739747  0
N  N158  1  0.59836102  0.52800082  0.14613347  1  -1.220614  0  -0.426425  -0.330715  0  3.739636  0
N  N159  1  0.59836088  0.14613652  0.61813416  1  -1.21447  0  -0.426473  -0.330796  0  3.739536  0
N  N160  1  0.59835835  0.61813049  0.47199448  1  -1.240114  0  -0.426456  -0.33073  0  3.739671  0
N  N161  1  0.59835995  0.47199963  0.85386781  1  -1.220595  0  -0.426402  -0.330687  0  3.739675  0
N  N162  1  0.40163978  0.14613550  0.61813303  1  -1.214444  0  -0.426447  -0.330739  0  3.739539  0
N  N163  1  0.40163724  0.61813224  0.47199612  1  -1.240384  0  -0.426433  -0.33074  0  3.739614  0
N  N164  1  0.40163884  0.47199970  0.85386697  1  -1.220518  0  -0.426449  -0.330757  0  3.739564  0
N  N165  1  0.40163898  0.85386479  0.38186548  1  -1.214462  0  -0.426458  -0.330791  0  3.739586  0
N  N166  1  0.40164238  0.38186973  0.52800487  1  -1.240087  0  -0.426455  -0.33074  0  3.739566  0
N  N167  1  0.40163991  0.52800049  0.14613303  1  -1.220567  0  -0.426407  -0.330673  0  3.739568  0
N  N168  1  0.90160150  0.86534537  0.47145703  1  -1.221182  0  -0.428539  -0.337301  0  3.747747  0
N  N169  1  0.90160320  0.47145734  0.60610944  1  -1.229538  0  -0.428564  -0.337352  0  3.747682  0
N  N170  1  0.90160313  0.60610614  0.13465215  1  -1.22205  0  -0.428523  -0.337308  0  3.747669  0
N  N171  1  0.90160274  0.13465501  0.52854531  1  -1.221531  0  -0.428497  -0.337221  0  3.747626  0
N  N172  1  0.90160017  0.52854198  0.39388704  1  -1.229479  0  -0.428447  -0.337189  0  3.747673  0
N  N173  1  0.90160024  0.39388997  0.86534752  1  -1.222035  0  -0.428491  -0.337226  0  3.747849  0
N  N174  1  0.09839836  0.13465475  0.52854381  1  -1.221182  0  -0.428553  -0.337317  0  3.747842  0
N  N175  1  0.09839492  0.52854329  0.39388951  1  -1.229372  0  -0.428597  -0.33737  0  3.747872  0
N  N176  1  0.09839586  0.39389080  0.86534632  1  -1.221714  0  -0.42856  -0.33732  0  3.747839  0
N  N177  1  0.09839712  0.86534591  0.47145473  1  -1.221536  0  -0.428539  -0.337322  0  3.747676  0
N  N178  1  0.09839882  0.47145796  0.60611122  1  -1.229614  0  -0.428546  -0.337298  0  3.747721  0
N  N179  1  0.09839875  0.60610658  0.13465135  1  -1.222083  0  -0.428546  -0.337321  0  3.747808  0
