# generated using pymatgen
data_ZnH28C22N6O5
_symmetry_space_group_name_H-M   'P 1'
_cell_length_a   9.78125652
_cell_length_b   10.25237326
_cell_length_c   14.78939414
_cell_angle_alpha   111.21512417
_cell_angle_beta   94.68758036
_cell_angle_gamma   115.99762348
_symmetry_Int_Tables_number   1
_chemical_formula_structural   ZnH28C22N6O5
_chemical_formula_sum   'Zn2 H56 C44 N12 O10'
_cell_volume   1190.46458358
_cell_formula_units_Z   2
loop_
 _symmetry_equiv_pos_site_id
 _symmetry_equiv_pos_as_xyz
  1  'x, y, z'
loop_
 _atom_site_type_symbol
 _atom_site_label
 _atom_site_symmetry_multiplicity
 _atom_site_fract_x
 _atom_site_fract_y
 _atom_site_fract_z
 _atom_site_occupancy
 _atom_site_pbe_bader_spin_density
 _atom_site_pbe_cm5_charge
 _atom_site_pbe_ddec_charge
 _atom_site_pbe_ddec_spin_density
 _atom_site_pbe_ddec_sum_bond_order
 _atom_site_pbe_magmom
Zn  Zn0  1  0.68192085  0.05942592  0.37616325  1  0  0.69273  0.778313  0  2.372981  0
Zn  Zn1  1  0.31808047  0.94058088  0.62384022  1  0  0.692708  0.778357  0  2.372919  0
H  H2  1  0.85309944  0.27532100  0.25997093  1  0  0.150128  0.134992  0  1.0061  0
H  H3  1  0.14691220  0.72468994  0.74003869  1  0  0.150149  0.135089  0  1.006057  0
H  H4  1  0.81388466  0.83821045  0.23488124  1  0  0.1389  0.117833  0  1.008555  0
H  H5  1  0.18610683  0.16178877  0.76511731  1  0  0.138875  0.117809  0  1.008534  0
H  H6  1  0.02252177  0.32453883  0.14583452  1  0  0.119758  0.100658  0  0.973792  0
H  H7  1  0.97750271  0.67548360  0.85418514  1  0  0.119789  0.100564  0  0.973906  0
H  H8  1  0.94587830  0.14124396  0.03335942  1  0  0.108647  0.080891  0  1.020437  0
H  H9  1  0.05413294  0.85878358  0.96665211  1  0  0.108562  0.080686  0  1.020565  0
H  H10  1  0.17409211  0.11316401  0.07453840  1  0  0.089412  0.084639  0  1.00776  0
H  H11  1  0.82590462  0.88683247  0.92547189  1  0  0.089436  0.084616  0  1.007876  0
H  H12  1  0.24489780  0.27056973  0.19857685  1  0  0.088447  0.084176  0  1.041832  0
H  H13  1  0.75511929  0.72944223  0.80142782  1  0  0.088452  0.08415  0  1.04185  0
H  H14  1  0.20329512  0.31832904  0.00759847  1  0  0.082913  0.068653  0  1.023685  0
H  H15  1  0.79670854  0.68165257  0.99239639  1  0  0.082935  0.06867  0  1.023672  0
H  H16  1  0.29020757  0.47154881  0.13406628  1  0  0.087805  0.078718  0  1.01118  0
H  H17  1  0.70981753  0.52844834  0.86592368  1  0  0.087793  0.078759  0  1.011051  0
H  H18  1  0.42231442  0.26002259  0.02054543  1  0  0.083818  0.075563  0  1.01084  0
H  H19  1  0.57766483  0.73993173  0.97943582  1  0  0.083746  0.075527  0  1.010667  0
H  H20  1  0.50190948  0.39568442  0.15095996  1  0  0.085159  0.082252  0  1.003795  0
H  H21  1  0.49809299  0.60427378  0.84901776  1  0  0.085219  0.082317  0  1.003949  0
H  H22  1  0.54847416  0.62598871  0.10994501  1  0  0.084703  0.076107  0  0.996444  0
H  H23  1  0.45154475  0.37397203  0.89002926  1  0  0.084617  0.075983  0  0.996457  0
H  H24  1  0.65642557  0.53152530  0.05983137  1  0  0.08428  0.07226  0  1.010134  0
H  H25  1  0.34357815  0.46841386  0.94014253  1  0  0.084251  0.072285  0  1.010142  0
H  H26  1  0.64524494  0.98500573  0.56349592  1  0  0.143923  0.122965  0  1.022879  0
H  H27  1  0.35475640  0.01500566  0.43650527  1  0  0.143927  0.123102  0  1.022573  0
H  H28  1  0.00833276  0.41017785  0.56621432  1  0  0.139756  0.123006  0  1.000368  0
H  H29  1  0.99167314  0.58984090  0.43379016  1  0  0.139721  0.122909  0  1.000503  0
H  H30  1  0.73422291  0.04618894  0.74095954  1  0  0.114856  0.101317  0  1.013911  0
H  H31  1  0.26578197  0.95382130  0.25904084  1  0  0.114903  0.101355  0  1.013827  0
H  H32  1  0.93927069  0.18904708  0.80598294  1  0  0.109255  0.088751  0  0.994537  0
H  H33  1  0.06073136  0.81095715  0.19401657  1  0  0.109255  0.088788  0  0.994518  0
H  H34  1  0.67366184  0.27212775  0.80097058  1  0  0.092572  0.096614  0  1.016009  0
H  H35  1  0.32634219  0.72787809  0.19903548  1  0  0.092557  0.09659  0  1.01599  0
H  H36  1  0.87702386  0.41145657  0.86813159  1  0  0.088656  0.079155  0  1.005816  0
H  H37  1  0.12297696  0.58854452  0.13187524  1  0  0.088672  0.079156  0  1.005811  0
H  H38  1  0.85593263  0.24368598  0.96540460  1  0  0.083078  0.068902  0  1.022459  0
H  H39  1  0.14406701  0.75630644  0.03459537  1  0  0.083038  0.068873  0  1.022444  0
H  H40  1  0.75995541  0.35731957  0.99439986  1  0  0.088639  0.081292  0  0.992999  0
H  H41  1  0.24004335  0.64267298  0.00560281  1  0  0.088665  0.081338  0  0.992928  0
H  H42  1  0.58614434  0.99287504  0.85057949  1  0  0.086918  0.087054  0  0.986967  0
H  H43  1  0.41386053  0.00711755  0.14942142  1  0  0.086891  0.087006  0  0.986966  0
H  H44  1  0.49961041  0.11471576  0.88790884  1  0  0.083025  0.074231  0  1.009184  0
H  H45  1  0.50038731  0.88527282  0.11208676  1  0  0.083023  0.07424  0  1.009256  0
H  H46  1  0.67130391  0.03604590  0.02552850  1  0  0.080436  0.063069  0  1.033216  0
H  H47  1  0.32869233  0.96395009  0.97447354  1  0  0.080427  0.063069  0  1.033206  0
H  H48  1  0.61082635  0.18014511  0.07279737  1  0  0.08685  0.07939  0  0.992131  0
H  H49  1  0.38916919  0.81985183  0.92720081  1  0  0.086844  0.079406  0  0.992177  0
H  H50  1  0.71339025  0.55983848  0.35258003  1  0  0.101782  0.108511  0  1.045702  0
H  H51  1  0.28660250  0.44016555  0.64741973  1  0  0.101799  0.108473  0  1.045848  0
H  H52  1  0.30606196  0.61662326  0.38326739  1  0  0.106499  0.125015  0  1.024721  0
H  H53  1  0.69392212  0.38337791  0.61672727  1  0  0.106435  0.124883  0  1.024955  0
H  H54  1  0.31212418  0.20483959  0.39467556  1  0  0.103593  0.11058  0  1.02981  0
H  H55  1  0.68787583  0.79517084  0.60533008  1  0  0.103633  0.110661  0  1.029639  0
H  H56  1  0.11701642  0.26637695  0.42332196  1  0  0.337975  0.370162  0  0.863786  0
H  H57  1  0.88298115  0.73363306  0.57667739  1  0  0.337913  0.370102  0  0.86374  0
C  C58  1  0.86011587  0.16566854  0.23559007  1  0  0.171739  0.092309  0  3.900089  0
C  C59  1  0.13989196  0.83434099  0.76441703  1  0  0.171752  0.092227  0  3.900178  0
C  C60  1  0.84213354  0.94255871  0.22076496  1  0  0.146874  0.128734  0  3.988642  0
C  C61  1  0.15786182  0.05744654  0.77923452  1  0  0.146839  0.12874  0  3.988443  0
C  C62  1  0.01709442  0.20689945  0.11308442  1  0  -0.044197  -0.09094  0  3.900861  0
C  C63  1  0.98291923  0.79311999  0.88692866  1  0  -0.044111  -0.090549  0  3.900624  0
C  C64  1  0.18272561  0.22972874  0.12001313  1  0  -0.167501  -0.167421  0  3.95538  0
C  C65  1  0.81728200  0.77027600  0.87999282  1  0  -0.167454  -0.167311  0  3.955362  0
C  C66  1  0.27463611  0.35378987  0.08274003  1  0  -0.170403  -0.145516  0  3.959022  0
C  C67  1  0.72536919  0.64619529  0.91725438  1  0  -0.17055  -0.145694  0  3.959083  0
C  C68  1  0.43724944  0.37397952  0.07770699  1  0  -0.168783  -0.142608  0  3.938905  0
C  C69  1  0.56274300  0.62597877  0.92227643  1  0  -0.168771  -0.142664  0  3.93888  0
C  C70  1  0.53559165  0.51302157  0.05265641  1  0  -0.167601  -0.140857  0  3.944036  0
C  C71  1  0.46441382  0.48692747  0.94732466  1  0  -0.167258  -0.140488  0  3.943525  0
C  C72  1  0.75018508  0.10148037  0.58490585  1  0  0.168544  0.10023  0  3.869433  0
C  C73  1  0.24981646  0.89853122  0.41509878  1  0  0.16851  0.100201  0  3.869162  0
C  C74  1  0.93431882  0.31949446  0.58919711  1  0  0.1489  0.142825  0  3.954729  0
C  C75  1  0.06568413  0.68052438  0.41080998  1  0  0.14894  0.142928  0  3.954924  0
C  C76  1  0.82718198  0.17333202  0.76932314  1  0  -0.049369  -0.090658  0  3.869583  0
C  C77  1  0.17282131  0.82667472  0.23067837  1  0  -0.049385  -0.090764  0  3.86968  0
C  C78  1  0.78143418  0.28580226  0.84257837  1  0  -0.165471  -0.169892  0  3.932393  0
C  C79  1  0.21856709  0.71419992  0.15742671  1  0  -0.165425  -0.169764  0  3.932276  0
C  C80  1  0.75530953  0.25193382  0.93434516  1  0  -0.163907  -0.130904  0  3.928367  0
C  C81  1  0.24468972  0.74805987  0.06565646  1  0  -0.163939  -0.130992  0  3.928197  0
C  C82  1  0.59873903  0.10008838  0.91372613  1  0  -0.168695  -0.143844  0  3.92397  0
C  C83  1  0.40126374  0.89990643  0.08627319  1  0  -0.168683  -0.143803  0  3.923902  0
C  C84  1  0.58219471  0.06768876  0.00677241  1  0  -0.170055  -0.152453  0  3.963777  0
C  C85  1  0.41780498  0.93230828  0.99322596  1  0  -0.170042  -0.152461  0  3.963718  0
C  C86  1  0.52005756  0.37030048  0.37072405  1  0  -0.021327  -0.013577  0  4.018914  0
C  C87  1  0.47994031  0.62971213  0.62927931  1  0  -0.021379  -0.013526  0  4.018757  0
C  C88  1  0.59405571  0.51407266  0.36105857  1  0  -0.092029  -0.150655  0  3.979901  0
C  C89  1  0.40593251  0.48593090  0.63893479  1  0  -0.091918  -0.15045  0  3.98005  0
C  C90  1  0.51689851  0.60220999  0.36508873  1  0  -0.018914  -0.009369  0  3.993983  0
C  C91  1  0.48308012  0.39779243  0.63490938  1  0  -0.019027  -0.009579  0  3.994095  0
C  C92  1  0.36488825  0.54655542  0.37824250  1  0  -0.093149  -0.197569  0  3.891099  0
C  C93  1  0.63509199  0.45343518  0.62175421  1  0  -0.09309  -0.197391  0  3.891078  0
C  C94  1  0.29215619  0.40380529  0.38945348  1  0  0.077654  0.305677  0  4.093861  0
C  C95  1  0.70783266  0.59619039  0.61054615  1  0  0.077653  0.305672  0  4.093755  0
C  C96  1  0.36860092  0.31497193  0.38470368  1  0  -0.100302  -0.240658  0  3.982511  0
C  C97  1  0.63139734  0.68502861  0.61529479  1  0  -0.10033  -0.240762  0  3.982273  0
C  C98  1  0.60863106  0.28274306  0.37166979  1  0  0.199546  0.560945  0  4.215472  0
C  C99  1  0.39136539  0.71726684  0.62832813  1  0  0.199417  0.560645  0  4.215767  0
C  C100  1  0.60700688  0.76327247  0.36356719  1  0  0.191631  0.551845  0  4.230998  0
C  C101  1  0.39297891  0.23673396  0.63643624  1  0  0.191556  0.551665  0  4.231479  0
N  N102  1  0.80061588  0.05481785  0.27067106  1  0  -0.352547  -0.324399  0  3.601  0
N  N103  1  0.19938222  0.94518648  0.72933169  1  0  -0.35257  -0.324467  0  3.600985  0
N  N104  1  0.93257233  0.12029908  0.16792035  1  0  -0.135248  0.167434  0  3.747248  0
N  N105  1  0.06743434  0.87971030  0.83208463  1  0  -0.135281  0.167352  0  3.747335  0
N  N106  1  0.92266330  0.97810488  0.15709195  1  0  -0.220262  -0.258885  0  3.097081  0
N  N107  1  0.07733480  0.02189945  0.84291080  1  0  -0.220227  -0.258854  0  3.097059  0
N  N108  1  0.80367788  0.17257278  0.52507130  1  0  -0.349699  -0.320485  0  3.559172  0
N  N109  1  0.19632483  0.82744354  0.47493315  1  0  -0.349715  -0.320598  0  3.559458  0
N  N110  1  0.96300867  0.34123286  0.68444562  1  0  -0.229092  -0.277291  0  3.062697  0
N  N111  1  0.03699333  0.65877755  0.31555875  1  0  -0.22908  -0.277265  0  3.062788  0
N  N112  1  0.84488345  0.20093079  0.67970735  1  0  -0.130874  0.178186  0  3.724361  0
N  N113  1  0.15511485  0.79908060  0.32029507  1  0  -0.130885  0.178126  0  3.724425  0
O  O114  1  0.52800466  0.13832960  0.36595320  1  0  -0.332927  -0.561624  0  2.318546  0
O  O115  1  0.47200634  0.86168857  0.63405947  1  0  -0.332888  -0.561572  0  2.318593  0
O  O116  1  0.75375464  0.34892735  0.37822792  1  0  -0.314509  -0.544333  0  2.179041  0
O  O117  1  0.24624143  0.65109067  0.62176786  1  0  -0.314415  -0.544164  0  2.179189  0
O  O118  1  0.75294427  0.82371303  0.37285103  1  0  -0.336135  -0.561153  0  2.126624  0
O  O119  1  0.24704467  0.17630038  0.62714945  1  0  -0.336108  -0.561035  0  2.126804  0
O  O120  1  0.52755446  0.83463318  0.35570836  1  0  -0.339701  -0.564705  0  2.28939  0
O  O121  1  0.47243363  0.16537582  0.64429781  1  0  -0.33958  -0.564539  0  2.28954  0
O  O122  1  0.14536457  0.35562837  0.40532796  1  0  -0.346775  -0.44357  0  2.307507  0
O  O123  1  0.85462808  0.64437099  0.59467271  1  0  -0.346722  -0.443513  0  2.307458  0
