# generated using pymatgen
data_Tb2CuH26C22(NO11)2
_symmetry_space_group_name_H-M   'P 1'
_cell_length_a   6.07224954
_cell_length_b   8.94919267
_cell_length_c   13.48513351
_cell_angle_alpha   85.47540391
_cell_angle_beta   85.82066837
_cell_angle_gamma   87.85257629
_symmetry_Int_Tables_number   1
_chemical_formula_structural   Tb2CuH26C22(NO11)2
_chemical_formula_sum   'Tb2 Cu1 H26 C22 N2 O22'
_cell_volume   728.20824240
_cell_formula_units_Z   1
loop_
 _symmetry_equiv_pos_site_id
 _symmetry_equiv_pos_as_xyz
  1  'x, y, z'
loop_
 _atom_site_type_symbol
 _atom_site_label
 _atom_site_symmetry_multiplicity
 _atom_site_fract_x
 _atom_site_fract_y
 _atom_site_fract_z
 _atom_site_occupancy
 _atom_site_hle17_ddec_charge
 _atom_site_hle17_ddec_spin_density
 _atom_site_hle17_ddec_sum_bond_order
 _atom_site_hle17_magmom
 _atom_site_hse06_10hf_ddec_charge
 _atom_site_hse06_10hf_ddec_spin_density
 _atom_site_hse06_10hf_ddec_sum_bond_order
 _atom_site_hse06_10hf_magmom
 _atom_site_hse06_ddec_charge
 _atom_site_hse06_ddec_spin_density
 _atom_site_hse06_ddec_sum_bond_order
 _atom_site_hse06_magmom
 _atom_site_pbe_cm5_charge
 _atom_site_pbe_ddec_charge
 _atom_site_pbe_ddec_spin_density
 _atom_site_pbe_ddec_sum_bond_order
 _atom_site_pbe_magmom
Tb  Tb0  1  0.60839540  0.34490827  0.89281029  1  2.274879  5.6e-05  1.548068  0.0  2.120446  4.8e-05  2.008158  0.0  2.244357  2.3e-05  1.825347  0.0  1.478847  2.085022  7.9e-05  2.038007  0.0
Tb  Tb1  1  0.39160605  0.65509629  0.10718749  1  2.274831  5.6e-05  1.548141  0.0  2.120364  4.6e-05  2.008258  0.0  2.244285  2.4e-05  1.82542  0.0  1.478819  2.084933  7.9e-05  2.038106  0.0
Cu  Cu2  1  0.00000505  0.99998997  0.50000096  1  0.838503  0.694109  1.843706  0.514  0.801721  0.775935  2.248479  0.622  0.890894  0.838007  2.179515  0.703  0.753086  0.746509  0.731687  2.296386  0.569
H  H3  1  0.94647340  0.22283799  0.74914737  1  0.433133  5.3e-05  0.872175  0.0  0.402061  4.1e-05  0.935054  0.0  0.414437  4e-05  0.91739  0.0  0.293411  0.393402  4.2e-05  0.947528  0.0
H  H4  1  0.05352653  0.77716289  0.25085650  1  0.433314  5.4e-05  0.871947  0.0  0.402257  4.1e-05  0.934798  0.0  0.414638  4e-05  0.917127  0.0  0.293501  0.393596  4.2e-05  0.947273  0.0
H  H5  1  0.08816778  0.19774505  0.84895849  1  0.434443  -3e-06  0.861148  0.0  0.408416  -2e-06  0.916321  0.0  0.419331  -1e-06  0.900521  0.0  0.304072  0.401013  -2e-06  0.927156  0.0
H  H6  1  0.91183524  0.80226261  0.15104361  1  0.434453  -3e-06  0.861146  0.0  0.408439  -2e-06  0.916306  0.0  0.419337  -1e-06  0.900529  0.0  0.304061  0.401033  -2e-06  0.927145  0.0
H  H7  1  0.40303092  0.09118315  0.81066731  1  0.43502  1.3e-05  0.871746  0.0  0.403163  4.5e-05  0.93819  0.0  0.413535  1.4e-05  0.923531  0.0  0.302004  0.395627  8e-05  0.949082  0.0
H  H8  1  0.59696562  0.90882012  0.18933438  1  0.434909  1.2e-05  0.871894  0.0  0.403056  4.5e-05  0.938338  0.0  0.413426  1.4e-05  0.923683  0.0  0.30196  0.39552  8e-05  0.949228  0.0
H  H9  1  0.34444848  0.03951225  0.92419655  1  0.440613  -3e-06  0.856311  0.0  0.411145  -4e-06  0.917538  0.0  0.422816  -3e-06  0.900713  0.0  0.299801  0.402834  -5e-06  0.929586  0.0
H  H10  1  0.65554635  0.96049332  0.07580440  1  0.440664  -4e-06  0.85623  0.0  0.411111  -4e-06  0.917588  0.0  0.422781  -4e-06  0.900765  0.0  0.299775  0.402798  -5e-06  0.929636  0.0
H  H11  1  0.19657584  0.53012045  0.89852053  1  0.43943  -0.0  0.86336  0.0  0.407283  -1e-06  0.929168  0.0  0.418031  -1e-06  0.914014  0.0  0.306095  0.399497  -1e-06  0.940358  0.0
H  H12  1  0.80342708  0.46988982  0.10147482  1  0.439469  -1e-06  0.863304  0.0  0.407267  -1e-06  0.929197  0.0  0.418016  -1e-06  0.914042  0.0  0.306091  0.39948  -1e-06  0.94039  0.0
H  H13  1  0.15695307  0.41512331  0.81959568  1  0.444222  -2e-06  0.839768  0.0  0.41883  0.0  0.895624  0.0  0.429418  -1e-06  0.88013  0.0  0.310991  0.411463  0.0  0.906632  0.0
H  H14  1  0.84304827  0.58488466  0.18040127  1  0.444183  -1e-06  0.839849  0.0  0.418782  0.0  0.895694  0.0  0.429369  -1e-06  0.880201  0.0  0.31097  0.411413  0.0  0.906704  0.0
H  H15  1  0.71996416  0.41188378  0.47130852  1  0.105831  0.000109  0.916629  0.0  0.121031  -5.4e-05  0.965116  0.0  0.123495  -6.3e-05  0.964133  0.0  0.117068  0.119077  -4.9e-05  0.966153  0.0
H  H16  1  0.28002924  0.58811407  0.52869046  1  0.105891  0.000107  0.916611  0.0  0.121052  -5.4e-05  0.965134  0.0  0.123516  -6.2e-05  0.964153  0.0  0.11708  0.119103  -4.9e-05  0.966172  0.0
H  H17  1  0.47354219  0.42097078  0.32929427  1  0.129467  0.000452  0.952362  0.001  0.135436  0.000412  1.014551  0.0  0.139534  0.000307  1.01275  0.0  0.11961  0.132376  0.000501  1.015985  0.001
H  H18  1  0.52643987  0.57902035  0.67070675  1  0.129467  0.000454  0.952377  0.001  0.13547  0.000412  1.014551  0.0  0.139569  0.000307  1.012748  0.0  0.119644  0.132411  0.000501  1.015986  0.001
H  H19  1  0.15075197  0.25133307  0.34333517  1  0.101297  0.000893  0.939393  0.002  0.108688  0.000782  1.003166  0.002  0.111825  0.000571  0.999534  0.001  0.126463  0.106169  0.000948  1.005977  0.002
H  H20  1  0.84924690  0.74864869  0.65667075  1  0.101376  0.000897  0.93949  0.002  0.108761  0.000782  1.00324  0.002  0.111896  0.000572  0.999605  0.001  0.126506  0.106247  0.000948  1.006046  0.002
H  H21  1  0.92422318  0.04480602  0.17130158  1  0.103799  -2.6e-05  0.962034  0.0  0.117705  -7e-06  1.021809  0.0  0.12077  -5e-06  1.019743  0.0  0.102764  0.115788  -5e-06  1.022794  0.0
H  H22  1  0.07576819  0.95520413  0.82869786  1  0.103757  -2.3e-05  0.961927  0.0  0.117763  -7e-06  1.021624  0.0  0.120772  -4e-06  1.019626  0.0  0.102745  0.115864  -5e-06  1.022595  0.0
H  H23  1  0.88610820  0.22830905  0.20833200  1  0.129852  9.3e-05  0.910791  0.0  0.143639  9.3e-05  0.969412  0.0  0.147347  6.5e-05  0.966057  0.0  0.112621  0.141053  0.000122  0.971632  0.0
H  H24  1  0.11389455  0.77170687  0.79166245  1  0.129883  8.9e-05  0.910741  0.0  0.143642  9.3e-05  0.969442  0.0  0.147351  6.5e-05  0.966081  0.0  0.112633  0.141057  0.000123  0.971669  0.0
H  H25  1  0.28101493  0.13075704  0.20600897  1  0.129575  -4.5e-05  0.927813  0.0  0.144077  -2.5e-05  0.98572  0.0  0.146892  -2.4e-05  0.984195  0.0  0.112796  0.142225  -2.6e-05  0.986537  0.0
H  H26  1  0.71898314  0.86924991  0.79398663  1  0.129512  -4.4e-05  0.927862  0.0  0.144055  -2.5e-05  0.985695  0.0  0.146871  -2.4e-05  0.984167  0.0  0.112774  0.142205  -2.6e-05  0.986512  0.0
H  H27  1  0.28551769  0.11781665  0.07636038  1  0.109337  5e-06  0.946647  0.0  0.122571  4e-06  1.007935  0.0  0.12512  2e-06  1.007128  0.0  0.106353  0.120583  5e-06  1.008982  0.0
H  H28  1  0.71447701  0.88219261  0.92363453  1  0.1094  7e-06  0.946542  0.0  0.122631  4e-06  1.007818  0.0  0.125185  2e-06  1.00701  0.0  0.106345  0.120642  5e-06  1.008862  0.0
C  C29  1  0.36102498  0.14332854  0.55731465  1  0.068589  -0.00691  3.717455  -0.004  0.063526  -0.002029  3.962394  -0.001  0.067225  -0.003329  3.981774  -0.002  0.107655  0.060612  -0.001045  3.949747  0.0
C  C30  1  0.63898197  0.85665889  0.44268863  1  0.068775  -0.006904  3.717098  -0.004  0.063659  -0.002028  3.962131  -0.001  0.06736  -0.003332  3.981504  -0.002  0.107635  0.060747  -0.001045  3.949485  0.0
C  C31  1  0.53263380  0.24216103  0.55956410  1  -0.076871  0.004185  3.680984  0.004  -0.064582  0.001705  3.923537  0.002  -0.072044  0.001685  3.941412  0.002  0.006534  -0.061401  0.001708  3.91295  0.002
C  C32  1  0.46736974  0.75782986  0.44043771  1  -0.076845  0.004182  3.680765  0.004  -0.064589  0.001704  3.923405  0.002  -0.07205  0.001685  3.941275  0.002  0.006556  -0.061399  0.001708  3.912824  0.002
C  C33  1  0.57893826  0.33950802  0.47458145  1  -0.010044  -0.010383  3.678713  -0.006  -0.038075  -0.004369  3.93117  -0.002  -0.033291  -0.004908  3.946599  -0.003  -0.055433  -0.042161  -0.003901  3.921529  -0.002
C  C34  1  0.42105536  0.66048294  0.52542068  1  -0.010368  -0.010374  3.678902  -0.006  -0.038336  -0.004367  3.931409  -0.002  -0.033557  -0.004909  3.946843  -0.003  -0.055544  -0.042427  -0.003901  3.921777  -0.002
C  C35  1  0.44364197  0.34451209  0.39540459  1  -0.082603  0.008234  3.65729  0.009  -0.098535  0.003905  3.912846  0.005  -0.103226  0.003515  3.927891  0.004  -0.065871  -0.094271  0.004182  3.901614  0.005
C  C36  1  0.55635004  0.65547769  0.60459911  1  -0.082452  0.008222  3.657393  0.009  -0.098455  0.003904  3.912958  0.005  -0.103144  0.003515  3.928002  0.004  -0.065918  -0.094192  0.004183  3.901733  0.005
C  C37  1  0.26567354  0.24933511  0.40170242  1  0.149342  -0.009241  3.637894  -0.006  0.116265  -0.002618  3.898404  -0.002  0.127198  -0.004208  3.912575  -0.003  0.060388  0.109157  -0.001353  3.888434  -0.001
C  C38  1  0.73432859  0.75064786  0.59830114  1  0.14913  -0.00923  3.638218  -0.006  0.116068  -0.00262  3.898699  -0.002  0.127005  -0.004207  3.912865  -0.003  0.060291  0.108961  -0.001352  3.888736  -0.001
C  C39  1  0.31424458  0.01622789  0.63507886  1  0.616789  -0.006774  3.894217  -0.006  0.567946  -0.000953  4.198293  -0.001  0.603493  -0.001168  4.192561  -0.001  0.212036  0.543846  -0.000864  4.201099  -0.001
C  C40  1  0.68575738  0.98376061  0.36492603  1  0.616725  -0.006774  3.893881  -0.006  0.567825  -0.000954  4.198085  -0.001  0.603368  -0.001167  4.192356  -0.001  0.212031  0.543729  -0.000864  4.200881  -0.001
C  C41  1  0.66555007  0.24718385  0.64938528  1  0.697734  0.000723  3.896823  0.001  0.645307  0.000608  4.201759  0.001  0.681863  0.000337  4.192259  0.0  0.22489  0.621147  0.000959  4.208182  0.001
C  C42  1  0.33445669  0.75280942  0.35061338  1  0.697901  0.000724  3.896579  0.001  0.645454  0.000608  4.201568  0.001  0.682012  0.000336  4.19207  0.0  0.224957  0.621276  0.000959  4.208016  0.001
C  C43  1  0.84924363  0.21185179  0.05482722  1  0.717101  -2e-06  3.788128  0.0  0.670849  -6e-06  4.080692  0.0  0.70312  -6e-06  4.080082  0.0  0.2125  0.648293  5e-06  4.08481  0.0
C  C44  1  0.15075273  0.78815729  0.94517060  1  0.717099  2e-06  3.788118  0.0  0.670875  -5e-06  4.080701  0.0  0.703143  -4e-06  4.080088  0.0  0.21249  0.648316  5e-06  4.084823  0.0
C  C45  1  0.95995544  0.16150501  0.14860860  1  -0.237308  3e-05  3.650467  0.0  -0.276524  5.5e-05  3.896895  0.0  -0.280457  2.9e-05  3.900669  0.0  -0.161924  -0.273464  7.9e-05  3.893219  0.0
C  C46  1  0.04004253  0.83850530  0.85138691  1  -0.237236  2.4e-05  3.650231  0.0  -0.276632  5.5e-05  3.896845  0.0  -0.280521  2.8e-05  3.900638  0.0  -0.161902  -0.273587  7.9e-05  3.89317  0.0
C  C47  1  0.21042416  0.17997823  0.13753282  1  -0.24105  -3.3e-05  3.630385  0.0  -0.280212  -2.5e-05  3.878041  0.0  -0.28493  -1.8e-05  3.882661  0.0  -0.157295  -0.276496  -1.7e-05  3.873944  0.0
C  C48  1  0.78957557  0.82002871  0.86246273  1  -0.241159  -2.6e-05  3.630515  0.0  -0.280316  -2.2e-05  3.878113  0.0  -0.285037  -1.8e-05  3.88272  0.0  -0.157311  -0.276598  -1.6e-05  3.874018  0.0
C  C49  1  0.27701771  0.34101782  0.12270048  1  0.754606  1e-05  3.799923  0.0  0.709407  4e-06  4.097022  0.0  0.74397  7e-06  4.094556  0.0  0.218967  0.68573  1e-05  4.103381  0.0
C  C50  1  0.72298034  0.65899016  0.87729657  1  0.754714  7e-06  3.800003  0.0  0.709619  4e-06  4.096926  0.0  0.744181  7e-06  4.094447  0.0  0.219051  0.685941  1.1e-05  4.10329  0.0
N  N51  1  0.23175906  0.14875352  0.47968226  1  -0.303091  0.070391  3.380178  0.091  -0.261659  0.049016  3.682167  0.067  -0.290392  0.040567  3.702303  0.059  -0.350688  -0.243356  0.053564  3.669276  0.07
N  N52  1  0.76824473  0.85122936  0.52032273  1  -0.303126  0.070378  3.380242  0.091  -0.261573  0.049016  3.682108  0.067  -0.290306  0.040566  3.702241  0.059  -0.350596  -0.243271  0.05356  3.669223  0.07
O  O53  1  0.16177415  0.92808016  0.61687747  1  -0.567916  0.086428  2.063294  0.12  -0.540787  0.058281  2.349532  0.088  -0.583535  0.044951  2.34396  0.073  -0.313667  -0.512575  0.067008  2.353702  0.096
O  O54  1  0.83823620  0.07190404  0.38312281  1  -0.567866  0.086433  2.0631  0.12  -0.540778  0.058281  2.349408  0.088  -0.58353  0.044952  2.343845  0.073  -0.313662  -0.512561  0.067011  2.353561  0.096
O  O55  1  0.95980475  0.25174463  0.82001261  1  -0.940489  7.5e-05  1.92362  0.0  -0.881903  3.2e-05  2.110271  0.0  -0.912521  2.2e-05  2.071647  0.0  -0.633144  -0.867015  5.2e-05  2.133155  0.0
O  O56  1  0.04019999  0.74826082  0.17998875  1  -0.940666  7.3e-05  1.92345  0.0  -0.882131  3.2e-05  2.110113  0.0  -0.912715  2.2e-05  2.071466  0.0  -0.633212  -0.867245  5.2e-05  2.132998  0.0
O  O57  1  0.42726590  0.99795418  0.70959820  1  -0.587411  0.013372  1.997774  0.018  -0.538356  0.006828  2.222341  0.01  -0.564227  0.003095  2.215303  0.005  -0.296905  -0.51915  0.010968  2.225662  0.015
O  O58  1  0.57273273  0.00203529  0.29040974  1  -0.587276  0.013376  1.997648  0.018  -0.538218  0.006829  2.222284  0.01  -0.564087  0.003095  2.215246  0.005  -0.296882  -0.519017  0.010969  2.225601  0.015
O  O59  1  0.36822612  0.13187270  0.87754823  1  -0.922882  5.4e-05  1.892033  0.0  -0.869982  3.8e-05  2.085611  0.0  -0.900466  4e-06  2.049124  0.0  -0.618779  -0.855455  7.6e-05  2.109004  0.0
O  O60  1  0.63177201  0.86813283  0.12245260  1  -0.922875  5.6e-05  1.892098  0.0  -0.869888  3.9e-05  2.085742  0.0  -0.900376  4e-06  2.049259  0.0  -0.618725  -0.855361  7.6e-05  2.109131  0.0
O  O61  1  0.27394517  0.47019648  0.84646501  1  -0.905485  4e-06  1.868038  0.0  -0.8621  1e-05  2.06724  0.0  -0.890326  6e-06  2.029554  0.0  -0.647275  -0.848805  2.5e-05  2.089524  0.0
O  O62  1  0.72605625  0.52980924  0.15353200  1  -0.905441  4e-06  1.868002  0.0  -0.862036  1.1e-05  2.06728  0.0  -0.890271  6e-06  2.029598  0.0  -0.647249  -0.84874  2.5e-05  2.089564  0.0
O  O63  1  0.86334932  0.19806073  0.64257927  1  -0.612672  -0.000159  1.971191  0.001  -0.571583  -0.000676  2.203311  0.0  -0.598928  -0.00105  2.191947  0.0  -0.302033  -0.552443  -0.00025  2.21048  0.001
O  O64  1  0.13665414  0.80193245  0.35742174  1  -0.612804  -0.000159  1.971062  0.001  -0.571716  -0.000676  2.203219  0.0  -0.59907  -0.00105  2.191858  0.0  -0.302074  -0.55257  -0.000251  2.210394  0.001
O  O65  1  0.56867529  0.30913310  0.72332461  1  -0.72662  0.001304  2.028653  0.002  -0.668095  0.000845  2.277834  0.001  -0.704906  0.000516  2.264836  0.001  -0.397809  -0.649157  0.001199  2.283892  0.001
O  O66  1  0.43132486  0.69086026  0.27667352  1  -0.726648  0.001303  2.028676  0.002  -0.668089  0.000845  2.277848  0.001  -0.704906  0.000517  2.264853  0.001  -0.397829  -0.649137  0.001199  2.283892  0.001
O  O67  1  0.72341586  0.12657755  0.01408249  1  -0.70034  1.2e-05  1.984241  0.0  -0.643589  8e-06  2.21737  0.0  -0.676976  1e-06  2.208427  0.0  -0.346109  -0.625142  8e-06  2.223326  0.0
O  O68  1  0.27657713  0.87343375  0.98591612  1  -0.700305  1e-05  1.984155  0.0  -0.643547  7e-06  2.217231  0.0  -0.676955  1e-06  2.208321  0.0  -0.346145  -0.625103  8e-06  2.223189  0.0
O  O69  1  0.87902051  0.34576923  0.01592078  1  -0.697843  7e-06  2.022279  0.0  -0.631635  5e-06  2.251023  0.0  -0.664989  0.0  2.24182  0.0  -0.36439  -0.613163  1.1e-05  2.255863  0.0
O  O70  1  0.12098077  0.65424093  0.98407685  1  -0.697793  8e-06  2.02242  0.0  -0.631619  7e-06  2.251157  0.0  -0.664932  0.0  2.241886  0.0  -0.364341  -0.613146  1.1e-05  2.255991  0.0
O  O71  1  0.40549837  0.38472430  0.04700632  1  -0.823501  -4e-06  2.145264  0.0  -0.763772  1e-06  2.409505  0.0  -0.807542  -0.0  2.399856  0.0  -0.426291  -0.744494  3e-06  2.414563  0.0
O  O72  1  0.59450284  0.61528806  0.95299199  1  -0.823589  -3e-06  2.145335  0.0  -0.763868  -0.0  2.409487  0.0  -0.807649  -1e-06  2.39986  0.0  -0.42633  -0.744584  3e-06  2.414536  0.0
O  O73  1  0.21164620  0.43426428  0.18581845  1  -0.698218  2.4e-05  1.931345  0.0  -0.647189  3.4e-05  2.169962  0.0  -0.680392  2.3e-05  2.158449  0.0  -0.374746  -0.629554  3.9e-05  2.175615  0.0
O  O74  1  0.78835515  0.56574364  0.81417924  1  -0.698225  1.9e-05  1.931259  0.0  -0.647288  3.3e-05  2.169878  0.0  -0.680498  2.4e-05  2.158384  0.0  -0.374786  -0.629656  3.9e-05  2.175538  0.0
