# generated using pymatgen
data_MnH7C6N9O
_symmetry_space_group_name_H-M   'P 1'
_cell_length_a   9.52524527
_cell_length_b   10.27712135
_cell_length_c   10.87845414
_cell_angle_alpha   100.01224768
_cell_angle_beta   90.01371378
_cell_angle_gamma   89.99789372
_symmetry_Int_Tables_number   1
_chemical_formula_structural   MnH7C6N9O
_chemical_formula_sum   'Mn4 H28 C24 N36 O4'
_cell_volume   1048.69670632
_cell_formula_units_Z   4
loop_
 _symmetry_equiv_pos_site_id
 _symmetry_equiv_pos_as_xyz
  1  'x, y, z'
loop_
 _atom_site_type_symbol
 _atom_site_label
 _atom_site_symmetry_multiplicity
 _atom_site_fract_x
 _atom_site_fract_y
 _atom_site_fract_z
 _atom_site_occupancy
 _atom_site_hle17_ddec_charge
 _atom_site_hle17_ddec_spin_density
 _atom_site_hle17_ddec_sum_bond_order
 _atom_site_hle17_magmom
 _atom_site_hse06_10hf_ddec_charge
 _atom_site_hse06_10hf_ddec_spin_density
 _atom_site_hse06_10hf_ddec_sum_bond_order
 _atom_site_hse06_10hf_magmom
 _atom_site_hse06_ddec_charge
 _atom_site_hse06_ddec_spin_density
 _atom_site_hse06_ddec_sum_bond_order
 _atom_site_hse06_magmom
 _atom_site_pbe_cm5_charge
 _atom_site_pbe_ddec_charge
 _atom_site_pbe_ddec_spin_density
 _atom_site_pbe_ddec_sum_bond_order
 _atom_site_pbe_magmom
Mn  Mn0  1  0.87814771  0.87612705  0.47464720  1  0.9872  -4.720869  2.157568  -4.572  0.841695  -4.583781  2.694995  -4.388  0.892405  -4.683586  2.632542  -4.494  0.658223  0.7995  -4.469343  2.744429  -4.268
Mn  Mn1  1  0.37817991  0.62383902  0.52529645  1  0.987161  -4.721158  2.157693  -4.571  0.8418  -4.583795  2.695001  -4.388  0.892436  -4.683668  2.632675  -4.494  0.658135  0.799613  -4.469314  2.744414  -4.268
Mn  Mn2  1  0.12181539  0.12382375  0.52526580  1  0.987181  4.721351  2.157994  4.571  0.841743  4.583791  2.695408  4.388  0.892376  4.683688  2.633083  4.494  0.658183  0.799562  4.469281  2.744829  4.268
Mn  Mn3  1  0.62187558  0.37609384  0.47457933  1  0.987246  4.720735  2.157092  4.572  0.841815  4.58387  2.694358  4.388  0.892513  4.683629  2.631947  4.494  0.658047  0.799617  4.469479  2.74378  4.268
H  H4  1  0.56470376  0.91606632  0.35745820  1  0.081546  0.000415  0.947178  0.0  0.085869  0.000307  1.017971  0.0  0.087801  0.000383  1.016736  0.0  0.120614  0.084189  0.000224  1.019353  0.0
H  H5  1  0.06465522  0.58391306  0.64251580  1  0.081498  0.000414  0.946729  0.0  0.08588  0.000306  1.017496  0.0  0.087754  0.000381  1.016309  0.0  0.120605  0.084204  0.000223  1.018872  0.0
H  H6  1  0.43529085  0.08394818  0.64254209  1  0.081618  -0.000407  0.947054  0.0  0.085933  -0.000307  1.017857  0.0  0.087888  -0.000384  1.016596  0.0  0.120569  0.084257  -0.000225  1.019235  0.0
H  H7  1  0.93532889  0.41608754  0.35749304  1  0.081577  -0.000413  0.946561  0.0  0.08594  -0.000304  1.017364  0.0  0.087831  -0.000381  1.016159  0.0  0.120631  0.084259  -0.000221  1.018743  0.0
H  H8  1  0.57065875  0.67046588  0.99073069  1  0.086005  -6.1e-05  0.96969  0.0  0.088895  -0.000104  1.041053  0.0  0.092371  -8.2e-05  1.036525  0.0  0.1167  0.086045  -0.000113  1.044853  0.0
H  H9  1  0.07077446  0.82952757  0.00921171  1  0.085666  -7e-05  0.969859  0.0  0.088568  -0.000101  1.041239  0.0  0.09203  -8e-05  1.036721  0.0  0.116548  0.085743  -0.000111  1.045049  0.0
H  H10  1  0.42933796  0.32953642  0.00928188  1  0.085938  6.5e-05  0.969689  0.0  0.088776  0.000102  1.041135  0.0  0.092247  8.1e-05  1.036612  0.0  0.116591  0.085935  0.000111  1.044935  0.0
H  H11  1  0.92923064  0.17049331  0.99077636  1  0.085618  6.9e-05  0.969942  0.0  0.088583  0.000103  1.04122  0.0  0.092054  8e-05  1.03669  0.0  0.116564  0.085754  0.000112  1.045034  0.0
H  H12  1  0.43776197  0.82990715  0.15189406  1  0.121353  -0.00019  0.939089  0.0  0.132028  -0.000282  0.997299  0.0  0.13544  -0.00022  0.996331  0.0  0.117107  0.129977  -0.000364  0.997293  0.0
H  H13  1  0.93779512  0.67009169  0.84805898  1  0.121247  -0.000195  0.939516  0.0  0.132  -0.000283  0.997626  0.0  0.135415  -0.000219  0.996661  0.0  0.117129  0.129952  -0.000364  0.997615  0.0
H  H14  1  0.56224944  0.17009399  0.84811758  1  0.121321  0.000203  0.939249  0.0  0.132097  0.000282  0.997362  0.0  0.135509  0.000219  0.996395  0.0  0.117107  0.13005  0.000364  0.997352  0.0
H  H15  1  0.06219739  0.32991121  0.15195171  1  0.121311  0.000201  0.939683  0.0  0.132055  0.000282  0.997777  0.0  0.135469  0.00022  0.996814  0.0  0.11714  0.130005  0.000364  0.997773  0.0
H  H16  1  0.19281354  0.51867572  0.06515093  1  0.114871  -2.4e-05  0.953972  0.0  0.122222  -5.2e-05  1.031115  0.0  0.12465  -4.9e-05  1.028224  0.0  0.105987  0.120282  -3.8e-05  1.033525  0.0
H  H17  1  0.69286221  0.98135623  0.93487192  1  0.11471  -2.9e-05  0.954106  0.0  0.122143  -5.2e-05  1.031191  0.0  0.12457  -4.9e-05  1.0283  0.0  0.105911  0.120196  -3.7e-05  1.033614  0.0
H  H18  1  0.80717687  0.48134813  0.93486236  1  0.114727  2.8e-05  0.954107  0.0  0.122104  5.1e-05  1.031255  0.0  0.12453  4.9e-05  1.028367  0.0  0.105866  0.120157  3.7e-05  1.033668  0.0
H  H19  1  0.30712715  0.01864540  0.06513223  1  0.114789  2.8e-05  0.95399  0.0  0.12225  5.2e-05  1.03104  0.0  0.124679  4.9e-05  1.028146  0.0  0.105986  0.1203  3.8e-05  1.033467  0.0
H  H20  1  0.18021072  0.53901906  0.23302110  1  0.083359  0.000558  0.976003  0.0  0.096426  0.000607  1.049754  0.0  0.096486  0.000651  1.050327  0.0  0.099056  0.095949  0.000486  1.049887  0.0
H  H21  1  0.68022054  0.96097453  0.76698731  1  0.083386  0.000556  0.976014  0.0  0.096455  0.000603  1.04974  0.0  0.096549  0.000648  1.050277  0.0  0.099059  0.095959  0.000483  1.049885  0.0
H  H22  1  0.81976604  0.46097808  0.76698496  1  0.083432  -0.000556  0.976062  0.0  0.096487  -0.000606  1.049804  0.0  0.096582  -0.000651  1.050347  0.0  0.099112  0.095993  -0.000486  1.049943  0.0
H  H23  1  0.31979717  0.03900591  0.23301799  1  0.083344  -0.000561  0.975979  0.0  0.09647  -0.000604  1.049697  0.0  0.096545  -0.000648  1.05025  0.0  0.099058  0.095975  -0.000483  1.049843  0.0
H  H24  1  0.23075759  0.67608021  0.16204770  1  0.090541  0.000138  0.941634  0.0  0.106266  6.7e-05  1.009816  0.0  0.106056  0.000145  1.010557  0.0  0.101222  0.106485  -8e-06  1.008814  0.0
H  H25  1  0.73074718  0.82393286  0.83798517  1  0.090494  0.000127  0.941738  0.0  0.106243  6.6e-05  1.009915  0.0  0.106024  0.000145  1.010658  0.0  0.101219  0.106462  -9e-06  1.008911  0.0
H  H26  1  0.76926222  0.32395031  0.83797488  1  0.090536  -0.000135  0.942002  0.0  0.106234  -6.7e-05  1.010192  0.0  0.106026  -0.000146  1.010941  0.0  0.101187  0.106451  8e-06  1.009193  0.0
H  H27  1  0.26922539  0.17607829  0.16203292  1  0.090596  -0.000135  0.94145  0.0  0.106349  -6.6e-05  1.009629  0.0  0.106134  -0.000145  1.010362  0.0  0.101271  0.106573  9e-06  1.008628  0.0
H  H28  1  0.10668561  0.70910133  0.36156873  1  0.305989  0.000817  0.945194  -0.001  0.292386  0.000647  1.013567  -0.002  0.299145  0.000899  1.008996  -0.002  0.291269  0.287506  0.000337  1.016816  -0.002
H  H29  1  0.60666072  0.79089146  0.63845698  1  0.305793  0.000813  0.945353  -0.001  0.292146  0.000643  1.013828  -0.002  0.298905  0.000896  1.009258  -0.002  0.291116  0.287268  0.000332  1.017062  -0.002
H  H30  1  0.89331740  0.29089908  0.63843918  1  0.305993  -0.000816  0.945418  0.001  0.292375  -0.000647  1.013797  0.002  0.299134  -0.000899  1.009225  0.002  0.291284  0.287495  -0.000339  1.017046  0.002
H  H31  1  0.39332549  0.20907471  0.36155501  1  0.306069  -0.000813  0.944998  0.001  0.292501  -0.000644  1.013323  0.002  0.299263  -0.000898  1.008748  0.002  0.29126  0.28762  -0.000334  1.016577  0.002
C  C32  1  0.80879824  0.72916814  0.20725845  1  0.284343  -0.001038  3.756891  -0.001  0.269014  -0.003358  4.01207  -0.003  0.278952  -0.002624  4.026056  -0.002  0.253636  0.261817  -0.004354  4.00294  -0.004
C  C33  1  0.30882010  0.77083496  0.79273760  1  0.284155  -0.000896  3.756565  -0.001  0.269343  -0.003336  4.011196  -0.003  0.279269  -0.002593  4.02516  -0.002  0.253671  0.262157  -0.004328  4.002069  -0.004
C  C34  1  0.19118903  0.27083604  0.79274381  1  0.283982  0.000973  3.75708  0.001  0.269222  0.003342  4.011562  0.003  0.279173  0.002612  4.025507  0.002  0.253639  0.261948  0.004329  4.002553  0.004
C  C35  1  0.69119026  0.22916401  0.20724788  1  0.284019  0.000942  3.756047  0.001  0.269045  0.003367  4.010967  0.003  0.278987  0.002637  4.024947  0.002  0.253634  0.261852  0.004358  4.001833  0.004
C  C36  1  0.61332436  0.84830710  0.28091606  1  0.188289  -0.000919  3.648427  -0.001  0.151807  -0.002357  3.907624  -0.003  0.16159  -0.001786  3.923246  -0.002  0.072722  0.144473  -0.002351  3.898292  -0.003
C  C37  1  0.11330457  0.65168659  0.71907550  1  0.188079  -0.000833  3.648541  -0.001  0.151623  -0.002329  3.907675  -0.003  0.161459  -0.001758  3.923311  -0.002  0.072592  0.144297  -0.002322  3.898337  -0.003
C  C38  1  0.38665766  0.15171285  0.71909727  1  0.188009  0.000847  3.649444  0.001  0.151571  0.002315  3.908644  0.003  0.161331  0.001783  3.924269  0.002  0.072635  0.144248  0.002325  3.899297  0.003
C  C39  1  0.88670579  0.34831517  0.28091931  1  0.188272  0.000884  3.648147  0.001  0.151804  0.002338  3.907282  0.003  0.161632  0.001801  3.922922  0.002  0.07277  0.144479  0.00235  3.897933  0.003
C  C40  1  0.95614909  0.69304760  0.23499756  1  0.443194  -0.006608  3.803275  -0.006  0.398113  -0.01057  4.084134  -0.009  0.422971  -0.009247  4.087977  -0.008  0.247027  0.380748  -0.012147  4.081124  -0.01
C  C41  1  0.45614827  0.80695174  0.76498646  1  0.443485  -0.006617  3.803076  -0.006  0.398058  -0.010578  4.08417  -0.009  0.42296  -0.00925  4.087954  -0.008  0.247001  0.380669  -0.01215  4.081172  -0.01
C  C42  1  0.04385077  0.30696884  0.76500271  1  0.443461  0.006607  3.803361  0.006  0.398136  0.01055  4.084313  0.009  0.423001  0.009209  4.088133  0.008  0.246907  0.380782  0.012113  4.081319  0.01
C  C43  1  0.54384529  0.19304080  0.23500095  1  0.44408  0.006647  3.802486  0.006  0.398525  0.010602  4.083856  0.009  0.423406  0.009265  4.08768  0.008  0.247171  0.381145  0.012176  4.080856  0.011
C  C44  1  0.61868930  0.71450285  0.07921511  1  0.186968  -0.001019  3.662596  -0.001  0.156032  -0.0021  3.926376  -0.002  0.166106  -0.001916  3.938624  -0.002  0.073181  0.149163  -0.002384  3.918659  -0.002
C  C45  1  0.11878448  0.78551692  0.92074647  1  0.187199  -0.0009  3.662941  -0.001  0.156255  -0.002073  3.926859  -0.002  0.166332  -0.001898  3.939119  -0.002  0.073109  0.149365  -0.002363  3.919162  -0.002
C  C46  1  0.38130321  0.28551261  0.92080013  1  0.186902  0.000983  3.662323  0.001  0.155998  0.002067  3.926201  0.002  0.166069  0.001917  3.938456  0.002  0.073185  0.149127  0.002365  3.918478  0.002
C  C47  1  0.88121957  0.21449965  0.07924445  1  0.187054  0.000944  3.663314  0.001  0.156075  0.002087  3.927198  0.002  0.166152  0.001934  3.939458  0.002  0.073128  0.149176  0.002386  3.919511  0.002
C  C48  1  0.54496004  0.80144106  0.16914394  1  -0.1396  -6.1e-05  3.658389  0.0  -0.157538  -0.000264  3.914869  0.0  -0.166201  0.000121  3.933495  0.0  -0.069475  -0.152153  -0.000859  3.902544  -0.001
C  C49  1  0.04498578  0.69856621  0.83082471  1  -0.139451  -0.00014  3.659192  0.0  -0.157475  -0.000281  3.915652  0.0  -0.166148  0.000108  3.934275  0.0  -0.069416  -0.152095  -0.000873  3.903325  -0.001
C  C50  1  0.45505661  0.19856106  0.83085273  1  -0.139417  6.8e-05  3.658266  0.0  -0.15747  0.000298  3.914734  0.0  -0.166135  -0.00014  3.933371  0.0  -0.069398  -0.152089  0.000863  3.902406  0.001
C  C51  1  0.95502142  0.30144089  0.16916256  1  -0.139442  8e-05  3.659106  0.0  -0.157458  0.000296  3.91555  0.0  -0.16613  -0.000144  3.934174  0.0  -0.069439  -0.152079  0.000865  3.903233  0.001
C  C52  1  0.16584509  0.58653910  0.15092647  1  -0.088268  0.000171  3.595284  0.0  -0.18955  -3e-06  3.865359  0.001  -0.182101  0.000159  3.868653  0.001  -0.144887  -0.194831  -0.000237  3.863668  0.0
C  C53  1  0.66585514  0.91348665  0.84909451  1  -0.088091  0.000193  3.59563  0.0  -0.189479  -6e-06  3.865712  0.001  -0.182037  0.000156  3.868974  0.001  -0.144887  -0.194746  -0.000239  3.864026  0.0
C  C54  1  0.83416527  0.41349051  0.84909144  1  -0.088184  -0.000182  3.595745  0.0  -0.189466  2e-06  3.865708  -0.001  -0.182051  -0.000156  3.868985  -0.001  -0.144825  -0.194725  0.000236  3.86401  0.0
C  C55  1  0.33412582  0.08651722  0.15091616  1  -0.088103  -0.000167  3.594964  0.0  -0.189581  5e-06  3.865  -0.001  -0.182117  -0.000156  3.868269  -0.001  -0.144895  -0.194854  0.00024  3.863323  0.0
N  N56  1  0.80830970  0.73429752  0.58111693  1  -0.49224  0.044362  2.703125  0.062  -0.474182  0.032845  3.005873  0.052  -0.491998  0.041259  3.008481  0.061  -0.250213  -0.459927  0.027833  3.004472  0.047
N  N57  1  0.30835537  0.76573471  0.41886377  1  -0.491981  0.044488  2.702986  0.062  -0.473907  0.033001  3.005757  0.052  -0.491704  0.04137  3.00836  0.061  -0.250087  -0.459657  0.027982  3.004355  0.047
N  N58  1  0.19166916  0.26570646  0.41889935  1  -0.492076  -0.044473  2.703416  -0.062  -0.474087  -0.032977  3.00622  -0.052  -0.491882  -0.0414  3.00882  -0.061  -0.250179  -0.459833  -0.027956  3.004821  -0.047
N  N59  1  0.69166339  0.23427759  0.58115524  1  -0.492272  -0.044427  2.702674  -0.062  -0.474185  -0.032933  3.00528  -0.052  -0.491999  -0.041352  3.007892  -0.061  -0.250191  -0.459929  -0.027931  3.00388  -0.047
N  N60  1  0.03148564  0.95994367  0.61429113  1  -0.597178  0.000217  2.78397  0.004  -0.563337  -0.00097  3.113322  0.004  -0.594726  -0.000213  3.119929  0.004  -0.307009  -0.538198  -0.001564  3.108153  0.003
N  N61  1  0.53148241  0.54006794  0.38572235  1  -0.597368  0.00012  2.783886  0.004  -0.563448  -0.000973  3.113151  0.004  -0.594845  -0.000266  3.119751  0.004  -0.307231  -0.538285  -0.001588  3.107965  0.003
N  N62  1  0.96852262  0.04005723  0.38570930  1  -0.596978  -0.00013  2.783992  -0.004  -0.562967  0.000948  3.113179  -0.004  -0.59435  0.000257  3.119771  -0.004  -0.307109  -0.537827  0.001581  3.108016  -0.003
N  N63  1  0.46853110  0.45994069  0.61425275  1  -0.597241  -0.00018  2.784181  -0.004  -0.563483  0.000999  3.113592  -0.004  -0.594884  0.000256  3.120206  -0.004  -0.30727  -0.538324  0.001571  3.108415  -0.003
N  N64  1  0.74568342  0.81181864  0.30056221  1  -0.365776  -0.027964  3.202298  -0.018  -0.300486  -0.032041  3.463379  -0.019  -0.320929  -0.029304  3.479223  -0.016  -0.302623  -0.285991  -0.034137  3.453559  -0.021
N  N65  1  0.24564735  0.68816848  0.69944505  1  -0.365462  -0.028028  3.201599  -0.018  -0.300366  -0.032031  3.462382  -0.019  -0.320787  -0.029298  3.478208  -0.016  -0.302333  -0.285882  -0.034127  3.452557  -0.021
N  N66  1  0.25431538  0.18817577  0.69942985  1  -0.365642  0.027991  3.202239  0.018  -0.300583  0.03202  3.463094  0.019  -0.321014  0.029278  3.47895  0.016  -0.302568  -0.28607  0.034112  3.453289  0.021
N  N67  1  0.75437140  0.31181835  0.30053307  1  -0.365709  0.028039  3.202416  0.018  -0.300525  0.032055  3.463352  0.019  -0.320981  0.0293  3.479188  0.016  -0.302564  -0.28602  0.034152  3.453516  0.021
N  N68  1  0.80192651  0.61732717  0.56288564  1  0.41233  0.001556  4.193973  0.001  0.447962  0.000848  4.46928  0.001  0.46539  0.000883  4.499614  0.001  0.101071  0.43545  0.001436  4.447299  0.002
N  N69  1  0.30192841  0.88270195  0.43717792  1  0.412202  0.001561  4.193763  0.001  0.447743  0.00089  4.46923  0.001  0.465175  0.000917  4.499546  0.001  0.101079  0.435227  0.001488  4.447256  0.002
N  N70  1  0.19806811  0.38267910  0.43717739  1  0.412232  -0.001563  4.193676  -0.001  0.447912  -0.000887  4.468967  -0.001  0.465347  -0.000916  4.499279  -0.001  0.101259  0.435394  -0.001483  4.446996  -0.002
N  N71  1  0.69809035  0.11730061  0.56288608  1  0.412303  -0.001549  4.193683  -0.001  0.447945  -0.000872  4.468952  -0.001  0.465373  -0.000899  4.499282  -0.001  0.101238  0.435429  -0.001459  4.446983  -0.002
N  N72  1  0.79589552  0.50046679  0.54842491  1  -0.480013  -0.052792  2.646557  -0.069  -0.465902  -0.042925  2.942279  -0.06  -0.482778  -0.049418  2.945261  -0.066  -0.242832  -0.452262  -0.039857  2.940563  -0.056
N  N73  1  0.29585788  0.99955955  0.45168323  1  -0.480146  -0.052743  2.647125  -0.069  -0.465936  -0.042917  2.942918  -0.06  -0.482809  -0.049395  2.94589  -0.066  -0.243063  -0.452299  -0.039813  2.941226  -0.056
N  N74  1  0.20412324  0.49955146  0.45159966  1  -0.480042  0.052839  2.646503  0.069  -0.46602  0.043007  2.942375  0.06  -0.482883  0.049522  2.945326  0.066  -0.24318  -0.452379  0.039917  2.940681  0.057
N  N75  1  0.70413989  0.00044437  0.54835270  1  -0.48007  0.052721  2.646965  0.069  -0.465928  0.042883  2.942692  0.06  -0.482809  0.049398  2.945676  0.066  -0.243101  -0.45229  0.039802  2.940996  0.056
N  N76  1  0.75191633  0.67902274  0.09713734  1  -0.335081  -0.000614  3.006087  -0.001  -0.306338  -0.001219  3.270209  -0.001  -0.318349  -0.000661  3.281518  0.0  -0.299385  -0.298264  -0.001521  3.262637  -0.001
N  N77  1  0.25200099  0.82100247  0.90285685  1  -0.335253  -0.00072  3.006091  -0.001  -0.30662  -0.001221  3.270005  -0.001  -0.318644  -0.00067  3.281343  0.0  -0.299437  -0.298537  -0.001524  3.262424  -0.001
N  N78  1  0.24808248  0.32097373  0.90286032  1  -0.335162  0.000649  3.006642  0.001  -0.306582  0.001222  3.270605  0.001  -0.3186  0.000657  3.28191  0.0  -0.299479  -0.298475  0.001522  3.26305  0.001
N  N79  1  0.74801251  0.17900809  0.09711823  1  -0.334848  0.000692  3.006051  0.001  -0.306147  0.001214  3.270014  0.001  -0.318155  0.000651  3.281321  0.0  -0.299266  -0.298068  0.001519  3.262443  0.001
N  N80  1  0.00254548  0.98685425  0.72391685  1  0.396826  0.000114  4.211355  0.0  0.429113  -0.000493  4.495486  -0.001  0.445473  -0.000217  4.529836  -0.001  0.091091  0.417429  -0.000875  4.470693  -0.001
N  N81  1  0.50248810  0.51320670  0.27607977  1  0.396806  8.9e-05  4.211867  0.0  0.429107  -0.000485  4.495914  -0.001  0.445464  -0.000226  4.530261  -0.001  0.091238  0.417419  -0.000872  4.471124  -0.001
N  N82  1  0.99749113  0.01314501  0.27609014  1  0.396717  -0.000118  4.211384  0.0  0.429006  0.00052  4.495449  0.001  0.445361  0.00025  4.5298  0.001  0.091212  0.417322  0.000908  4.470665  0.001
N  N83  1  0.49747501  0.48679816  0.72390097  1  0.396685  -0.00013  4.212732  0.0  0.429006  0.000449  4.496866  0.001  0.44537  0.000191  4.531219  0.001  0.09121  0.41731  0.000824  4.472074  0.001
N  N84  1  0.97607877  0.01480711  0.82994345  1  -0.376036  -0.00706  2.417126  -0.007  -0.371414  -0.005034  2.64408  -0.004  -0.381799  -0.004966  2.656814  -0.004  -0.177189  -0.362757  -0.005813  2.635264  -0.005
N  N85  1  0.47603178  0.48522743  0.17005817  1  -0.375772  -0.006968  2.418289  -0.007  -0.371066  -0.005097  2.645136  -0.004  -0.381438  -0.004942  2.657867  -0.004  -0.177023  -0.362424  -0.005859  2.636334  -0.005
N  N86  1  0.02392634  0.98514754  0.17005929  1  -0.375952  0.007113  2.41744  0.007  -0.371408  0.005186  2.644466  0.004  -0.38178  0.005011  2.657202  0.004  -0.177243  -0.36276  0.005946  2.635657  0.005
N  N87  1  0.52393553  0.51473797  0.82992483  1  -0.37579  0.006895  2.418277  0.006  -0.37109  0.004902  2.645147  0.004  -0.381478  0.004824  2.65789  0.004  -0.176935  -0.362417  0.005686  2.636315  0.005
N  N88  1  0.00403889  0.73317570  0.34581350  1  -0.6596  -0.027392  2.985191  -0.012  -0.620525  -0.030472  3.261381  -0.011  -0.645893  -0.026955  3.261795  -0.008  -0.498183  -0.600663  -0.033561  3.260537  -0.013
N  N89  1  0.50402768  0.76678673  0.65418720  1  -0.659406  -0.027382  2.985189  -0.012  -0.620275  -0.030459  3.26159  -0.011  -0.645641  -0.02695  3.261986  -0.008  -0.498057  -0.600405  -0.033554  3.260739  -0.013
N  N90  1  0.99595257  0.26681300  0.65418424  1  -0.659641  0.027363  2.98503  0.012  -0.620552  0.030456  3.261267  0.011  -0.645913  0.026975  3.261684  0.008  -0.498043  -0.600682  0.033557  3.260406  0.013
N  N91  1  0.49595853  0.23318182  0.34579202  1  -0.659888  0.027392  2.985198  0.012  -0.620774  0.030465  3.261665  0.011  -0.646146  0.026968  3.262051  0.008  -0.498239  -0.600913  0.033563  3.260848  0.013
O  O92  1  0.01980953  0.62052948  0.13707890  1  -0.24896  -0.003461  2.364714  -0.004  -0.168667  -0.005982  2.604873  -0.007  -0.19015  -0.004805  2.608034  -0.005  -0.157037  -0.154095  -0.007032  2.602438  -0.008
O  O93  1  0.51981843  0.87951705  0.86290185  1  -0.249074  -0.003467  2.364716  -0.004  -0.168658  -0.005983  2.604936  -0.007  -0.190186  -0.004806  2.608127  -0.005  -0.156854  -0.154063  -0.007033  2.602482  -0.008
O  O94  1  0.98020292  0.37950116  0.86291936  1  -0.249074  0.003455  2.364556  0.004  -0.168754  0.005973  2.604781  0.007  -0.190247  0.00479  2.607956  0.005  -0.15703  -0.154163  0.007018  2.602321  0.008
O  O95  1  0.48017093  0.12048125  0.13709018  1  -0.249423  0.003462  2.364407  0.004  -0.168919  0.005995  2.604678  0.007  -0.190441  0.004811  2.607869  0.005  -0.156983  -0.154327  0.007044  2.602229  0.008
