# generated using pymatgen
data_CuH11C9IN
_symmetry_space_group_name_H-M   'P 1'
_cell_length_a   7.63884970
_cell_length_b   8.13127254
_cell_length_c   16.66891178
_cell_angle_alpha   90.00015561
_cell_angle_beta   90.00013392
_cell_angle_gamma   110.69412651
_symmetry_Int_Tables_number   1
_chemical_formula_structural   CuH11C9IN
_chemical_formula_sum   'Cu4 H44 C36 I4 N4'
_cell_volume   968.56408159
_cell_formula_units_Z   4
loop_
 _symmetry_equiv_pos_site_id
 _symmetry_equiv_pos_as_xyz
  1  'x, y, z'
loop_
 _atom_site_type_symbol
 _atom_site_label
 _atom_site_symmetry_multiplicity
 _atom_site_fract_x
 _atom_site_fract_y
 _atom_site_fract_z
 _atom_site_occupancy
 _atom_site_hle17_bader_spin_density
 _atom_site_hle17_ddec_charge
 _atom_site_hle17_ddec_spin_density
 _atom_site_hle17_ddec_sum_bond_order
 _atom_site_hle17_magmom
 _atom_site_hse06_10hf_bader_spin_density
 _atom_site_hse06_10hf_ddec_charge
 _atom_site_hse06_10hf_ddec_spin_density
 _atom_site_hse06_10hf_ddec_sum_bond_order
 _atom_site_hse06_10hf_magmom
 _atom_site_hse06_bader_spin_density
 _atom_site_hse06_ddec_charge
 _atom_site_hse06_ddec_spin_density
 _atom_site_hse06_ddec_sum_bond_order
 _atom_site_hse06_magmom
 _atom_site_pbe_bader_spin_density
 _atom_site_pbe_cm5_charge
 _atom_site_pbe_ddec_charge
 _atom_site_pbe_ddec_spin_density
 _atom_site_pbe_ddec_sum_bond_order
 _atom_site_pbe_magmom
Cu  Cu0  1  0.86571494  0.02793045  0.02513830  1  0  0.26374  0  2.00297  0  0  0.177516  0  2.455008  0  0  0.197848  0  2.39756  0  0  0.274869  0.164821  0  2.493455  0
Cu  Cu1  1  0.63428856  0.47207239  0.52513812  1  0  0.263711  0  2.003009  0  0  0.177464  0  2.455071  0  0  0.197806  0  2.397627  0  0  0.274852  0.164791  0  2.493504  0
Cu  Cu2  1  0.13429414  0.97206507  0.97486220  1  0  0.263678  0  2.003217  0  0  0.177424  0  2.455318  0  0  0.197746  0  2.397869  0  0  0.274868  0.164734  0  2.493746  0
Cu  Cu3  1  0.36570942  0.52793890  0.47486238  1  0  0.263663  0  2.003158  0  0  0.177365  0  2.455292  0  0  0.197707  0  2.397849  0  0  0.274837  0.164693  0  2.493733  0
H  H4  1  0.70773114  0.30080433  0.97696598  1  0  0.073294  0  0.963214  0  0  0.087237  0  1.033182  0  0  0.087489  0  1.033936  0  0  0.09609  0.086938  0  1.032838  0
H  H5  1  0.79227390  0.19919305  0.47696691  1  0  0.073299  0  0.963265  0  0  0.08725  0  1.033158  0  0  0.087504  0  1.033908  0  0  0.096098  0.086948  0  1.032813  0
H  H6  1  0.29227989  0.69918593  0.02303212  1  0  0.073351  0  0.963316  0  0  0.087287  0  1.033215  0  0  0.087539  0  1.033966  0  0  0.096119  0.086985  0  1.032873  0
H  H7  1  0.20772211  0.80081298  0.52303359  1  0  0.073387  0  0.963229  0  0  0.087309  0  1.03318  0  0  0.087562  0  1.03393  0  0  0.096123  0.087006  0  1.032841  0
H  H8  1  0.47248768  0.22961411  0.01264970  1  0  0.051501  0  0.966008  0  0  0.064657  0  1.04307  0  0  0.065862  0  1.040958  0  0  0.084578  0.06366  0  1.044707  0
H  H9  1  0.02751729  0.27038638  0.51264974  1  0  0.051509  0  0.966008  0  0  0.064654  0  1.043025  0  0  0.065857  0  1.040916  0  0  0.084577  0.06365  0  1.04467  0
H  H10  1  0.52752303  0.77037878  0.98734839  1  0  0.051517  0  0.965997  0  0  0.064621  0  1.043039  0  0  0.065823  0  1.040926  0  0  0.084548  0.063629  0  1.044675  0
H  H11  1  0.97247871  0.72961964  0.48735016  1  0  0.05151  0  0.966034  0  0  0.064655  0  1.043074  0  0  0.065857  0  1.040962  0  0  0.084563  0.06366  0  1.044705  0
H  H12  1  0.48073811  0.13969934  0.87238844  1  0  0.085334  0  0.939232  0  0  0.101943  0  0.999731  0  0  0.101673  0  1.002442  0  0  0.106444  0.102077  0  0.997973  0
H  H13  1  0.01926128  0.36029887  0.37238929  1  0  0.085386  0  0.939199  0  0  0.101955  0  0.999743  0  0  0.101685  0  1.002454  0  0  0.106451  0.102083  0  0.997989  0
H  H14  1  0.51926785  0.86029486  0.12760966  1  0  0.085397  0  0.939215  0  0  0.102004  0  0.999726  0  0  0.10173  0  1.002434  0  0  0.106459  0.102131  0  0.99798  0
H  H15  1  0.98073735  0.63970716  0.62761121  1  0  0.085368  0  0.939198  0  0  0.101949  0  0.999747  0  0  0.101675  0  1.002454  0  0  0.106456  0.102084  0  0.997997  0
H  H16  1  0.63826472  0.02898147  0.89695574  1  0  0.057348  0  0.923982  0  0  0.073196  0  0.993231  0  0  0.074586  0  0.990655  0  0  0.09361  0.072033  0  0.99529  0
H  H17  1  0.86173443  0.47101524  0.39695651  1  0  0.057372  0  0.923997  0  0  0.073213  0  0.993244  0  0  0.074605  0  0.990667  0  0  0.093622  0.072049  0  0.995298  0
H  H18  1  0.36174107  0.97100879  0.10304116  1  0  0.057317  0  0.924052  0  0  0.073207  0  0.993257  0  0  0.074592  0  0.99068  0  0  0.093646  0.072042  0  0.995321  0
H  H19  1  0.13826387  0.52899341  0.60304219  1  0  0.057347  0  0.923941  0  0  0.073186  0  0.993206  0  0  0.074571  0  0.990629  0  0  0.09364  0.072024  0  0.995265  0
H  H20  1  0.57105270  0.25030389  0.14621698  1  0  0.063039  0  0.937733  0  0  0.080815  0  1.002043  0  0  0.080973  0  1.002352  0  0  0.100452  0.080668  0  1.001833  0
H  H21  1  0.92895179  0.24969996  0.64621982  1  0  0.063103  0  0.937832  0  0  0.080835  0  1.002175  0  0  0.080994  0  1.002489  0  0  0.100468  0.080686  0  1.001966  0
H  H22  1  0.42895033  0.74969295  0.85377932  1  0  0.063114  0  0.937788  0  0  0.080802  0  1.002179  0  0  0.080962  0  1.002493  0  0  0.100454  0.080651  0  1.00197  0
H  H23  1  0.07104733  0.75030739  0.35378008  1  0  0.063058  0  0.937818  0  0  0.080769  0  1.002201  0  0  0.080929  0  1.002514  0  0  0.100442  0.080622  0  1.001987  0
H  H24  1  0.80359739  0.33480285  0.10823508  1  0  0.076541  0  0.946098  0  0  0.092078  0  1.012473  0  0  0.092828  0  1.012071  0  0  0.097797  0.091415  0  1.012921  0
H  H25  1  0.69640775  0.16519279  0.60823515  1  0  0.076546  0  0.946148  0  0  0.092072  0  1.012515  0  0  0.092822  0  1.012115  0  0  0.097795  0.091412  0  1.01297  0
H  H26  1  0.19640578  0.66518741  0.89176422  1  0  0.076507  0  0.946144  0  0  0.092043  0  1.012507  0  0  0.092797  0  1.012102  0  0  0.097759  0.091377  0  1.012961  0
H  H27  1  0.30358956  0.83481324  0.39176414  1  0  0.076475  0  0.946097  0  0  0.091991  0  1.012495  0  0  0.092742  0  1.012094  0  0  0.097765  0.091329  0  1.01295  0
H  H28  1  0.02125518  0.15568129  0.14742486  1  0  0.075269  0  0.997628  0  0  0.084109  0  1.07026  0  0  0.087947  0  1.065536  0  0  0.081983  0.081111  0  1.074014  0
H  H29  1  0.47874155  0.34431637  0.64742367  1  0  0.075263  0  0.997573  0  0  0.084089  0  1.07024  0  0  0.087928  0  1.065516  0  0  0.081971  0.081092  0  1.073987  0
H  H30  1  0.97874095  0.84430765  0.85257624  1  0  0.075279  0  0.997561  0  0  0.084129  0  1.070196  0  0  0.087968  0  1.065472  0  0  0.081979  0.081115  0  1.073954  0
H  H31  1  0.52125495  0.65569097  0.35257622  1  0  0.075268  0  0.99756  0  0  0.084135  0  1.070152  0  0  0.087971  0  1.065431  0  0  0.08198  0.081136  0  1.073903  0
H  H32  1  0.12853966  0.03179409  0.26550633  1  0  0.084151  0  0.950405  0  0  0.097018  0  1.007811  0  0  0.099803  0  1.006783  0  0  0.094616  0.095019  0  1.008609  0
H  H33  1  0.37145526  0.46820061  0.76550639  1  0  0.084183  0  0.950422  0  0  0.09706  0  1.007802  0  0  0.099846  0  1.006772  0  0  0.094658  0.09506  0  1.008597  0
H  H34  1  0.87145043  0.96819616  0.73449657  1  0  0.084136  0  0.950452  0  0  0.097015  0  1.007832  0  0  0.099798  0  1.006805  0  0  0.094645  0.095018  0  1.008635  0
H  H35  1  0.62854878  0.53180937  0.23449590  1  0  0.084204  0  0.950428  0  0  0.097049  0  1.007838  0  0  0.099834  0  1.006811  0  0  0.094654  0.095054  0  1.00864  0
H  H36  1  0.92678884  0.94892114  0.38826103  1  0  0.077136  0  0.976967  0  0  0.084038  0  1.048478  0  0  0.086999  0  1.047053  0  0  0.085866  0.081848  0  1.049601  0
H  H37  1  0.57320718  0.55107383  0.88826022  1  0  0.077161  0  0.976986  0  0  0.08408  0  1.048466  0  0  0.087033  0  1.047056  0  0  0.085866  0.081892  0  1.04959  0
H  H38  1  0.07320241  0.05107568  0.61174487  1  0  0.077199  0  0.97698  0  0  0.084023  0  1.048563  0  0  0.087031  0  1.047096  0  0  0.085859  0.081832  0  1.049695  0
H  H39  1  0.42679881  0.44893089  0.11174148  1  0  0.07713  0  0.977014  0  0  0.084046  0  1.048502  0  0  0.086996  0  1.047099  0  0  0.085838  0.081857  0  1.049629  0
H  H40  1  0.62165586  0.99000934  0.39076675  1  0  0.069264  0  1.004334  0  0  0.074718  0  1.079735  0  0  0.077625  0  1.077916  0  0  0.078509  0.072559  0  1.081223  0
H  H41  1  0.87834346  0.50999092  0.89076742  1  0  0.069219  0  1.004349  0  0  0.074668  0  1.079771  0  0  0.077579  0  1.07794  0  0  0.078492  0.072506  0  1.081256  0
H  H42  1  0.37833998  0.00999275  0.60923554  1  0  0.069235  0  1.004419  0  0  0.074683  0  1.079829  0  0  0.077597  0  1.077988  0  0  0.078514  0.07252  0  1.081327  0
H  H43  1  0.12165662  0.49000854  0.10923248  1  0  0.069258  0  1.004281  0  0  0.074692  0  1.079709  0  0  0.077598  0  1.077893  0  0  0.078506  0.072533  0  1.0812  0
H  H44  1  0.51482123  0.11645752  0.27296899  1  0  0.085288  0  0.962163  0  0  0.094414  0  1.028298  0  0  0.097421  0  1.027038  0  0  0.090805  0.092247  0  1.029274  0
H  H45  1  0.98517807  0.38354474  0.77296846  1  0  0.085312  0  0.962179  0  0  0.094371  0  1.028383  0  0  0.097375  0  1.027126  0  0  0.090779  0.092205  0  1.029357  0
H  H46  1  0.48517755  0.88354194  0.72703091  1  0  0.085272  0  0.962195  0  0  0.094397  0  1.028333  0  0  0.097403  0  1.027077  0  0  0.090806  0.092231  0  1.029312  0
H  H47  1  0.01482038  0.61645734  0.22702903  1  0  0.085233  0  0.962221  0  0  0.094335  0  1.028385  0  0  0.097343  0  1.027126  0  0  0.090764  0.09217  0  1.029359  0
C  C48  1  0.58627584  0.18464557  0.99272511  1  0  -0.037519  0  3.647839  0  0  -0.09328  0  3.893943  0  0  -0.090542  0  3.907629  0  0  -0.085848  -0.095006  0  3.884651  0
C  C49  1  0.91372540  0.31535194  0.49272573  1  0  -0.037579  0  3.648043  0  0  -0.093216  0  3.893967  0  0  -0.090473  0  3.90765  0  0  -0.085876  -0.094933  0  3.884673  0
C  C50  1  0.41373257  0.81534469  0.00727238  1  0  -0.037671  0  3.648166  0  0  -0.0933  0  3.89417  0  0  -0.090553  0  3.907826  0  0  -0.085847  -0.094963  0  3.884727  0
C  C51  1  0.08626799  0.68465409  0.50727417  1  0  -0.037692  0  3.647999  0  0  -0.093371  0  3.894024  0  0  -0.090627  0  3.907686  0  0  -0.085855  -0.095084  0  3.884719  0
C  C52  1  0.52201314  0.06746114  0.91993321  1  0  -0.02557  0  3.625973  0  0  -0.081683  0  3.87461  0  0  -0.078807  0  3.88794  0  0  -0.078481  -0.083561  0  3.865534  0
C  C53  1  0.97798620  0.43253576  0.41993345  1  0  -0.025615  0  3.625962  0  0  -0.081694  0  3.874508  0  0  -0.078825  0  3.887845  0  0  -0.078478  -0.083565  0  3.865434  0
C  C54  1  0.47799315  0.93253044  0.08006489  1  0  -0.025652  0  3.626167  0  0  -0.081788  0  3.874702  0  0  -0.078925  0  3.888079  0  0  -0.078545  -0.083647  0  3.865623  0
C  C55  1  0.02201111  0.56747026  0.58006525  1  0  -0.025462  0  3.625855  0  0  -0.081539  0  3.874432  0  0  -0.078685  0  3.887833  0  0  -0.078478  -0.083401  0  3.865331  0
C  C56  1  0.69310915  0.21465869  0.12966645  1  0  -0.048204  0  3.64417  0  0  -0.109264  0  3.887644  0  0  -0.105412  0  3.899728  0  0  -0.071047  -0.11172  0  3.879337  0
C  C57  1  0.80689405  0.28533844  0.62966681  1  0  -0.048264  0  3.644268  0  0  -0.109274  0  3.887703  0  0  -0.105434  0  3.899807  0  0  -0.071043  -0.111723  0  3.879385  0
C  C58  1  0.30689665  0.78533157  0.87033285  1  0  -0.048218  0  3.644127  0  0  -0.109179  0  3.887479  0  0  -0.10535  0  3.899598  0  0  -0.070944  -0.111638  0  3.879175  0
C  C59  1  0.19309885  0.71466627  0.37033249  1  0  -0.048071  0  3.643987  0  0  -0.109056  0  3.887384  0  0  -0.105221  0  3.899502  0  0  -0.070936  -0.111516  0  3.879081  0
C  C60  1  0.75849696  0.14031302  0.20144077  1  0  0.062923  0  3.755567  0  0  0.087094  0  3.984434  0  0  0.086583  0  4.008935  0  0  -0.020651  0.087372  0  3.967929  0
C  C61  1  0.74150027  0.35968470  0.70144055  1  0  0.062907  0  3.755589  0  0  0.087099  0  3.984395  0  0  0.086596  0  4.008889  0  0  -0.020686  0.087369  0  3.967906  0
C  C62  1  0.24149623  0.85967854  0.79855793  1  0  0.062933  0  3.755501  0  0  0.087146  0  3.984283  0  0  0.086647  0  4.008775  0  0  -0.020721  0.087424  0  3.967771  0
C  C63  1  0.25850130  0.64031871  0.29855875  1  0  0.062942  0  3.755458  0  0  0.087157  0  3.984251  0  0  0.086651  0  4.008753  0  0  -0.02071  0.087435  0  3.967746  0
C  C64  1  0.93151878  0.11627657  0.20040059  1  0  -0.112965  0  3.754813  0  0  -0.12913  0  3.994967  0  0  -0.132221  0  4.016679  0  0  -0.097062  -0.127032  0  3.98057  0
C  C65  1  0.56848106  0.38372115  0.70039961  1  0  -0.112925  0  3.754811  0  0  -0.129095  0  3.994964  0  0  -0.132191  0  4.016675  0  0  -0.097063  -0.126996  0  3.980564  0
C  C66  1  0.06848047  0.88371369  0.79959811  1  0  -0.112919  0  3.754995  0  0  -0.129101  0  3.995125  0  0  -0.132201  0  4.01684  0  0  -0.097067  -0.126983  0  3.980719  0
C  C67  1  0.43151593  0.61628751  0.29959968  1  0  -0.112929  0  3.75484  0  0  -0.129102  0  3.994963  0  0  -0.132202  0  4.016687  0  0  -0.097061  -0.127003  0  3.980558  0
C  C68  1  0.99229436  0.04697011  0.26682003  1  0  -0.066118  0  3.780504  0  0  -0.077729  0  4.025196  0  0  -0.079741  0  4.047636  0  0  -0.096593  -0.076316  0  4.009961  0
C  C69  1  0.50770111  0.45302552  0.76681848  1  0  -0.066092  0  3.780351  0  0  -0.077697  0  4.025034  0  0  -0.079713  0  4.047486  0  0  -0.096556  -0.076285  0  4.009793  0
C  C70  1  0.00770015  0.95302146  0.73318467  1  0  -0.066095  0  3.780606  0  0  -0.077706  0  4.025287  0  0  -0.079726  0  4.04776  0  0  -0.096516  -0.076298  0  4.010054  0
C  C71  1  0.49230112  0.54698314  0.23318202  1  0  -0.066208  0  3.780469  0  0  -0.077804  0  4.025189  0  0  -0.079817  0  4.047632  0  0  -0.096551  -0.076398  0  4.009961  0
C  C72  1  0.88004109  0.00068806  0.33531691  1  0  -0.081269  0  3.779534  0  0  -0.093464  0  4.023909  0  0  -0.096112  0  4.046155  0  0  -0.099792  -0.091568  0  4.008901  0
C  C73  1  0.61995886  0.49930814  0.83531914  1  0  -0.081489  0  3.779547  0  0  -0.093714  0  4.023962  0  0  -0.096361  0  4.046209  0  0  -0.099885  -0.091822  0  4.008955  0
C  C74  1  0.11995113  0.99931139  0.66468299  1  0  -0.081402  0  3.779342  0  0  -0.093537  0  4.023713  0  0  -0.096227  0  4.045941  0  0  -0.099876  -0.091642  0  4.008719  0
C  C75  1  0.38004433  0.50069263  0.16468135  1  0  -0.081271  0  3.779478  0  0  -0.093479  0  4.023854  0  0  -0.096123  0  4.046096  0  0  -0.099819  -0.091587  0  4.008859  0
C  C76  1  0.70823492  0.02505775  0.33701040  1  0  -0.066692  0  3.800027  0  0  -0.075059  0  4.040389  0  0  -0.077668  0  4.064352  0  0  -0.09987  -0.073238  0  4.024107  0
C  C77  1  0.79176261  0.47494241  0.83700979  1  0  -0.066481  0  3.799932  0  0  -0.074824  0  4.040241  0  0  -0.077427  0  4.064197  0  0  -0.099797  -0.073  0  4.023958  0
C  C78  1  0.29176386  0.97494171  0.66299129  1  0  -0.066627  0  3.800005  0  0  -0.074976  0  4.040321  0  0  -0.077581  0  4.064296  0  0  -0.099867  -0.073154  0  4.024051  0
C  C79  1  0.20823765  0.52506099  0.16299010  1  0  -0.066689  0  3.799944  0  0  -0.075031  0  4.040306  0  0  -0.077634  0  4.064254  0  0  -0.099867  -0.073213  0  4.024039  0
C  C80  1  0.64813736  0.09519001  0.27062936  1  0  -0.115247  0  3.738997  0  0  -0.132563  0  3.976961  0  0  -0.135839  0  3.999578  0  0  -0.094926  -0.130273  0  3.961626  0
C  C81  1  0.85186256  0.40480697  0.77062872  1  0  -0.115287  0  3.738961  0  0  -0.132552  0  3.976908  0  0  -0.135825  0  3.999518  0  0  -0.094892  -0.130271  0  3.961584  0
C  C82  1  0.35186075  0.90480419  0.72937054  1  0  -0.115259  0  3.738985  0  0  -0.132589  0  3.976921  0  0  -0.13587  0  3.999537  0  0  -0.094915  -0.130304  0  3.961594  0
C  C83  1  0.14813377  0.59519643  0.22936878  1  0  -0.115198  0  3.738869  0  0  -0.132501  0  3.976796  0  0  -0.135777  0  3.999412  0  0  -0.094867  -0.130219  0  3.961467  0
I  I84  1  0.87820880  0.71993880  0.04796269  1  0  -0.389194  0  1.450509  0  0  -0.332765  0  1.854871  0  0  -0.34876  0  1.816956  0  0  -0.174533  -0.321771  0  1.880506  0
I  I85  1  0.62179723  0.78006650  0.54796644  1  0  -0.38918  0  1.450382  0  0  -0.332759  0  1.854768  0  0  -0.348751  0  1.816839  0  0  -0.174528  -0.321771  0  1.880408  0
I  I86  1  0.12181043  0.28005935  0.95203781  1  0  -0.389201  0  1.450473  0  0  -0.332776  0  1.854837  0  0  -0.348777  0  1.816932  0  0  -0.174535  -0.321783  0  1.880472  0
I  I87  1  0.37818847  0.21994346  0.45203826  1  0  -0.389194  0  1.450489  0  0  -0.332749  0  1.854834  0  0  -0.348767  0  1.816947  0  0  -0.17453  -0.321763  0  1.880472  0
N  N88  1  0.64056333  0.09218806  0.05970017  1  0  -0.181937  0  3.275914  0  0  -0.073829  0  3.520025  0  0  -0.092446  0  3.538451  0  0  -0.366783  -0.061241  0  3.507117  0
N  N89  1  0.85944078  0.40781243  0.55970074  1  0  -0.182085  0  3.276052  0  0  -0.073993  0  3.520105  0  0  -0.09261  0  3.538536  0  0  -0.366802  -0.061397  0  3.50719  0
N  N90  1  0.35944607  0.90780483  0.94029853  1  0  -0.181979  0  3.276269  0  0  -0.073885  0  3.520309  0  0  -0.092492  0  3.538738  0  0  -0.366841  -0.061295  0  3.507403  0
N  N91  1  0.14055573  0.59219491  0.44029916  1  0  -0.182126  0  3.275963  0  0  -0.07401  0  3.520019  0  0  -0.09262  0  3.538454  0  0  -0.366928  -0.061418  0  3.507106  0
