# generated using pymatgen
data_KH24C18I3(O3F7)2
_symmetry_space_group_name_H-M   'P 1'
_cell_length_a   9.61278134
_cell_length_b   12.17606354
_cell_length_c   14.66490000
_cell_angle_alpha   101.15913369
_cell_angle_beta   109.18209437
_cell_angle_gamma   89.98972378
_symmetry_Int_Tables_number   1
_chemical_formula_structural   KH24C18I3(O3F7)2
_chemical_formula_sum   'K2 H48 C36 I6 O12 F28'
_cell_volume   1586.78660238
_cell_formula_units_Z   2
loop_
 _symmetry_equiv_pos_site_id
 _symmetry_equiv_pos_as_xyz
  1  'x, y, z'
loop_
 _atom_site_type_symbol
 _atom_site_label
 _atom_site_symmetry_multiplicity
 _atom_site_fract_x
 _atom_site_fract_y
 _atom_site_fract_z
 _atom_site_occupancy
 _atom_site_hle17_bader_spin_density
 _atom_site_hle17_ddec_charge
 _atom_site_hle17_ddec_spin_density
 _atom_site_hle17_ddec_sum_bond_order
 _atom_site_hle17_magmom
 _atom_site_hse06_10hf_bader_spin_density
 _atom_site_hse06_10hf_ddec_charge
 _atom_site_hse06_10hf_ddec_spin_density
 _atom_site_hse06_10hf_ddec_sum_bond_order
 _atom_site_hse06_10hf_magmom
 _atom_site_hse06_bader_spin_density
 _atom_site_hse06_ddec_charge
 _atom_site_hse06_ddec_spin_density
 _atom_site_hse06_ddec_sum_bond_order
 _atom_site_hse06_magmom
 _atom_site_pbe_bader_charge
 _atom_site_pbe_bader_spin_density
 _atom_site_pbe_cm5_charge
 _atom_site_pbe_ddec_charge
 _atom_site_pbe_ddec_spin_density
 _atom_site_pbe_ddec_sum_bond_order
 _atom_site_pbe_magmom
K  K0  1  0.50000049  0.00000000  0.00000031  1  0  0.866029  0  0.551025  0  0  0.785249  0  0.763447  0  0  0.803626  0  0.740657  0  0.859535  0  0.692014  0.771967  0  0.779357  0
K  K1  1  0.49999935  0.50000032  0.99999978  1  0  0.86606  0  0.551382  0  0  0.785274  0  0.763831  0  0  0.803664  0  0.741036  0  0.860613  0  0.692074  0.771944  0  0.779775  0
H  H2  1  0.20241411  0.98385679  0.11583446  1  0  0.044135  0  0.957534  0  0  0.054881  0  1.032902  0  0  0.055478  0  1.03254  0  0.036997  0  0.087788  0.054428  0  1.03326  0
H  H3  1  0.08661226  0.51617102  0.88411959  1  0  0.044649  0  0.957885  0  0  0.055264  0  1.033075  0  0  0.05584  0  1.032793  0  0.061563  0  0.088074  0.054849  0  1.0334  0
H  H4  1  0.79758563  0.01614301  0.88416586  1  0  0.044123  0  0.957556  0  0  0.054869  0  1.032919  0  0  0.055466  0  1.032555  0  0.036957  0  0.08779  0.054416  0  1.033277  0
H  H5  1  0.91338865  0.48382962  0.11588111  1  0  0.044661  0  0.957892  0  0  0.05527  0  1.033096  0  0  0.055846  0  1.032815  0  0.06157  0  0.088087  0.054855  0  1.03342  0
H  H6  1  0.15741484  0.12463991  0.15398982  1  0  0.038203  0  0.967144  0  0  0.04689  0  1.04557  0  0  0.046815  0  1.04535  0  0.048095  0  0.082384  0.046933  0  1.045626  0
H  H7  1  0.00330695  0.37542754  0.84584117  1  0  0.037917  0  0.96778  0  0  0.046864  0  1.04573  0  0  0.046806  0  1.045557  0  0.041329  0  0.082111  0.046904  0  1.045792  0
H  H8  1  0.84258490  0.87535989  0.84600982  1  0  0.038207  0  0.967128  0  0  0.04689  0  1.045558  0  0  0.04681  0  1.045349  0  0.0481  0  0.082391  0.046933  0  1.045614  0
H  H9  1  0.99669293  0.62457394  0.15415945  1  0  0.037905  0  0.967799  0  0  0.046853  0  1.045743  0  0  0.046795  0  1.045574  0  0.04132  0  0.082107  0.046891  0  1.045808  0
H  H10  1  0.42960666  0.18171646  0.23223136  1  0  0.052168  0  0.923075  0  0  0.064895  0  0.990827  0  0  0.065593  0  0.990023  0  0.031395  0  0.095664  0.064355  0  0.991446  0
H  H11  1  0.19716488  0.31823938  0.76776933  1  0  0.051597  0  0.922971  0  0  0.064735  0  0.991057  0  0  0.065422  0  0.99026  0  0.025138  0  0.095591  0.06417  0  0.991697  0
H  H12  1  0.57039308  0.81828333  0.76776896  1  0  0.052168  0  0.923064  0  0  0.064892  0  0.990822  0  0  0.065591  0  0.990015  0  0.031391  0  0.095661  0.064351  0  0.991442  0
H  H13  1  0.80283485  0.68176041  0.23223031  1  0  0.051635  0  0.922932  0  0  0.064771  0  0.991044  0  0  0.065461  0  0.990244  0  0.02513  0  0.095597  0.064207  0  0.991684  0
H  H14  1  0.36727498  0.07790498  0.28388909  1  0  0.054265  0  0.925699  0  0  0.06215  0  0.998653  0  0  0.062639  0  0.997591  0  0.05762  0  0.090282  0.061664  0  0.999563  0
H  H15  1  0.08306982  0.42207437  0.71605459  1  0  0.054032  0  0.925427  0  0  0.062399  0  0.99865  0  0  0.06286  0  0.99762  0  0.052599  0  0.090217  0.06193  0  0.999514  0
H  H16  1  0.63272475  0.92209482  0.71611122  1  0  0.054265  0  0.925704  0  0  0.062151  0  0.998658  0  0  0.06263  0  0.997612  0  0.057623  0  0.090283  0.061665  0  0.999568  0
H  H17  1  0.91692998  0.57792627  0.28394520  1  0  0.054  0  0.925422  0  0  0.062384  0  0.998646  0  0  0.062843  0  0.997619  0  0.052615  0  0.090203  0.061917  0  0.999507  0
H  H18  1  0.60553834  0.00945053  0.33585735  1  0  0.054625  0  0.92053  0  0  0.064584  0  0.988479  0  0  0.065081  0  0.987553  0  0.032446  0  0.090865  0.064213  0  0.989159  0
H  H19  1  0.26932524  0.49047511  0.66408770  1  0  0.05483  0  0.92029  0  0  0.065161  0  0.988423  0  0  0.065618  0  0.987536  0  0.032378  0  0.090956  0.064791  0  0.989121  0
H  H20  1  0.39446139  0.99054927  0.66414229  1  0  0.054631  0  0.920542  0  0  0.064582  0  0.988479  0  0  0.065079  0  0.987553  0  0.032439  0  0.090861  0.064211  0  0.989159  0
H  H21  1  0.73067449  0.50952468  0.33591194  1  0  0.054872  0  0.920284  0  0  0.065167  0  0.98846  0  0  0.065625  0  0.98757  0  0.032384  0  0.090949  0.064798  0  0.989157  0
H  H22  1  0.68213457  0.10807400  0.28601544  1  0  0.052031  0  0.935825  0  0  0.059354  0  1.011929  0  0  0.060485  0  1.01029  0  0.062639  0  0.088975  0.058578  0  1.013063  0
H  H23  1  0.39592859  0.39185583  0.71395163  1  0  0.051111  0  0.935891  0  0  0.058914  0  1.012102  0  0  0.060086  0  1.010373  0  0.043061  0  0.088601  0.058111  0  1.013291  0
H  H24  1  0.31786524  0.89192663  0.71398503  1  0  0.052048  0  0.935843  0  0  0.059355  0  1.011942  0  0  0.060491  0  1.010296  0  0.06265  0  0.088976  0.058579  0  1.013076  0
H  H25  1  0.60407114  0.60814396  0.28604801  1  0  0.051125  0  0.935894  0  0  0.058935  0  1.012093  0  0  0.060106  0  1.010364  0  0.043064  0  0.088605  0.058131  0  1.013285  0
H  H26  1  0.81832446  0.93175008  0.29728441  1  0  0.052476  0  0.931999  0  0  0.061568  0  1.003879  0  0  0.062273  0  1.002377  0  0.053814  0  0.088728  0.061013  0  1.005024  0
H  H27  1  0.52084049  0.56810990  0.70277415  1  0  0.052942  0  0.932575  0  0  0.061659  0  1.004535  0  0  0.062415  0  1.002991  0  0.045696  0  0.088966  0.061093  0  1.005671  0
H  H28  1  0.18167652  0.06825139  0.70271577  1  0  0.05247  0  0.931998  0  0  0.061574  0  1.00389  0  0  0.062275  0  1.0024  0  0.054213  0  0.088732  0.061016  0  1.005037  0
H  H29  1  0.47915924  0.43188989  0.29722548  1  0  0.052903  0  0.932554  0  0  0.061618  0  1.004533  0  0  0.062372  0  1.002989  0  0.0457  0  0.088935  0.061051  0  1.005668  0
H  H30  1  0.65335163  0.85234735  0.21312658  1  0  0.046588  0  0.928496  0  0  0.057251  0  1.003162  0  0  0.058579  0  1.001483  0  0.044225  0  0.094446  0.055878  0  1.005046  0
H  H31  1  0.44006365  0.64759990  0.78680097  1  0  0.046838  0  0.928627  0  0  0.057143  0  1.003407  0  0  0.058528  0  1.001667  0  0.04178  0  0.094405  0.055773  0  1.005248  0
H  H32  1  0.34664928  0.14765328  0.78687344  1  0  0.046609  0  0.928494  0  0  0.057294  0  1.003151  0  0  0.058625  0  1.001471  0  0.044191  0  0.094468  0.055921  0  1.005034  0
H  H33  1  0.55993498  0.35239990  0.21319843  1  0  0.046813  0  0.928639  0  0  0.05712  0  1.003424  0  0  0.058505  0  1.001684  0  0.041778  0  0.094406  0.05575  0  1.005265  0
H  H34  1  0.78978162  0.79801877  0.09986140  1  0  0.063157  0  0.951532  0  0  0.074012  0  1.018838  0  0  0.07597  0  1.017081  0  0.066259  0  0.103522  0.072612  0  1.020086  0
H  H35  1  0.68982685  0.70204511  0.90019644  1  0  0.063084  0  0.951784  0  0  0.073811  0  1.019096  0  0  0.075757  0  1.017344  0  0.09853  0  0.103671  0.072397  0  1.020365  0
H  H36  1  0.21021819  0.20198186  0.90013907  1  0  0.063156  0  0.951531  0  0  0.07401  0  1.018836  0  0  0.075971  0  1.017076  0  0.066256  0  0.103524  0.072611  0  1.020084  0
H  H37  1  0.31017288  0.29795469  0.09980388  1  0  0.063095  0  0.951792  0  0  0.073816  0  1.019103  0  0  0.075762  0  1.017353  0  0.098528  0  0.103668  0.072402  0  1.020371  0
H  H38  1  0.94931102  0.88500425  0.18162410  1  0  0.048959  0  0.934817  0  0  0.057906  0  1.008635  0  0  0.058074  0  1.008212  0  0.053325  0  0.087479  0.057541  0  1.009333  0
H  H39  1  0.76760302  0.61506467  0.81854408  1  0  0.048256  0  0.933942  0  0  0.057226  0  1.007892  0  0  0.057425  0  1.0074  0  0.063954  0  0.087227  0.056846  0  1.008598  0
H  H40  1  0.05068871  0.11499555  0.81837622  1  0  0.048948  0  0.934835  0  0  0.057896  0  1.008645  0  0  0.058048  0  1.00825  0  0.053321  0  0.087475  0.057531  0  1.009344  0
H  H41  1  0.23239782  0.38493512  0.18145647  1  0  0.048269  0  0.933954  0  0  0.057237  0  1.007899  0  0  0.057434  0  1.007413  0  0.063947  0  0.087224  0.056856  0  1.008607  0
H  H42  1  0.09013634  0.99338871  0.94579267  1  0  0.048171  0  0.943604  0  0  0.058907  0  1.018395  0  0  0.05931  0  1.018242  0  0.060493  0  0.094858  0.058641  0  1.018533  0
H  H43  1  0.14437610  0.50655855  0.05405970  1  0  0.048279  0  0.943925  0  0  0.059314  0  1.018898  0  0  0.059757  0  1.018697  0  0.030465  0  0.094949  0.059044  0  1.019045  0
H  H44  1  0.90986340  0.00661109  0.05420765  1  0  0.048197  0  0.943613  0  0  0.058928  0  1.018358  0  0  0.059329  0  1.018207  0  0.060513  0  0.094857  0.058663  0  1.018497  0
H  H45  1  0.85562363  0.49344125  0.94594062  1  0  0.048275  0  0.943906  0  0  0.059321  0  1.01888  0  0  0.059764  0  1.018679  0  0.030453  0  0.094936  0.059051  0  1.019027  0
H  H46  1  0.04091784  0.13341749  0.98183250  1  0  0.045226  0  0.933848  0  0  0.057649  0  1.005724  0  0  0.057789  0  1.00562  0  0.039234  0  0.092009  0.057523  0  1.005745  0
H  H47  1  0.05895726  0.36658702  0.01791654  1  0  0.045789  0  0.933293  0  0  0.058491  0  1.005215  0  0  0.05864  0  1.005133  0  0.042639  0  0.09237  0.058353  0  1.005254  0
H  H48  1  0.95908182  0.86658146  0.01816767  1  0  0.045257  0  0.933876  0  0  0.057672  0  1.005703  0  0  0.057814  0  1.005598  0  0.039237  0  0.092024  0.057546  0  1.005725  0
H  H49  1  0.94104248  0.63341278  0.98208309  1  0  0.045752  0  0.933336  0  0  0.058475  0  1.005253  0  0  0.058624  0  1.005171  0  0.042641  0  0.092356  0.058326  0  1.005301  0
C  C50  1  0.24088586  0.07332277  0.13267387  1  0  0.054397  0  3.680949  0  0  -0.002597  0  3.946432  0  0  0.003371  0  3.953324  0  0.424669  0  -0.082967  -0.006538  0  3.941536  0
C  C51  1  0.10815858  0.42668929  0.86724058  1  0  0.053373  0  3.681015  0  0  -0.002877  0  3.946005  0  0  0.003043  0  3.952923  0  0.407174  0  -0.082535  -0.006758  0  3.940912  0
C  C52  1  0.75911403  0.92667870  0.86732675  1  0  0.054427  0  3.680931  0  0  -0.002568  0  3.946427  0  0  0.003404  0  3.953309  0  0.42471  0  -0.082965  -0.006509  0  3.94153  0
C  C53  1  0.89184123  0.57331134  0.13275921  1  0  0.053335  0  3.681053  0  0  -0.002879  0  3.946046  0  0  0.003031  0  3.95298  0  0.407164  0  -0.082535  -0.006762  0  3.940958  0
C  C54  1  0.38550995  0.09366872  0.21680388  1  0  0.061884  0  3.682523  0  0  0.003193  0  3.958005  0  0  0.009362  0  3.964219  0  0.461709  0  -0.078384  -0.000983  0  3.953671  0
C  C55  1  0.16854648  0.40630475  0.78315534  1  0  0.063297  0  3.679946  0  0  0.001752  0  3.957485  0  0  0.007954  0  3.963765  0  0.474701  0  -0.079145  -0.0024  0  3.953137  0
C  C56  1  0.61448979  0.90633107  0.78319576  1  0  0.061878  0  3.682493  0  0  0.003185  0  3.957979  0  0  0.009355  0  3.964191  0  0.461722  0  -0.078384  -0.00099  0  3.953646  0
C  C57  1  0.83145222  0.59369589  0.21684421  1  0  0.063294  0  3.679888  0  0  0.001694  0  3.957526  0  0  0.007891  0  3.963813  0  0.474701  0  -0.079151  -0.002458  0  3.953178  0
C  C58  1  0.62400444  0.02445407  0.26865271  1  0  0.058774  0  3.679109  0  0  -5.4e-05  0  3.95679  0  0  0.005953  0  3.963402  0  0.463317  0  -0.080793  -0.004107  0  3.952067  0
C  C59  1  0.35513887  0.47546318  0.73132005  1  0  0.061185  0  3.676539  0  0  -0.00031  0  3.955977  0  0  0.005777  0  3.962545  0  0.485307  0  -0.080737  -0.004387  0  3.951297  0
C  C60  1  0.37599536  0.97554656  0.73134708  1  0  0.0587  0  3.679227  0  0  -6.4e-05  0  3.956871  0  0  0.005947  0  3.963474  0  0.463323  0  -0.0808  -0.004117  0  3.952148  0
C  C61  1  0.64486086  0.52453662  0.26867959  1  0  0.061072  0  3.67664  0  0  -0.000401  0  3.956089  0  0  0.005683  0  3.962657  0  0.48531  0  -0.080734  -0.00448  0  3.951414  0
C  C62  1  0.71582289  0.93510304  0.23563799  1  0  0.059038  0  3.685801  0  0  -0.003984  0  3.967901  0  0  0.002283  0  3.973731  0  0.42522  0  -0.080892  -0.008121  0  3.963859  0
C  C63  1  0.48000987  0.56482659  0.76436544  1  0  0.057267  0  3.687483  0  0  -0.004701  0  3.969005  0  0  0.001495  0  3.974786  0  0.434269  0  -0.081072  -0.008793  0  3.964956  0
C  C64  1  0.28418045  0.06490012  0.76436296  1  0  0.05905  0  3.685808  0  0  -0.004047  0  3.967998  0  0  0.00221  0  3.973838  0  0.424826  0  -0.080918  -0.008183  0  3.963957  0
C  C65  1  0.51998986  0.43517320  0.23563420  1  0  0.057362  0  3.687442  0  0  -0.00462  0  3.968984  0  0  0.001579  0  3.974761  0  0.434263  0  -0.081063  -0.008714  0  3.964938  0
C  C66  1  0.84280494  0.88392016  0.12174694  1  0  0.049884  0  3.670184  0  0  -0.00632  0  3.938157  0  0  -0.000864  0  3.944521  0  0.420686  0  -0.08161  -0.009999  0  3.933784  0
C  C67  1  0.72101068  0.61614708  0.87835557  1  0  0.052082  0  3.669238  0  0  -0.00357  0  3.936833  0  0  0.001788  0  3.94344  0  0.38085  0  -0.08118  -0.007166  0  3.932288  0
C  C68  1  0.15719479  0.11607964  0.87825270  1  0  0.049817  0  3.670161  0  0  -0.006325  0  3.938137  0  0  -0.000871  0  3.944504  0  0.420696  0  -0.081609  -0.010005  0  3.933763  0
C  C69  1  0.27898905  0.38385271  0.12164407  1  0  0.052026  0  3.669346  0  0  -0.003621  0  3.936902  0  0  0.001731  0  3.943521  0  0.380585  0  -0.081191  -0.007217  0  3.932358  0
C  C70  1  0.12835935  0.08310138  0.96457383  1  0  0.06122  0  3.669519  0  0  0.004181  0  3.934545  0  0  0.010236  0  3.941412  0  0.421766  0  -0.07755  8.4e-05  0  3.929858  0
C  C71  1  0.16373046  0.41683097  0.03525686  1  0  0.059846  0  3.671192  0  0  0.001508  0  3.937235  0  0  0.007525  0  3.944064  0  0.435502  0  -0.078126  -0.002637  0  3.932661  0
C  C72  1  0.87164031  0.91689758  0.03542565  1  0  0.060996  0  3.669806  0  0  0.004089  0  3.934601  0  0  0.01013  0  3.941494  0  0.421756  0  -0.077597  -1.1e-05  0  3.929924  0
C  C73  1  0.83627037  0.58316882  0.96474369  1  0  0.059876  0  3.671108  0  0  0.001506  0  3.937208  0  0  0.007523  0  3.944033  0  0.435505  0  -0.078104  -0.00263  0  3.932636  0
C  C74  1  0.26133213  0.76721625  0.36515907  1  0  0.322778  0  3.569836  0  0  0.293089  0  3.906241  0  0  0.310898  0  3.89692  0  1.003078  0  0.136961  0.280323  0  3.913479  0
C  C75  1  0.89628253  0.73264626  0.63477824  1  0  0.324265  0  3.567532  0  0  0.293218  0  3.903984  0  0  0.311563  0  3.894095  0  1.010811  0  0.136767  0.280073  0  3.91181  0
C  C76  1  0.73866760  0.23278355  0.63484056  1  0  0.322746  0  3.569876  0  0  0.293031  0  3.90628  0  0  0.310848  0  3.896968  0  1.003083  0  0.136922  0.280265  0  3.91352  0
C  C77  1  0.10371713  0.26735270  0.36522125  1  0  0.324102  0  3.567641  0  0  0.293152  0  3.903958  0  0  0.311446  0  3.894143  0  1.010536  0  0.136725  0.280006  0  3.91178  0
C  C78  1  0.31215733  0.65643119  0.39944344  1  0  0.274283  0  3.727819  0  0  0.215172  0  4.047077  0  0  0.228974  0  4.037334  0  1.176475  0  0.178869  0.205328  0  4.054652  0
C  C79  1  0.91277442  0.84342712  0.60048502  1  0  0.270686  0  3.73324  0  0  0.215781  0  4.045283  0  0  0.228789  0  4.036924  0  1.16626  0  0.1793  0.206059  0  4.052761  0
C  C80  1  0.68784350  0.34356861  0.60055644  1  0  0.274309  0  3.727803  0  0  0.215247  0  4.046914  0  0  0.229009  0  4.037241  0  1.176471  0  0.178888  0.205404  0  4.054489  0
C  C81  1  0.08722524  0.15657183  0.39951515  1  0  0.270821  0  3.733075  0  0  0.215877  0  4.0451  0  0  0.228986  0  4.03662  0  1.166278  0  0.179328  0.206161  0  4.052563  0
C  C82  1  0.29271789  0.63865449  0.49734524  1  0  0.691513  0  3.696984  0  0  0.608299  0  4.053557  0  0  0.638343  0  4.026144  0  1.788545  0  0.294082  0.587035  0  4.073133  0
C  C83  1  0.79528759  0.86126087  0.50256104  1  0  0.692015  0  3.698918  0  0  0.610819  0  4.050198  0  0  0.640711  0  4.023583  0  1.77492  0  0.29499  0.589601  0  4.069488  0
C  C84  1  0.70728405  0.36134530  0.50265487  1  0  0.691519  0  3.696918  0  0  0.608418  0  4.05326  0  0  0.638468  0  4.025857  0  1.788569  0  0.294156  0.587151  0  4.072836  0
C  C85  1  0.20471215  0.13873892  0.49743792  1  0  0.691945  0  3.698842  0  0  0.610824  0  4.050009  0  0  0.64068  0  4.023442  0  1.774934  0  0.295024  0.589608  0  4.069289  0
I  I86  1  0.30990164  0.75002439  0.00011899  1  0  -0.430651  0  0.94865  0  0  -0.431831  0  1.282347  0  0  -0.455073  0  1.260219  0  -0.527213  0  -0.220969  -0.415362  0  1.297749  0
I  I87  1  0.69009816  0.24997624  0.99988080  1  0  -0.430652  0  0.948655  0  0  -0.431832  0  1.282355  0  0  -0.455078  0  1.260225  0  -0.527215  0  -0.220968  -0.415363  0  1.297757  0
I  I88  1  0.28736876  0.76813168  0.22046688  1  0  0.006396  0  1.389226  0  0  -0.03592  0  1.728874  0  0  -0.026141  0  1.705573  0  0.149229  0  0.077177  -0.043073  0  1.745703  0
I  I89  1  0.06720693  0.73173334  0.77955284  1  0  0.005809  0  1.389031  0  0  -0.036156  0  1.728648  0  0  -0.026423  0  1.705149  0  0.149865  0  0.077139  -0.043268  0  1.745737  0
I  I90  1  0.71262987  0.23186812  0.77953251  1  0  0.006404  0  1.389225  0  0  -0.035913  0  1.728877  0  0  -0.026138  0  1.705585  0  0.149205  0  0.077178  -0.04307  0  1.745709  0
I  I91  1  0.93279155  0.26826477  0.22044626  1  0  0.005834  0  1.389065  0  0  -0.036147  0  1.728662  0  0  -0.026389  0  1.705154  0  0.150006  0  0.077146  -0.043259  0  1.74575  0
O  O92  1  0.26164239  0.10242449  0.04776617  1  0  -0.334683  0  2.279421  0  0  -0.259292  0  2.523721  0  0  -0.27492  0  2.525036  0  -1.065329  0  -0.279827  -0.248389  0  2.522409  0
O  O93  1  0.21386510  0.39748604  0.95216891  1  0  -0.334065  0  2.280086  0  0  -0.258629  0  2.52458  0  0  -0.274172  0  2.525913  0  -1.060971  0  -0.280303  -0.247759  0  2.523305  0
O  O94  1  0.73835734  0.89757530  0.95223347  1  0  -0.334619  0  2.27948  0  0  -0.259274  0  2.523749  0  0  -0.274903  0  2.525065  0  -1.065357  0  -0.27982  -0.24837  0  2.522439  0
O  O95  1  0.78613574  0.60251375  0.04783165  1  0  -0.334041  0  2.280105  0  0  -0.25862  0  2.52462  0  0  -0.274161  0  2.52596  0  -1.060966  0  -0.280297  -0.247748  0  2.52334  0
O  O96  1  0.48665314  0.01898329  0.19073100  1  0  -0.343347  0  2.335621  0  0  -0.266845  0  2.585253  0  0  -0.28311  0  2.588713  0  -1.078618  0  -0.286706  -0.255336  0  2.582496  0
O  O97  1  0.29583096  0.48091802  0.80921428  1  0  -0.34467  0  2.334142  0  0  -0.26564  0  2.583782  0  0  -0.282008  0  2.58724  0  -1.071199  0  -0.286154  -0.254079  0  2.58103  0
O  O98  1  0.51334659  0.98101651  0.80926932  1  0  -0.343338  0  2.335635  0  0  -0.266849  0  2.585252  0  0  -0.283113  0  2.588708  0  -1.078616  0  -0.286711  -0.255341  0  2.582495  0
O  O99  1  0.70416877  0.51908178  0.19078536  1  0  -0.3446  0  2.334077  0  0  -0.265547  0  2.583714  0  0  -0.281907  0  2.587171  0  -1.071209  0  -0.286135  -0.253985  0  2.580961  0
O  O100  1  0.74972763  0.96203155  0.15450374  1  0  -0.340786  0  2.29907  0  0  -0.26735  0  2.551837  0  0  -0.28302  0  2.554051  0  -1.059656  0  -0.285888  -0.255985  0  2.549752  0
O  O101  1  0.59517933  0.53797780  0.84558401  1  0  -0.341154  0  2.29996  0  0  -0.267748  0  2.552089  0  0  -0.28344  0  2.554335  0  -1.065301  0  -0.285831  -0.256372  0  2.549985  0
O  O102  1  0.25027211  0.03796825  0.84549658  1  0  -0.340773  0  2.299074  0  0  -0.267339  0  2.551853  0  0  -0.283008  0  2.554076  0  -1.059652  0  -0.285892  -0.255973  0  2.549768  0
O  O103  1  0.40482150  0.46202200  0.15441587  1  0  -0.341149  0  2.29995  0  0  -0.267738  0  2.552077  0  0  -0.283429  0  2.554326  0  -1.065042  0  -0.285817  -0.256362  0  2.549973  0
F  F104  1  0.34105025  0.85596042  0.43577622  1  0  -0.199299  0  1.226152  0  0  -0.160867  0  1.396951  0  0  -0.169829  0  1.383357  0  -0.613119  0  -0.113356  -0.154174  0  1.406294  0
F  F105  1  0.90515980  0.64389453  0.56412765  1  0  -0.199319  0  1.226831  0  0  -0.160643  0  1.397907  0  0  -0.169654  0  1.384093  0  -0.611636  0  -0.112948  -0.153919  0  1.407399  0
F  F106  1  0.65894955  0.14404021  0.56422425  1  0  -0.199286  0  1.226175  0  0  -0.160851  0  1.396976  0  0  -0.169815  0  1.383384  0  -0.613109  0  -0.113348  -0.154159  0  1.406319  0
F  F107  1  0.09483876  0.35610443  0.43587160  1  0  -0.199246  0  1.226868  0  0  -0.160615  0  1.39793  0  0  -0.169628  0  1.384139  0  -0.611605  0  -0.112916  -0.153893  0  1.407422  0
F  F108  1  0.11557354  0.77657112  0.35779238  1  0  -0.210636  0  1.20783  0  0  -0.164265  0  1.374161  0  0  -0.173796  0  1.361573  0  -0.615356  0  -0.111853  -0.157415  0  1.383068  0
F  F109  1  0.75786256  0.72338033  0.64210713  1  0  -0.211139  0  1.205318  0  0  -0.164982  0  1.372226  0  0  -0.174634  0  1.359472  0  -0.61252  0  -0.112468  -0.158043  0  1.381263  0
F  F110  1  0.88442611  0.22342784  0.64220710  1  0  -0.210631  0  1.207836  0  0  -0.164254  0  1.374164  0  0  -0.17378  0  1.361571  0  -0.615356  0  -0.111838  -0.157404  0  1.383071  0
F  F111  1  0.24213717  0.27661947  0.35789183  1  0  -0.211115  0  1.205345  0  0  -0.164972  0  1.372217  0  0  -0.174616  0  1.359472  0  -0.612401  0  -0.11247  -0.158033  0  1.381252  0
F  F112  1  0.45906107  0.65010622  0.41165277  1  0  -0.17984  0  1.235385  0  0  -0.141382  0  1.405983  0  0  -0.149827  0  1.393105  0  -0.606503  0  -0.093394  -0.135155  0  1.414736  0
F  F113  1  0.04755149  0.84973866  0.58840438  1  0  -0.178648  0  1.237139  0  0  -0.141768  0  1.406774  0  0  -0.150359  0  1.394444  0  -0.604351  0  -0.093813  -0.135629  0  1.415553  0
F  F114  1  0.54093874  0.34989441  0.58834633  1  0  -0.179857  0  1.235371  0  0  -0.141424  0  1.405951  0  0  -0.14986  0  1.393091  0  -0.606487  0  -0.093403  -0.135198  0  1.414704  0
F  F115  1  0.95244832  0.15026197  0.41159473  1  0  -0.178632  0  1.237115  0  0  -0.141762  0  1.406771  0  0  -0.15036  0  1.394406  0  -0.60435  0  -0.093814  -0.135626  0  1.415547  0
F  F116  1  0.23438355  0.56760478  0.32744800  1  0  -0.185647  0  1.221733  0  0  -0.143319  0  1.389484  0  0  -0.153033  0  1.37816  0  -0.616456  0  -0.093336  -0.137082  0  1.398053  0
F  F117  1  0.90707300  0.93225689  0.67246155  1  0  -0.184373  0  1.222479  0  0  -0.144041  0  1.38963  0  0  -0.153194  0  1.378332  0  -0.615506  0  -0.093482  -0.137673  0  1.398056  0
F  F118  1  0.76561839  0.43239502  0.67255280  1  0  -0.185661  0  1.22171  0  0  -0.143348  0  1.389438  0  0  -0.153054  0  1.378131  0  -0.616462  0  -0.09335  -0.137112  0  1.398007  0
F  F119  1  0.09292878  0.06774123  0.32753962  1  0  -0.184427  0  1.222441  0  0  -0.144099  0  1.389602  0  0  -0.153277  0  1.378268  0  -0.615548  0  -0.093492  -0.137731  0  1.398025  0
F  F120  1  0.34873705  0.54031798  0.51730765  1  0  -0.220186  0  1.187917  0  0  -0.190439  0  1.364346  0  0  -0.199458  0  1.346494  0  -0.60684  0  -0.09103  -0.183916  0  1.376695  0
F  F121  1  0.83137988  0.95961752  0.48269070  1  0  -0.220523  0  1.187909  0  0  -0.191485  0  1.363436  0  0  -0.200405  0  1.345656  0  -0.60808  0  -0.091356  -0.185056  0  1.37581  0
F  F122  1  0.65126496  0.45968265  0.48269261  1  0  -0.220241  0  1.187778  0  0  -0.190521  0  1.364161  0  0  -0.199543  0  1.346307  0  -0.606826  0  -0.091098  -0.183998  0  1.376511  0
F  F123  1  0.16861993  0.04038311  0.51731046  1  0  -0.220526  0  1.187899  0  0  -0.191505  0  1.363403  0  0  -0.200412  0  1.345619  0  -0.608083  0  -0.091374  -0.185077  0  1.375775  0
F  F124  1  0.14887222  0.63381637  0.48953779  1  0  -0.215616  0  1.192032  0  0  -0.190082  0  1.368003  0  0  -0.198695  0  1.34981  0  -0.608711  0  -0.093765  -0.18383  0  1.380603  0
F  F125  1  0.65920101  0.86615437  0.51027633  1  0  -0.215646  0  1.192617  0  0  -0.190883  0  1.367837  0  0  -0.199431  0  1.349787  0  -0.602831  0  -0.094366  -0.184709  0  1.380363  0
F  F126  1  0.85112972  0.36618342  0.51046300  1  0  -0.215611  0  1.192  0  0  -0.190104  0  1.367919  0  0  -0.19872  0  1.349728  0  -0.608746  0  -0.09378  -0.183851  0  1.380519  0
F  F127  1  0.34079982  0.13384542  0.48972491  1  0  -0.215614  0  1.192626  0  0  -0.190865  0  1.367816  0  0  -0.199402  0  1.349768  0  -0.602832  0  -0.094358  -0.184692  0  1.380342  0
F  F128  1  0.36605319  0.72228533  0.57412748  1  0  -0.227651  0  1.17898  0  0  -0.187386  0  1.344085  0  0  -0.198496  0  1.329117  0  -0.617889  0  -0.087797  -0.179797  0  1.35477  0
F  F129  1  0.79162040  0.77768122  0.42570082  1  0  -0.227394  0  1.17953  0  0  -0.187889  0  1.344041  0  0  -0.19891  0  1.32919  0  -0.611998  0  -0.08781  -0.180134  0  1.354418  0
F  F130  1  0.63394882  0.27771530  0.42587278  1  0  -0.227606  0  1.179055  0  0  -0.187388  0  1.34413  0  0  -0.198484  0  1.329149  0  -0.617876  0  -0.087772  -0.179795  0  1.354812  0
F  F131  1  0.20837838  0.22232026  0.57429820  1  0  -0.227406  0  1.179457  0  0  -0.187922  0  1.343947  0  0  -0.198942  0  1.329105  0  -0.612023  0  -0.087849  -0.18017  0  1.354324  0
