# generated using pymatgen
data_MnH12C6NClO4
_symmetry_space_group_name_H-M   'P 1'
_cell_length_a   9.49230755
_cell_length_b   10.11833696
_cell_length_c   10.48559587
_cell_angle_alpha   92.76716353
_cell_angle_beta   89.99989885
_cell_angle_gamma   90.00015024
_symmetry_Int_Tables_number   1
_chemical_formula_structural   MnH12C6NClO4
_chemical_formula_sum   'Mn4 H48 C24 N4 Cl4 O16'
_cell_volume   1005.92906831
_cell_formula_units_Z   4
loop_
 _symmetry_equiv_pos_site_id
 _symmetry_equiv_pos_as_xyz
  1  'x, y, z'
loop_
 _atom_site_type_symbol
 _atom_site_label
 _atom_site_symmetry_multiplicity
 _atom_site_fract_x
 _atom_site_fract_y
 _atom_site_fract_z
 _atom_site_occupancy
 _atom_site_pbe_cm5_charge
 _atom_site_pbe_ddec_charge
 _atom_site_pbe_ddec_spin_density
 _atom_site_pbe_ddec_sum_bond_order
 _atom_site_pbe_magmom
Mn  Mn0  1  0.72743079  0.31106333  0.78536271  1  0.53289  0.893417  4.690771  2.298364  4.476
Mn  Mn1  1  0.22744478  0.18894059  0.71463626  1  0.532861  0.893331  4.690816  2.298541  4.476
Mn  Mn2  1  0.27255725  0.68893637  0.21463230  1  0.53289  0.893406  4.690819  2.298369  4.476
Mn  Mn3  1  0.77256959  0.81105809  0.28536059  1  0.53287  0.893402  4.690778  2.298464  4.476
H  H4  1  0.96232746  0.47515298  0.86598197  1  0.337682  0.372387  0.001052  0.866089  0.001
H  H5  1  0.46232956  0.02484463  0.63401242  1  0.33771  0.372428  0.001051  0.8661  0.001
H  H6  1  0.03766584  0.52484372  0.13401476  1  0.337675  0.372379  0.001052  0.866103  0.001
H  H7  1  0.53766901  0.97515409  0.36598157  1  0.337673  0.37237  0.001052  0.866105  0.001
H  H8  1  0.42630351  0.20586785  0.92549250  1  0.268038  0.322589  0.000746  1.024064  0.002
H  H9  1  0.92630464  0.29413551  0.57450898  1  0.268025  0.322575  0.000746  1.024107  0.002
H  H10  1  0.57369927  0.79413269  0.07451209  1  0.267998  0.322511  0.000746  1.024211  0.002
H  H11  1  0.07369814  0.70586509  0.42549181  1  0.268033  0.322591  0.000746  1.024098  0.002
H  H12  1  0.67019763  0.71905786  0.80934712  1  0.103523  0.093616  0.001389  0.969582  0.001
H  H13  1  0.17020455  0.78093884  0.69065146  1  0.103533  0.093631  0.001389  0.969588  0.001
H  H14  1  0.32979251  0.28093291  0.19064924  1  0.103538  0.09362  0.001389  0.969585  0.001
H  H15  1  0.82980245  0.21905877  0.30935009  1  0.103535  0.093606  0.001389  0.96953  0.001
H  H16  1  0.82496926  0.66073123  0.73158633  1  0.101209  0.082446  0.000337  1.020133  0.0
H  H17  1  0.32497620  0.83926687  0.76840923  1  0.101227  0.082485  0.000336  1.020092  0.0
H  H18  1  0.17501983  0.33926152  0.26841016  1  0.101233  0.082471  0.000336  1.020137  0.0
H  H19  1  0.67503291  0.16073181  0.23158762  1  0.101194  0.082411  0.000337  1.020096  0.0
H  H20  1  0.86024285  0.66071364  0.96599863  1  0.105891  0.083657  4.6e-05  0.98059  0.001
H  H21  1  0.36024499  0.83928556  0.53399504  1  0.105881  0.083639  4.5e-05  0.980555  0.001
H  H22  1  0.13974939  0.33928412  0.03399340  1  0.105894  0.083669  4.5e-05  0.980504  0.001
H  H23  1  0.63975464  0.16071116  0.46600074  1  0.105889  0.083649  4.5e-05  0.980606  0.001
H  H24  1  0.70669626  0.56333969  0.98408987  1  0.104365  0.085845  -0.000261  0.996544  0.0
H  H25  1  0.20670081  0.93665709  0.51590961  1  0.104373  0.085857  -0.000261  0.996586  0.0
H  H26  1  0.29329809  0.43665697  0.01590971  1  0.104394  0.08592  -0.000261  0.996548  0.0
H  H27  1  0.79330092  0.06333659  0.48409075  1  0.104394  0.085874  -0.000261  0.996564  0.0
H  H28  1  0.17469964  0.87721809  0.95384889  1  0.099777  0.08984  0.000927  1.002444  0.001
H  H29  1  0.67469403  0.62277861  0.54615064  1  0.099769  0.089854  0.000927  1.002415  0.001
H  H30  1  0.82530735  0.12277856  0.04615165  1  0.099773  0.08988  0.000927  1.002405  0.001
H  H31  1  0.32530033  0.37721607  0.45384883  1  0.099772  0.089824  0.000927  1.002448  0.001
H  H32  1  0.10366304  0.04120178  0.96321216  1  0.108289  0.089348  -0.000394  1.004265  0.0
H  H33  1  0.60366366  0.45879396  0.53678460  1  0.108326  0.089387  -0.000394  1.004319  0.0
H  H34  1  0.89634290  0.95879683  0.03678945  1  0.108305  0.089394  -0.000394  1.004282  0.0
H  H35  1  0.39633702  0.54119983  0.46320814  1  0.108294  0.089317  -0.000394  1.004272  0.0
H  H36  1  0.33908298  0.03763487  0.05631263  1  0.098782  0.070338  0.000432  0.988928  0.001
H  H37  1  0.83909018  0.46236965  0.44369033  1  0.098784  0.070342  0.000432  0.988894  0.001
H  H38  1  0.66092190  0.96236274  0.94368892  1  0.098802  0.070362  0.000432  0.988858  0.001
H  H39  1  0.16091577  0.53763287  0.55631438  1  0.09879  0.07033  0.000432  0.988935  0.001
H  H40  1  0.41225112  0.97211596  0.91038556  1  0.090092  0.048033  0.000184  1.030243  0.0
H  H41  1  0.91224409  0.52789207  0.58962096  1  0.090097  0.048025  0.000184  1.030246  0.0
H  H42  1  0.58775798  0.02788560  0.08961719  1  0.090115  0.048092  0.000184  1.030238  0.0
H  H43  1  0.08774815  0.47211140  0.41038572  1  0.090091  0.048046  0.000184  1.030224  0.0
H  H44  1  0.95069343  0.90010594  0.80414435  1  0.104919  0.1089  0.000641  0.96755  0.001
H  H45  1  0.45068930  0.59990721  0.69585765  1  0.104922  0.108905  0.000641  0.967493  0.001
H  H46  1  0.04931251  0.09990555  0.19585710  1  0.104916  0.108902  0.000641  0.967479  0.001
H  H47  1  0.54930505  0.40009646  0.30413664  1  0.10495  0.108976  0.000641  0.967466  0.001
H  H48  1  0.98959463  0.94943486  0.64924013  1  0.103062  0.120898  0.000642  1.045301  0.001
H  H49  1  0.48959005  0.55057639  0.85076265  1  0.103062  0.120918  0.000642  1.045325  0.001
H  H50  1  0.01041342  0.05057561  0.35076317  1  0.103055  0.120862  0.000642  1.045342  0.001
H  H51  1  0.51039903  0.44942820  0.14923647  1  0.103028  0.120934  0.000642  1.045231  0.001
C  C52  1  0.23703878  0.86935462  0.70798228  1  -0.072933  -0.111576  0.002213  3.900071  0.001
C  C53  1  0.73703374  0.63064421  0.79201728  1  -0.072912  -0.111546  0.002213  3.900042  0.001
C  C54  1  0.76296717  0.13064399  0.29201933  1  -0.072885  -0.111406  0.002213  3.899867  0.001
C  C55  1  0.26295534  0.36934852  0.20798016  1  -0.072972  -0.11153  0.002213  3.900121  0.001
C  C56  1  0.29297057  0.91525580  0.58131995  1  -0.075055  0.040239  0.003118  3.889175  0.002
C  C57  1  0.79296727  0.58474121  0.91867750  1  -0.075045  0.04028  0.003119  3.889114  0.002
C  C58  1  0.70702905  0.08473990  0.41867767  1  -0.075126  0.040113  0.003119  3.889335  0.002
C  C59  1  0.20702709  0.41525548  0.08132018  1  -0.075133  0.040028  0.003119  3.889287  0.002
C  C60  1  0.18415485  0.97722095  0.91739312  1  -0.076817  -0.114287  0.000943  3.91217  0.0
C  C61  1  0.68415414  0.52277680  0.58260360  1  -0.07688  -0.114352  0.000943  3.912393  0.0
C  C62  1  0.81584794  0.02277569  0.08260742  1  -0.076842  -0.114349  0.000943  3.91237  0.0
C  C63  1  0.31584338  0.47721891  0.41739307  1  -0.076798  -0.114164  0.000942  3.912177  0.0
C  C64  1  0.32703549  0.03426376  0.95175065  1  -0.077318  0.05212  0.002991  3.931835  0.002
C  C65  1  0.82703505  0.46573932  0.54825384  1  -0.077345  0.052065  0.002991  3.931876  0.002
C  C66  1  0.67296939  0.96573383  0.04825281  1  -0.077332  0.052012  0.002991  3.931968  0.002
C  C67  1  0.17296457  0.53426122  0.45175076  1  -0.07738  0.05201  0.002991  3.931937  0.002
C  C68  1  0.00766578  0.97541768  0.75105845  1  -0.075373  -0.249175  0.004193  3.945085  0.001
C  C69  1  0.50766054  0.52459046  0.74894396  1  -0.07539  -0.249281  0.004193  3.9453  0.001
C  C70  1  0.99234121  0.02458981  0.24894466  1  -0.075369  -0.249184  0.004192  3.945213  0.001
C  C71  1  0.49233066  0.47541018  0.25105397  1  -0.075315  -0.249292  0.004193  3.945033  0.001
C  C72  1  0.94076325  0.11032073  0.77940217  1  0.214261  0.600068  0.019236  4.164536  0.015
C  C73  1  0.44073777  0.38969744  0.72060401  1  0.214246  0.600257  0.019233  4.165174  0.015
C  C74  1  0.05926797  0.88969660  0.22060536  1  0.214276  0.60027  0.019231  4.165171  0.015
C  C75  1  0.55923763  0.61031115  0.27939250  1  0.214396  0.600408  0.019235  4.164313  0.015
N  N76  1  0.15892719  0.97648956  0.77820140  1  -0.337868  -0.10141  0.033037  3.504907  0.025
N  N77  1  0.65891989  0.52351007  0.72179834  1  -0.337822  -0.101298  0.033035  3.504831  0.025
N  N78  1  0.84108086  0.02351104  0.22179939  1  -0.337832  -0.101401  0.033036  3.504971  0.025
N  N79  1  0.34107131  0.47648365  0.27819916  1  -0.337855  -0.101444  0.033041  3.504916  0.025
Cl  Cl80  1  0.10572329  0.20854470  0.50948249  1  -0.256923  -0.518104  0.066335  1.206799  0.036
Cl  Cl81  1  0.60572359  0.29145489  0.99052213  1  -0.256935  -0.518133  0.066337  1.206737  0.036
Cl  Cl82  1  0.89427738  0.79145588  0.49051925  1  -0.256937  -0.518119  0.066336  1.206743  0.036
Cl  Cl83  1  0.39427814  0.70854278  0.00947656  1  -0.256947  -0.518126  0.066335  1.206724  0.036
O  O84  1  0.36861584  0.03923977  0.59912856  1  -0.381799  -0.478964  0.034173  2.390613  0.021
O  O85  1  0.86860941  0.46075566  0.90086490  1  -0.381784  -0.47897  0.034176  2.39052  0.021
O  O86  1  0.63138589  0.96075501  0.40086424  1  -0.381733  -0.47884  0.034171  2.39057  0.021
O  O87  1  0.13138389  0.53924103  0.09913279  1  -0.381706  -0.478812  0.034173  2.39059  0.021
O  O88  1  0.33282884  0.16465087  0.90376538  1  -0.392147  -0.483635  0.03847  2.470235  0.027
O  O89  1  0.83283004  0.33535220  0.59624005  1  -0.392094  -0.483537  0.03847  2.470146  0.027
O  O90  1  0.66717394  0.83534668  0.09623998  1  -0.392107  -0.483528  0.038472  2.470412  0.027
O  O91  1  0.16717169  0.66464835  0.40376360  1  -0.392101  -0.48355  0.038467  2.470156  0.027
O  O92  1  0.01990931  0.21025170  0.80312082  1  -0.307371  -0.559393  0.051756  2.277175  0.036
O  O93  1  0.51988490  0.28975458  0.69688626  1  -0.307485  -0.559671  0.051769  2.277338  0.036
O  O94  1  0.98011455  0.78975278  0.19688497  1  -0.307543  -0.559752  0.051771  2.277184  0.036
O  O95  1  0.48009260  0.71024401  0.30311631  1  -0.307536  -0.559624  0.051759  2.277176  0.036
O  O96  1  0.80688328  0.11633745  0.77420917  1  -0.319226  -0.537231  0.046993  2.252226  0.03
O  O97  1  0.30686725  0.38367837  0.72580089  1  -0.319073  -0.537165  0.046986  2.252706  0.03
O  O98  1  0.19313320  0.88367592  0.22579812  1  -0.319082  -0.537165  0.046985  2.252834  0.03
O  O99  1  0.69311973  0.61633109  0.27420329  1  -0.31924  -0.537347  0.046996  2.252173  0.03
