# generated using pymatgen
data_Mn3H50C64N4O19
_symmetry_space_group_name_H-M   'P 1'
_cell_length_a   16.53491982
_cell_length_b   17.93974759
_cell_length_c   17.93935215
_cell_angle_alpha   67.63248431
_cell_angle_beta   73.01390389
_cell_angle_gamma   73.01390289
_symmetry_Int_Tables_number   1
_chemical_formula_structural   Mn3H50C64N4O19
_chemical_formula_sum   'Mn6 H100 C128 N8 O38'
_cell_volume   4606.76778623
_cell_formula_units_Z   2
loop_
 _symmetry_equiv_pos_site_id
 _symmetry_equiv_pos_as_xyz
  1  'x, y, z'
loop_
 _atom_site_type_symbol
 _atom_site_label
 _atom_site_symmetry_multiplicity
 _atom_site_fract_x
 _atom_site_fract_y
 _atom_site_fract_z
 _atom_site_occupancy
 _atom_site_pbe_bader_charge
 _atom_site_pbe_bader_spin_density
 _atom_site_pbe_cm5_charge
 _atom_site_pbe_ddec_charge
 _atom_site_pbe_ddec_spin_density
 _atom_site_pbe_ddec_sum_bond_order
 _atom_site_pbe_magmom
Mn  Mn0  1  0.00000866  0.49998610  0.99999248  1  1.564971  4.518943  0.618933  1.088887  4.655644  2.337916  4.464
Mn  Mn1  1  0.49997344  0.00004279  0.50000555  1  1.564875  4.518997  0.61898  1.088953  4.655686  2.33774  4.464
Mn  Mn2  1  0.04336942  0.32126301  0.14591131  1  1.460552  4.545468  0.615371  0.904148  4.673943  2.338727  4.435
Mn  Mn3  1  0.45663566  0.85409829  0.67872541  1  1.460615  4.545445  0.615394  0.904257  4.673901  2.338726  4.435
Mn  Mn4  1  0.95663407  0.67872021  0.85411537  1  1.460506  4.545509  0.615416  0.904371  4.673889  2.33847  4.435
Mn  Mn5  1  0.54337675  0.14589486  0.32125056  1  1.460772  4.545425  0.615361  0.904158  4.673871  2.338777  4.435
H  H6  1  0.96039348  0.18671225  0.74504949  1  0.050532  0.000132  0.10566  0.074804  8.1e-05  0.984585  0.0
H  H7  1  0.53960534  0.25495643  0.81328143  1  0.05057  0.000132  0.105637  0.074712  8.1e-05  0.984653  0.0
H  H8  1  0.03960604  0.81329009  0.25495205  1  0.050526  0.000132  0.105699  0.074834  8.1e-05  0.98456  0.0
H  H9  1  0.46039661  0.74504963  0.18670915  1  0.050481  0.000132  0.105688  0.074848  8.1e-05  0.984546  0.0
H  H10  1  0.84870519  0.23329953  0.77274502  1  0.08223  0.000117  0.101324  0.068985  6.8e-05  0.993633  0.0
H  H11  1  0.65129553  0.22725974  0.76669884  1  0.082204  0.000117  0.101349  0.068926  6.8e-05  0.993614  0.0
H  H12  1  0.15129471  0.76670405  0.22725485  1  0.082239  0.000117  0.101351  0.068936  6.8e-05  0.993628  0.0
H  H13  1  0.34870637  0.77274630  0.23329844  1  0.0823  0.000117  0.101313  0.068939  6.8e-05  0.993653  0.0
H  H14  1  0.99820911  0.33445074  0.58078233  1  0.063752  8.4e-05  0.105567  0.075558  5.1e-05  0.981117  0.0
H  H15  1  0.50179464  0.41922100  0.66554692  1  0.06316  8.4e-05  0.105522  0.075525  5.1e-05  0.981211  0.0
H  H16  1  0.00179442  0.66555344  0.41922025  1  0.063933  8.4e-05  0.105572  0.07558  5.1e-05  0.981141  0.0
H  H17  1  0.49820893  0.58078320  0.33445062  1  0.064019  8.4e-05  0.105566  0.075608  5.1e-05  0.981096  0.0
H  H18  1  0.97379488  0.29130119  0.51625375  1  0.076078  7.2e-05  0.106773  0.076971  4.2e-05  0.991573  0.0
H  H19  1  0.52620657  0.48374608  0.70870070  1  0.076808  7.2e-05  0.106756  0.076968  4.2e-05  0.991575  0.0
H  H20  1  0.02620292  0.70870916  0.48374690  1  0.076407  7.2e-05  0.106734  0.077004  4.2e-05  0.991534  0.0
H  H21  1  0.47379510  0.51625812  0.29129679  1  0.076162  7.2e-05  0.106752  0.076991  4.2e-05  0.991559  0.0
H  H22  1  0.81066585  0.18002196  0.67436140  1  0.084515  6e-05  0.105238  0.073953  3.5e-05  1.009512  0.0
H  H23  1  0.68933379  0.32563703  0.81998375  1  0.084681  6e-05  0.105258  0.073967  3.5e-05  1.009456  0.0
H  H24  1  0.18933375  0.81998592  0.32563747  1  0.08473  6e-05  0.105254  0.073951  3.5e-05  1.009495  0.0
H  H25  1  0.31066839  0.67436470  0.18001732  1  0.084679  6e-05  0.105265  0.074  3.5e-05  1.009452  0.0
H  H26  1  0.92268670  0.12973442  0.65917449  1  0.061013  8.4e-05  0.10148  0.071586  5.1e-05  0.986184  0.0
H  H27  1  0.57731085  0.34082557  0.87026777  1  0.060962  8.4e-05  0.101521  0.071646  5.1e-05  0.986239  0.0
H  H28  1  0.07731342  0.87027100  0.34082629  1  0.061004  8.4e-05  0.101487  0.071588  5.1e-05  0.986293  0.0
H  H29  1  0.42268779  0.65917801  0.12973019  1  0.060918  8.4e-05  0.101504  0.071627  5.1e-05  0.986213  0.0
H  H30  1  0.81583836  0.34816447  0.55730986  1  0.045103  1.3e-05  0.100903  0.069285  7e-06  0.978133  0.0
H  H31  1  0.68416791  0.44268989  0.65183696  1  0.045043  1.3e-05  0.100944  0.069278  8e-06  0.97809  0.0
H  H32  1  0.18416555  0.65184096  0.44269048  1  0.045215  1.4e-05  0.100932  0.069277  8e-06  0.97809  0.0
H  H33  1  0.31583426  0.55731492  0.34816184  1  0.045086  1.3e-05  0.100947  0.069301  8e-06  0.978175  0.0
H  H34  1  0.84293479  0.39230039  0.61926683  1  0.047704  1e-05  0.100168  0.068116  4e-06  0.978738  0.0
H  H35  1  0.65707183  0.38073600  0.60769715  1  0.047695  1e-05  0.100164  0.068119  4e-06  0.978663  0.0
H  H36  1  0.15706774  0.60770565  0.38073196  1  0.047861  1e-05  0.100192  0.068146  4e-06  0.97861  0.0
H  H37  1  0.34293273  0.61926942  0.39230023  1  0.047714  1e-05  0.100127  0.068079  4e-06  0.978704  0.0
H  H38  1  0.91646290  0.19423487  0.88127554  1  0.053342  2.4e-05  0.099773  0.108772  -4e-05  1.022638  0.0
H  H39  1  0.58353701  0.11873560  0.80575674  1  0.053392  2.4e-05  0.099754  0.108709  -4e-05  1.022713  0.0
H  H40  1  0.08353199  0.80576256  0.11872797  1  0.05343  2.3e-05  0.099758  0.10873  -4e-05  1.022683  0.0
H  H41  1  0.41646412  0.88127414  0.19423656  1  0.053363  2.3e-05  0.099757  0.108732  -4e-05  1.022735  0.0
H  H42  1  0.95826888  0.20025495  0.00110918  1  0.098081  0.000528  0.104532  0.107986  5.4e-05  0.993551  0.0
H  H43  1  0.54172273  0.99890975  0.79973968  1  0.098213  0.000528  0.104517  0.107953  5.4e-05  0.993617  0.0
H  H44  1  0.04172529  0.79973693  0.99889885  1  0.098042  0.000528  0.1045  0.10794  5.4e-05  0.993549  0.0
H  H45  1  0.45826682  0.00110368  0.20026087  1  0.098181  0.000528  0.104527  0.10801  5.3e-05  0.993603  0.0
H  H46  1  0.04608241  0.42484387  0.85161750  1  0.123068  0.000362  0.110217  0.114176  -0.000424  1.011049  0.0
H  H47  1  0.45391206  0.14839968  0.57514468  1  0.122942  0.000362  0.110209  0.114137  -0.000424  1.010994  0.0
H  H48  1  0.95392326  0.57514430  0.14839503  1  0.122926  0.000362  0.110157  0.114119  -0.000425  1.011061  0.0
H  H49  1  0.54607510  0.85161314  0.42485505  1  0.123206  0.000362  0.110173  0.114177  -0.000425  1.011116  0.0
H  H50  1  0.00358671  0.42036147  0.73058670  1  0.073899  7e-06  0.106696  0.119801  -4.9e-05  0.985347  0.0
H  H51  1  0.49641612  0.26942507  0.57962731  1  0.073762  7e-06  0.106788  0.119963  -4.9e-05  0.985315  0.0
H  H52  1  0.99641901  0.57963532  0.26942311  1  0.073514  7e-06  0.106721  0.119869  -4.9e-05  0.985299  0.0
H  H53  1  0.50358528  0.73058345  0.42036527  1  0.073781  7e-06  0.106744  0.119876  -4.9e-05  0.985294  0.0
H  H54  1  0.17619950  0.09305395  0.63757079  1  0.091488  5e-05  0.109057  0.12601  -1.7e-05  0.9788  0.0
H  H55  1  0.32379963  0.36242361  0.90694141  1  0.091601  5e-05  0.1091  0.126066  -1.7e-05  0.978828  0.0
H  H56  1  0.82378950  0.90694473  0.36242377  1  0.091617  5e-05  0.109086  0.126071  -1.7e-05  0.97875  0.0
H  H57  1  0.67620872  0.63757320  0.09305209  1  0.091501  5e-05  0.109057  0.125958  -1.7e-05  0.978796  0.0
H  H58  1  0.32585274  0.08031084  0.55416226  1  0.134117  0.00068  0.110938  0.119078  -5.5e-05  1.040913  0.0
H  H59  1  0.17414457  0.44582709  0.91968154  1  0.134333  0.000679  0.111005  0.119111  -5.7e-05  1.040788  0.0
H  H60  1  0.67413666  0.91968290  0.44583740  1  0.134345  0.000678  0.111007  0.119129  -6e-05  1.040731  0.0
H  H61  1  0.82586185  0.55416111  0.08031294  1  0.134021  0.000679  0.110982  0.119118  -5.8e-05  1.040784  0.0
H  H62  1  0.24771590  0.30857113  0.36904142  1  0.080078  0.000369  0.103255  0.105262  8.9e-05  1.01055  0.0
H  H63  1  0.25228278  0.63095300  0.69142721  1  0.080156  0.000369  0.103246  0.10525  8.9e-05  1.010532  0.0
H  H64  1  0.75228225  0.69142323  0.63095123  1  0.080117  0.000369  0.103206  0.105224  8.9e-05  1.010588  0.0
H  H65  1  0.74771284  0.36904688  0.30857517  1  0.080109  0.000369  0.103245  0.105272  8.9e-05  1.010586  0.0
H  H66  1  0.09939885  0.32433099  0.45364609  1  0.081615  5e-05  0.102614  0.114896  -0.0  1.016775  0.0
H  H67  1  0.40060239  0.54635317  0.67566668  1  0.081575  5e-05  0.102581  0.114856  -0.0  1.016824  0.0
H  H68  1  0.90059725  0.67566707  0.54634459  1  0.081397  5e-05  0.102605  0.114826  -0.0  1.016936  0.0
H  H69  1  0.59939824  0.45365287  0.32433262  1  0.081579  5e-05  0.102618  0.11489  -0.0  1.016756  0.0
H  H70  1  0.78273532  0.08324789  0.65281646  1  0.063322  9.5e-05  0.100184  0.110866  3.3e-05  1.017707  0.0
H  H71  1  0.71725839  0.34718037  0.91676052  1  0.062574  9.5e-05  0.100149  0.110859  3.3e-05  1.017637  0.0
H  H72  1  0.21726584  0.91675569  0.34718307  1  0.062419  9.5e-05  0.100175  0.110858  3.3e-05  1.017736  0.0
H  H73  1  0.28273562  0.65281829  0.08324053  1  0.062692  9.5e-05  0.100166  0.110864  3.3e-05  1.01764  0.0
H  H74  1  0.68346030  0.03937755  0.60467481  1  0.112118  0.000245  0.104273  0.105271  -0.000139  1.013461  0.0
H  H75  1  0.81653895  0.39531904  0.96062851  1  0.112053  0.000245  0.104304  0.105296  -0.000139  1.01347  0.0
H  H76  1  0.31654114  0.96062172  0.39532851  1  0.112111  0.000245  0.104299  0.105288  -0.000139  1.013485  0.0
H  H77  1  0.18346284  0.60467284  0.03937248  1  0.112164  0.000245  0.104292  0.105283  -0.000139  1.013476  0.0
H  H78  1  0.75619175  0.19998265  0.35921210  1  0.06277  0.000316  0.101783  0.101038  -0.000238  1.023289  0.0
H  H79  1  0.74381598  0.64077486  0.80002087  1  0.062766  0.000315  0.101793  0.101071  -0.000238  1.023438  0.0
H  H80  1  0.24382129  0.80000985  0.64078402  1  0.062877  0.000315  0.101806  0.10101  -0.000238  1.02342  0.0
H  H81  1  0.25619332  0.35922008  0.19998423  1  0.06286  0.000315  0.10177  0.101068  -0.000238  1.023425  0.0
H  H82  1  0.85476029  0.24703522  0.40612910  1  0.107848  0.000199  0.104479  0.121952  -8.1e-05  1.010162  0.0
H  H83  1  0.64524049  0.59386653  0.75296757  1  0.107947  0.000199  0.104474  0.121936  -8.1e-05  1.010059  0.0
H  H84  1  0.14524690  0.75296097  0.59386884  1  0.108014  0.000199  0.104499  0.121988  -8.1e-05  1.010082  0.0
H  H85  1  0.35476355  0.40613828  0.24703352  1  0.107886  0.000199  0.104506  0.121972  -8.1e-05  1.010093  0.0
H  H86  1  0.21223798  0.23595308  0.24549834  1  0.103764  0.000453  0.126532  0.122113  -8e-05  1.003814  0.0
H  H87  1  0.28776342  0.75451473  0.76404243  1  0.103802  0.000453  0.126499  0.122057  -8e-05  1.003882  0.0
H  H88  1  0.78776676  0.76403940  0.75451448  1  0.103553  0.000453  0.126477  0.122049  -8e-05  1.003921  0.0
H  H89  1  0.71223773  0.24549193  0.23595370  1  0.103869  0.000453  0.126522  0.1221  -8e-05  1.003864  0.0
H  H90  1  0.19815026  0.10571914  0.39272612  1  0.105174  0.000685  0.128963  0.133139  0.000383  1.007597  0.0
H  H91  1  0.30184592  0.60727874  0.89426538  1  0.105118  0.000684  0.128964  0.133132  0.000382  1.007616  0.0
H  H92  1  0.80184253  0.89427027  0.60728543  1  0.105208  0.000684  0.129013  0.133192  0.000382  1.007555  0.0
H  H93  1  0.69815331  0.39272240  0.10572332  1  0.105304  0.000684  0.128988  0.13319  0.000383  1.007568  0.0
H  H94  1  0.96896162  0.17593026  0.29978009  1  0.167915  0.000584  0.146324  0.115902  0.000271  0.990341  0.0
H  H95  1  0.53104010  0.70021167  0.82406999  1  0.168331  0.000584  0.14635  0.115945  0.000271  0.990342  0.0
H  H96  1  0.03104363  0.82406349  0.70020926  1  0.168329  0.000584  0.14636  0.115895  0.000271  0.990371  0.0
H  H97  1  0.46895740  0.29978821  0.17593525  1  0.168315  0.000585  0.146338  0.115871  0.000272  0.99029  0.0
H  H98  1  0.09492534  0.07330106  0.51994051  1  0.102512  6.4e-05  0.110493  0.116437  3.9e-05  1.017161  0.0
H  H99  1  0.40506966  0.48005942  0.92669637  1  0.102334  6.4e-05  0.110509  0.11644  3.9e-05  1.017131  0.0
H  H100  1  0.90506564  0.92669698  0.48006157  1  0.10222  6.4e-05  0.110506  0.116423  3.9e-05  1.017184  0.0
H  H101  1  0.59492689  0.51993924  0.07330289  1  0.102441  6.4e-05  0.110501  0.116424  3.9e-05  1.017169  0.0
H  H102  1  0.02814663  0.96725428  0.63891064  1  0.059678  0.000112  0.113764  0.116934  2.1e-05  0.988921  0.0
H  H103  1  0.47184641  0.36109286  0.03274435  1  0.059307  0.000112  0.113738  0.116902  2.1e-05  0.988945  0.0
H  H104  1  0.97184336  0.03274253  0.36109105  1  0.058973  0.000113  0.113751  0.116966  2.1e-05  0.988887  0.0
H  H105  1  0.52814834  0.63890826  0.96725613  1  0.05924  0.000112  0.113766  0.116944  2.1e-05  0.988901  0.0
C  C106  1  0.89869915  0.26154293  0.64090661  1  0.043988  2e-05  -0.021078  0.047546  4e-06  3.811681  0.0
C  C107  1  0.60130166  0.35909509  0.73845721  1  0.044235  2e-05  -0.02108  0.047529  4e-06  3.811763  0.0
C  C108  1  0.10130121  0.73846434  0.35909285  1  0.043299  2e-05  -0.021064  0.04741  4e-06  3.811911  0.0
C  C109  1  0.39869938  0.64090910  0.26153989  1  0.043942  2e-05  -0.021067  0.047653  4e-06  3.811653  0.0
C  C110  1  0.91010123  0.24254536  0.72856885  1  0.404622  -5e-06  -0.061562  -0.021978  2.9e-05  3.866131  0.0
C  C111  1  0.58990052  0.27143699  0.75745022  1  0.403771  -5e-06  -0.061524  -0.021696  2.9e-05  3.865995  0.0
C  C112  1  0.08989827  0.75745698  0.27143548  1  0.404538  -5e-06  -0.061551  -0.021813  2.9e-05  3.866212  0.0
C  C113  1  0.41010446  0.72856659  0.24254495  1  0.404589  -5e-06  -0.061611  -0.02203  2.9e-05  3.866288  0.0
C  C114  1  0.98191721  0.28011605  0.57860230  1  0.412637  3e-06  -0.063949  -0.026421  2.2e-05  3.869236  0.0
C  C115  1  0.51808669  0.42140004  0.71988251  1  0.412592  3e-06  -0.063873  -0.026359  2.2e-05  3.869308  0.0
C  C116  1  0.01808454  0.71989060  0.42139814  1  0.412549  3e-06  -0.064026  -0.026611  2.2e-05  3.869397  0.0
C  C117  1  0.48191675  0.57860477  0.28011372  1  0.412298  3e-06  -0.064013  -0.026631  2.2e-05  3.869322  0.0
C  C118  1  0.87549926  0.18644044  0.63667933  1  0.396276  1.4e-05  -0.062745  -0.023581  3e-05  3.858219  0.0
C  C119  1  0.62449935  0.36331902  0.81356073  1  0.396074  1.4e-05  -0.062767  -0.023601  3e-05  3.858087  0.0
C  C120  1  0.12450051  0.81356376  0.36331810  1  0.3964  1.4e-05  -0.062783  -0.023557  2.9e-05  3.858206  0.0
C  C121  1  0.37550156  0.63668579  0.18643616  1  0.39614  1.4e-05  -0.06278  -0.023643  2.9e-05  3.858092  0.0
C  C122  1  0.82587268  0.33715880  0.61923457  1  0.448238  1.2e-05  -0.065022  -0.020764  9e-06  3.889715  0.0
C  C123  1  0.67413203  0.38076727  0.66284176  1  0.448266  1.2e-05  -0.065046  -0.020732  9e-06  3.889666  0.0
C  C124  1  0.17413034  0.66284785  0.38076442  1  0.448137  1.2e-05  -0.065029  -0.020703  9e-06  3.889632  0.0
C  C125  1  0.32587099  0.61923939  0.33715611  1  0.448362  1.2e-05  -0.065011  -0.020758  9e-06  3.889827  0.0
C  C126  1  0.95751425  0.30769906  0.79853627  1  0.429719  0.006565  0.087417  0.269852  0.00534  4.062118  0.004
C  C127  1  0.54248808  0.20147433  0.69229197  1  0.429454  0.006565  0.087309  0.269681  0.00534  4.061612  0.004
C  C128  1  0.04248631  0.69229835  0.20146965  1  0.42946  0.006562  0.087341  0.269795  0.005338  4.06186  0.004
C  C129  1  0.45751445  0.79853480  0.30770009  1  0.429827  0.006563  0.087354  0.269811  0.005338  4.062068  0.004
C  C130  1  0.94477591  0.24482834  0.87425414  1  -0.065529  -0.001396  -0.118677  -0.239608  -0.001361  4.03358  -0.001
C  C131  1  0.55522345  0.12575586  0.75516502  1  -0.065609  -0.001396  -0.118603  -0.239503  -0.001362  4.03323  -0.001
C  C132  1  0.05522226  0.75516847  0.12575041  1  -0.065461  -0.001393  -0.11864  -0.239648  -0.001358  4.033547  -0.001
C  C133  1  0.44477528  0.87425326  0.24482971  1  -0.065507  -0.001394  -0.118654  -0.239616  -0.001359  4.033697  -0.001
C  C134  1  0.96840411  0.24793418  0.94140413  1  -0.034552  0.009149  -0.080677  -0.062188  0.006891  3.995714  0.006
C  C135  1  0.53158944  0.05861099  0.75206012  1  -0.034652  0.009149  -0.080694  -0.062108  0.006891  3.995679  0.006
C  C136  1  0.03159245  0.75205831  0.05860359  1  -0.034828  0.009145  -0.080622  -0.062002  0.006888  3.995626  0.006
C  C137  1  0.46840241  0.94140059  0.24793996  1  -0.034875  0.009146  -0.080601  -0.062068  0.006889  3.995693  0.006
C  C138  1  0.00496419  0.31238868  0.93378739  1  -0.009042  -0.002688  -0.027532  -0.067687  -0.00407  4.013806  -0.003
C  C139  1  0.49502913  0.06622883  0.68760533  1  -0.00879  -0.002686  -0.027485  -0.067612  -0.00407  4.01378  -0.003
C  C140  1  0.99503252  0.68760011  0.06622392  1  -0.008703  -0.002685  -0.027481  -0.067691  -0.004069  4.013802  -0.003
C  C141  1  0.50496056  0.93378090  0.31239936  1  -0.008821  -0.002687  -0.027628  -0.067745  -0.00407  4.013805  -0.003
C  C142  1  0.01796899  0.37459742  0.85720971  1  -0.029402  0.006741  -0.074335  -0.053201  0.004819  3.969015  0.004
C  C143  1  0.48202784  0.14280532  0.62539409  1  -0.029095  0.006742  -0.074327  -0.053215  0.00482  3.968981  0.004
C  C144  1  0.98203375  0.62539259  0.14280288  1  -0.029185  0.006739  -0.074358  -0.053218  0.004817  3.969178  0.004
C  C145  1  0.51796504  0.85720442  0.37460585  1  -0.029442  0.006739  -0.074277  -0.053254  0.004817  3.969044  0.004
C  C146  1  0.99428075  0.37249825  0.79026037  1  -1.7e-05  -0.00179  -0.103419  -0.201847  -0.001777  3.994455  -0.001
C  C147  1  0.50572023  0.20975261  0.62749131  1  -3.6e-05  -0.00179  -0.103424  -0.201928  -0.001778  3.994581  -0.001
C  C148  1  0.00572221  0.62749669  0.20974975  1  0.000381  -0.001787  -0.103364  -0.201853  -0.001774  3.994581  -0.001
C  C149  1  0.49427901  0.79025714  0.37250194  1  -9.6e-05  -0.001788  -0.103451  -0.201886  -0.001775  3.994432  -0.001
C  C150  1  0.02746988  0.31706644  0.00546170  1  1.513568  0.032139  0.211984  0.578093  0.032547  4.163673  0.026
C  C151  1  0.47252416  0.99456061  0.68292641  1  1.513881  0.032135  0.211893  0.578161  0.032537  4.163552  0.026
C  C152  1  0.97252760  0.68291004  0.99454848  1  1.514198  0.032142  0.211951  0.57825  0.03255  4.163444  0.026
C  C153  1  0.52746836  0.00545033  0.31708767  1  1.513947  0.032141  0.211869  0.577945  0.032546  4.163797  0.026
C  C154  1  0.12865393  0.20858430  0.55072835  1  0.414432  0.003303  0.083813  0.262875  0.00268  4.079492  0.002
C  C155  1  0.37134555  0.44926934  0.79141370  1  0.456952  0.003299  0.083796  0.262842  0.002681  4.079602  0.002
C  C156  1  0.87134075  0.79141437  0.44926694  1  0.45686  0.003298  0.08385  0.262821  0.00268  4.079625  0.002
C  C157  1  0.62865655  0.55072993  0.20858497  1  0.414402  0.003304  0.083831  0.26288  0.002681  4.079519  0.002
C  C158  1  0.19277889  0.13980396  0.57849948  1  -0.023131  -0.000865  -0.105264  -0.210604  -0.00088  4.00178  -0.001
C  C159  1  0.30721889  0.42149460  0.86019256  1  -0.065971  -0.000862  -0.105317  -0.210643  -0.00088  4.001896  -0.001
C  C160  1  0.80721303  0.86019286  0.42149556  1  -0.066014  -0.000862  -0.105391  -0.210833  -0.000881  4.001993  -0.001
C  C161  1  0.69278352  0.57850036  0.13980488  1  -0.023097  -0.000867  -0.105234  -0.210505  -0.000881  4.00178  -0.001
C  C162  1  0.27603327  0.13294559  0.53164535  1  -0.018607  0.004293  -0.078089  -0.061363  0.002843  3.966071  0.003
C  C163  1  0.22396476  0.46834539  0.86704976  1  -0.018834  0.004292  -0.078107  -0.061319  0.002843  3.966022  0.003
C  C164  1  0.72395941  0.86705061  0.46835196  1  -0.019034  0.004291  -0.078116  -0.061259  0.002841  3.965909  0.003
C  C165  1  0.77603745  0.53164465  0.13294680  1  -0.018655  0.004294  -0.07815  -0.061377  0.002843  3.965964  0.003
C  C166  1  0.29628245  0.19354610  0.45534749  1  -0.006541  -0.001231  -0.03281  -0.075145  -0.00247  4.017268  -0.002
C  C167  1  0.20371806  0.54464191  0.80645160  1  -0.005759  -0.001233  -0.032767  -0.075081  -0.002472  4.017207  -0.002
C  C168  1  0.70371275  0.80645011  0.54464915  1  -0.006322  -0.001235  -0.03281  -0.075096  -0.002474  4.017109  -0.002
C  C169  1  0.79628223  0.45534813  0.19354938  1  -0.006195  -0.001234  -0.032791  -0.075134  -0.002474  4.01733  -0.002
C  C170  1  0.23170321  0.26178419  0.42819780  1  -0.04615  0.005127  -0.083238  -0.065951  0.003865  4.008961  0.003
C  C171  1  0.26829618  0.57179566  0.73821357  1  -0.04635  0.005128  -0.083247  -0.066005  0.003866  4.008938  0.003
C  C172  1  0.76829277  0.73821140  0.57179664  1  -0.046388  0.005126  -0.083201  -0.065959  0.003865  4.00891  0.003
C  C173  1  0.73170291  0.42819992  0.26178786  1  -0.046037  0.005128  -0.083223  -0.06593  0.003866  4.009041  0.003
C  C174  1  0.14826083  0.27040094  0.47560319  1  -0.065954  -0.000516  -0.116852  -0.239763  -0.000531  4.034027  0.0
C  C175  1  0.35173954  0.52439350  0.72959662  1  -0.065724  -0.000517  -0.116867  -0.239769  -0.000531  4.034204  0.0
C  C176  1  0.85173413  0.72959650  0.52438971  1  -0.065233  -0.000517  -0.116822  -0.239629  -0.000531  4.034284  0.0
C  C177  1  0.64826242  0.47560639  0.27040242  1  -0.066083  -0.000517  -0.116906  -0.239845  -0.000532  4.034146  0.0
C  C178  1  0.38437366  0.18548405  0.40362967  1  1.516981  0.019621  0.212121  0.581794  0.02009  4.174168  0.017
C  C179  1  0.11562863  0.59635748  0.81451791  1  1.516485  0.019621  0.212021  0.581651  0.020091  4.17438  0.017
C  C180  1  0.61562189  0.81452507  0.59636868  1  1.518379  0.019602  0.212046  0.581587  0.020086  4.174539  0.017
C  C181  1  0.88436951  0.40363379  0.18548205  1  1.516987  0.019622  0.212104  0.581789  0.02009  4.174318  0.017
C  C182  1  0.82389168  0.16918372  0.53233664  1  0.384481  0.003533  0.083137  0.268897  0.002858  4.058132  0.002
C  C183  1  0.67610666  0.46766026  0.83082211  1  0.384366  0.003533  0.083061  0.268801  0.002858  4.058111  0.002
C  C184  1  0.17611240  0.83081802  0.46766281  1  0.384556  0.003533  0.083129  0.268884  0.002858  4.05801  0.002
C  C185  1  0.32389300  0.53234148  0.16917796  1  0.384395  0.003532  0.083044  0.268795  0.002858  4.057913  0.002
C  C186  1  0.77725946  0.10945656  0.58846035  1  -0.066261  -0.000569  -0.117079  -0.233428  -0.000543  4.023663  -0.001
C  C187  1  0.72273712  0.41153548  0.89055050  1  -0.065543  -0.000569  -0.116998  -0.233379  -0.000543  4.023565  -0.001
C  C188  1  0.22274373  0.89054641  0.41153775  1  -0.065258  -0.000568  -0.117088  -0.233425  -0.000542  4.023683  -0.001
C  C189  1  0.27726168  0.58846440  0.10944993  1  -0.065711  -0.000568  -0.117018  -0.233344  -0.000543  4.023696  -0.001
C  C190  1  0.72220103  0.08391816  0.56137245  1  -0.02823  0.004956  -0.083769  -0.063391  0.003678  4.001895  0.003
C  C191  1  0.77779751  0.43862057  0.91608840  1  -0.028448  0.004955  -0.083839  -0.063372  0.003678  4.001961  0.003
C  C192  1  0.27780080  0.91608234  0.43862584  1  -0.028528  0.004955  -0.083813  -0.063392  0.003678  4.001984  0.003
C  C193  1  0.22220474  0.56137501  0.08391331  1  -0.028346  0.004955  -0.083837  -0.063485  0.003678  4.002046  0.003
C  C194  1  0.71370826  0.11632764  0.47906269  1  0.005909  0.002322  -0.034297  -0.076881  0.00121  4.006872  0.001
C  C195  1  0.78629318  0.52092629  0.88367552  1  0.006832  0.002321  -0.034256  -0.077071  0.00121  4.007103  0.001
C  C196  1  0.28629778  0.88367102  0.52093239  1  0.007055  0.002324  -0.034289  -0.077019  0.001212  4.006666  0.001
C  C197  1  0.21370997  0.47906806  0.11632530  1  0.006176  0.002322  -0.034285  -0.076865  0.00121  4.006865  0.001
C  C198  1  0.76286599  0.17452302  0.42325577  1  -0.038834  0.003889  -0.08775  -0.072442  0.002703  4.010837  0.002
C  C199  1  0.73713799  0.57673716  0.82548048  1  -0.039291  0.003889  -0.087819  -0.072462  0.002702  4.011096  0.002
C  C200  1  0.23714399  0.82547194  0.57674246  1  -0.039422  0.003889  -0.087799  -0.072353  0.002702  4.01095  0.002
C  C201  1  0.26286714  0.42325964  0.17452279  1  -0.038757  0.003888  -0.087849  -0.07267  0.002702  4.011097  0.002
C  C202  1  0.81765038  0.20085894  0.44908892  1  0.000302  -0.000734  -0.110046  -0.219982  -0.000742  4.017429  -0.001
C  C203  1  0.68235107  0.55090673  0.79914534  1  0.000236  -0.000734  -0.109895  -0.219807  -0.000742  4.01724  -0.001
C  C204  1  0.18235680  0.79913725  0.55091126  1  -8.8e-05  -0.000734  -0.110006  -0.21998  -0.000741  4.017404  -0.001
C  C205  1  0.31765263  0.44909376  0.20085636  1  0.000337  -0.000734  -0.10986  -0.219708  -0.000742  4.017089  -0.001
C  C206  1  0.65050164  0.09309539  0.45136380  1  1.570953  0.021931  0.222353  0.598596  0.021336  4.172978  0.019
C  C207  1  0.84950250  0.54861489  0.90691338  1  1.570754  0.021924  0.222098  0.598636  0.02133  4.172986  0.019
C  C208  1  0.34951009  0.90691805  0.54862364  1  1.570635  0.021943  0.222156  0.598693  0.021347  4.172714  0.019
C  C209  1  0.15049943  0.45137638  0.09308614  1  1.570393  0.021933  0.222007  0.598496  0.021336  4.173095  0.019
C  C210  1  0.16002405  0.20330127  0.27839505  1  0.444  0.007857  0.010018  -0.019583  0.005228  3.988016  0.006
C  C211  1  0.33997607  0.72161352  0.79669218  1  0.444139  0.007853  0.010073  -0.019551  0.005224  3.987878  0.006
C  C212  1  0.83997898  0.79668753  0.72161459  1  0.444285  0.00785  0.010021  -0.019624  0.005222  3.987897  0.006
C  C213  1  0.66002711  0.27839252  0.20330310  1  0.443954  0.007853  0.009983  -0.019618  0.005224  3.988029  0.006
C  C214  1  0.15395689  0.13940774  0.35113257  1  0.308929  0.000396  0.004726  -0.099322  -0.000101  3.905464  0.0
C  C215  1  0.34604052  0.64887018  0.86058350  1  0.309164  0.000396  0.004682  -0.099287  -0.000101  3.905433  0.0
C  C216  1  0.84603995  0.86058352  0.64887331  1  0.309189  0.000397  0.004619  -0.099377  -0.0001  3.905456  0.0
C  C217  1  0.65395905  0.35113218  0.13941022  1  0.30861  0.000397  0.004679  -0.099346  -0.0001  3.905413  0.0
C  C218  1  0.03435810  0.17347211  0.30249855  1  0.97776  0.01852  0.153239  0.102563  0.01573  3.893938  0.013
C  C219  1  0.46564261  0.69750056  0.82652472  1  0.97774  0.018509  0.153261  0.102554  0.015721  3.893983  0.013
C  C220  1  0.96564423  0.82651732  0.69750156  1  0.977677  0.018501  0.153125  0.102513  0.015714  3.894044  0.013
C  C221  1  0.53435599  0.30250610  0.17347376  1  0.977704  0.018512  0.153304  0.102753  0.015723  3.893972  0.013
C  C222  1  0.03727185  0.05911291  0.43361513  1  0.308672  0.001423  0.099049  0.161542  0.001292  4.029738  0.001
C  C223  1  0.46272169  0.56638372  0.94088240  1  0.308428  0.001424  0.09891  0.161423  0.001293  4.029747  0.001
C  C224  1  0.96272119  0.94088144  0.56638724  1  0.30889  0.001424  0.098959  0.161431  0.001293  4.02966  0.001
C  C225  1  0.53727410  0.43361556  0.05911515  1  0.308583  0.001423  0.099102  0.161682  0.001292  4.029846  0.001
C  C226  1  0.05428052  0.04042676  0.51124238  1  -0.007089  0.000762  -0.080582  -0.131759  0.000651  3.964121  0.0
C  C227  1  0.44571398  0.48875765  0.95957050  1  -0.006252  0.000761  -0.080615  -0.13179  0.00065  3.964181  0.0
C  C228  1  0.94571122  0.95957066  0.48876029  1  -0.006308  0.000761  -0.080661  -0.131809  0.00065  3.96416  0.0
C  C229  1  0.55428233  0.51123916  0.04042952  1  -0.007137  0.000762  -0.080622  -0.131819  0.000651  3.964267  0.0
C  C230  1  0.01672396  0.98116465  0.57776927  1  0.037364  0.001139  -0.082274  -0.147622  0.000834  3.991049  0.001
C  C231  1  0.48326934  0.42223262  0.01883235  1  0.037358  0.00114  -0.082261  -0.147609  0.000835  3.991123  0.001
C  C232  1  0.98326679  0.01883155  0.42223245  1  0.037708  0.00114  -0.082247  -0.147657  0.000835  3.991014  0.001
C  C233  1  0.51672595  0.57776605  0.98116613  1  0.038316  0.00114  -0.08223  -0.147592  0.000835  3.990998  0.001
N  N234  1  0.08508663  0.22402208  0.24897406  1  -1.257871  0.056841  -0.348143  -0.291166  0.034173  3.559792  0.005
N  N235  1  0.41491689  0.75103009  0.77597649  1  -1.258049  0.056805  -0.348174  -0.291175  0.034167  3.559841  0.005
N  N236  1  0.91492175  0.77596549  0.75103128  1  -1.258165  0.056805  -0.348061  -0.291115  0.034173  3.559653  0.005
N  N237  1  0.58508714  0.24897780  0.22402009  1  -1.258075  0.056846  -0.348119  -0.291161  0.034176  3.559965  0.005
N  N238  1  0.07381190  0.12057332  0.36560903  1  -1.270149  0.006789  -0.223505  0.007208  0.004027  3.814185  0.004
N  N239  1  0.42618684  0.63438899  0.87941991  1  -1.270816  0.006787  -0.223428  0.007197  0.004026  3.814248  0.004
N  N240  1  0.92618610  0.87941857  0.63439185  1  -1.270739  0.006784  -0.223372  0.007278  0.004024  3.814104  0.004
N  N241  1  0.57381144  0.36561336  0.12057693  1  -1.270255  0.006786  -0.223582  0.006928  0.004025  3.81445  0.004
O  O242  1  0.75000203  0.32025470  0.67974683  1  -1.078015  2.6e-05  -0.227768  -0.224569  1.4e-05  2.569327  0.0
O  O243  1  0.25000112  0.67975134  0.32025236  1  -1.078069  2.6e-05  -0.22781  -0.22458  1.4e-05  2.569458  0.0
O  O244  1  0.93587653  0.31178727  0.72901084  1  -1.080906  0.002313  -0.178667  -0.19933  0.001651  2.573514  0.002
O  O245  1  0.56413067  0.27099683  0.68820320  1  -1.080415  0.002313  -0.178762  -0.199475  0.001651  2.573244  0.002
O  O246  1  0.06412475  0.68821261  0.27099563  1  -1.081051  0.002312  -0.178762  -0.199435  0.001651  2.573292  0.002
O  O247  1  0.43587974  0.72900799  0.31178840  1  -1.080965  0.002312  -0.178635  -0.199318  0.001651  2.573473  0.002
O  O248  1  0.04886408  0.20941172  0.60111942  1  -1.08283  0.00121  -0.177412  -0.198685  0.000865  2.572439  0.001
O  O249  1  0.45113859  0.39888091  0.79058799  1  -1.082976  0.00121  -0.17741  -0.198691  0.000865  2.572354  0.001
O  O250  1  0.95113430  0.79059309  0.39887815  1  -1.082921  0.00121  -0.177349  -0.198498  0.000865  2.572262  0.001
O  O251  1  0.54886651  0.60112205  0.20940850  1  -1.082808  0.001211  -0.17734  -0.198588  0.000865  2.572303  0.001
O  O252  1  0.87692846  0.20153900  0.55209963  1  -1.093312  0.001332  -0.179064  -0.202903  0.000959  2.587149  0.001
O  O253  1  0.62307018  0.44789850  0.79846344  1  -1.093068  0.001331  -0.179136  -0.203024  0.000959  2.586966  0.001
O  O254  1  0.12307107  0.79846335  0.44790024  1  -1.093178  0.001332  -0.179088  -0.202963  0.000959  2.586886  0.001
O  O255  1  0.37693099  0.55210508  0.20153553  1  -1.093104  0.001331  -0.179076  -0.202982  0.000959  2.586841  0.001
O  O256  1  0.01393195  0.26250545  0.07630797  1  -1.184286  0.079312  -0.322482  -0.548305  0.051823  2.175903  0.038
O  O257  1  0.48606367  0.92371649  0.73748873  1  -1.184686  0.079318  -0.322413  -0.548385  0.05182  2.175861  0.038
O  O258  1  0.98607011  0.73747903  0.92370356  1  -1.184626  0.079326  -0.322454  -0.548526  0.051825  2.175915  0.038
O  O259  1  0.51392795  0.07629325  0.26251211  1  -1.184794  0.079345  -0.322422  -0.548349  0.051827  2.176016  0.038
O  O260  1  0.06041132  0.37772996  0.99642739  1  -1.217086  0.090962  -0.311815  -0.595617  0.066358  2.370536  0.04
O  O261  1  0.43958149  0.00358947  0.62226416  1  -1.216844  0.090957  -0.311808  -0.595647  0.066363  2.370496  0.04
O  O262  1  0.93959479  0.62224468  0.00358009  1  -1.217312  0.090965  -0.311879  -0.595601  0.066367  2.37057  0.04
O  O263  1  0.56040369  0.99642333  0.37774892  1  -1.217084  0.090914  -0.311789  -0.595415  0.06633  2.370498  0.04
O  O264  1  0.44651068  0.12951903  0.43579233  1  -1.225473  0.106791  -0.314678  -0.592001  0.078025  2.402067  0.048
O  O265  1  0.05349824  0.56418448  0.87048749  1  -1.225619  0.106767  -0.314682  -0.592053  0.078012  2.401826  0.048
O  O266  1  0.55349495  0.87050486  0.56420224  1  -1.226465  0.10673  -0.314676  -0.591961  0.077979  2.401832  0.048
O  O267  1  0.94650173  0.43580126  0.12951129  1  -1.225516  0.106741  -0.314579  -0.591949  0.077982  2.401755  0.048
O  O268  1  0.40053650  0.23132872  0.32964402  1  -1.189784  0.056105  -0.313432  -0.55413  0.038926  2.131599  0.032
O  O269  1  0.09946601  0.67034456  0.76867602  1  -1.189768  0.056097  -0.313398  -0.554059  0.038922  2.131696  0.032
O  O270  1  0.59945858  0.76867671  0.67035530  1  -1.190266  0.056106  -0.313454  -0.554077  0.038922  2.131817  0.032
O  O271  1  0.90053942  0.32964793  0.23132768  1  -1.19007  0.056112  -0.313556  -0.554238  0.03893  2.131805  0.032
O  O272  1  0.60782788  0.03958510  0.50355365  1  -1.205059  0.063824  -0.305572  -0.569442  0.045468  2.320954  0.03
O  O273  1  0.89217599  0.49643484  0.96042727  1  -1.205327  0.063808  -0.305385  -0.569277  0.045459  2.320654  0.03
O  O274  1  0.39217952  0.96043632  0.49644585  1  -1.205377  0.063825  -0.305392  -0.569422  0.045476  2.320853  0.03
O  O275  1  0.10782285  0.50355028  0.03957204  1  -1.205138  0.06382  -0.305298  -0.56925  0.045468  2.320879  0.03
O  O276  1  0.64298598  0.13040009  0.37623742  1  -1.208641  0.080341  -0.323884  -0.568017  0.053712  2.335264  0.035
O  O277  1  0.85701499  0.62374021  0.86959606  1  -1.208289  0.080308  -0.323811  -0.568099  0.053706  2.335388  0.035
O  O278  1  0.35702226  0.86959735  0.62375141  1  -1.208218  0.080333  -0.323829  -0.568057  0.053722  2.335543  0.035
O  O279  1  0.14298872  0.37624859  0.13040615  1  -1.208236  0.080314  -0.323803  -0.568037  0.05371  2.335402  0.035
