# generated using pymatgen
data_KH13C5SO9
_symmetry_space_group_name_H-M   'P 1'
_cell_length_a   4.96627058
_cell_length_b   8.93317458
_cell_length_c   23.35360000
_cell_angle_alpha   90.00000000
_cell_angle_beta   90.00000000
_cell_angle_gamma   90.00000000
_symmetry_Int_Tables_number   1
_chemical_formula_structural   KH13C5SO9
_chemical_formula_sum   'K4 H52 C20 S4 O36'
_cell_volume   1036.07223775
_cell_formula_units_Z   4
loop_
 _symmetry_equiv_pos_site_id
 _symmetry_equiv_pos_as_xyz
  1  'x, y, z'
loop_
 _atom_site_type_symbol
 _atom_site_label
 _atom_site_symmetry_multiplicity
 _atom_site_fract_x
 _atom_site_fract_y
 _atom_site_fract_z
 _atom_site_occupancy
 _atom_site_pbe_bader_charge
 _atom_site_pbe_bader_spin_density
 _atom_site_pbe_cm5_charge
 _atom_site_pbe_ddec_charge
 _atom_site_pbe_ddec_spin_density
 _atom_site_pbe_ddec_sum_bond_order
 _atom_site_pbe_magmom
K  K0  1  0.33693492  0.99999613  0.49999786  1  0.883531  0  0.812948  0.857832  0  0.661146  0
K  K1  1  0.66305489  0.49999806  0.99999872  1  0.883522  0  0.812972  0.857831  0  0.661128  0
K  K2  1  0.29990915  0.50000590  0.49999914  1  0.880609  0  0.806948  0.874192  0  0.678274  0
K  K3  1  0.70010080  0.99999613  0.00000257  1  0.880622  0  0.806922  0.874214  0  0.678214  0
H  H4  1  0.47892276  0.23896208  0.63902996  1  0.091836  0  0.12369  0.095687  0  0.999442  0
H  H5  1  0.47892880  0.76103629  0.36096705  1  0.091915  0  0.123674  0.095661  0  0.999458  0
H  H6  1  0.52107109  0.73896462  0.86096790  1  0.091915  0  0.123657  0.095653  0  0.9994  0
H  H7  1  0.52108115  0.26104158  0.13903210  1  0.091788  0  0.123689  0.095678  0  0.99941  0
H  H8  1  0.94986568  0.20191478  0.68072717  1  0.063434  0  0.106054  0.050483  0  0.989912  0
H  H9  1  0.94987777  0.79808247  0.31927240  1  0.063439  0  0.106048  0.050485  0  0.989936  0
H  H10  1  0.05012212  0.70191620  0.81927283  1  0.063432  0  0.106039  0.050505  0  0.989943  0
H  H11  1  0.05012816  0.29808328  0.18072802  1  0.063435  0  0.106034  0.050475  0  0.989922  0
H  H12  1  0.54761414  0.42243437  0.73193084  1  0.090621  0  0.10783  0.067664  0  0.990215  0
H  H13  1  0.54762622  0.57756511  0.26806831  1  0.090907  0  0.107857  0.06768  0  0.990256  0
H  H14  1  0.45237769  0.92243468  0.76806831  1  0.090901  0  0.107838  0.067677  0  0.990223  0
H  H15  1  0.45238574  0.07756929  0.23193212  1  0.090639  0  0.107823  0.067692  0  0.990253  0
H  H16  1  0.98226827  0.44620420  0.78223700  1  0.058531  0  0.110405  0.064216  0  0.973401  0
H  H17  1  0.98227632  0.55379417  0.21776257  1  0.058423  0  0.110437  0.064212  0  0.973444  0
H  H18  1  0.01772356  0.94620674  0.71776257  1  0.058458  0  0.110444  0.064222  0  0.973415  0
H  H19  1  0.01772356  0.05379611  0.28223700  1  0.058485  0  0.110444  0.064192  0  0.973425  0
H  H20  1  0.54630330  0.26586741  0.84534290  1  0.073657  0  0.10972  0.088072  0  0.985737  0
H  H21  1  0.54631538  0.73412424  0.15465753  1  0.073789  0  0.109746  0.088105  0  0.985824  0
H  H22  1  0.45368652  0.76586883  0.65465753  1  0.073752  0  0.109727  0.088079  0  0.985818  0
H  H23  1  0.45369256  0.23413065  0.34534247  1  0.073741  0  0.109737  0.088106  0  0.98574  0
H  H24  1  0.55689273  0.46302241  0.83517787  1  0.06012  0  0.100915  0.076195  0  1.00987  0
H  H25  1  0.55689877  0.53697036  0.16482298  1  0.060082  0  0.100884  0.076148  0  1.009885  0
H  H26  1  0.44310312  0.96302271  0.66482213  1  0.060131  0  0.100904  0.0762  0  1.009859  0
H  H27  1  0.44310916  0.03697790  0.33517787  1  0.060116  0  0.100906  0.076189  0  1.009869  0
H  H28  1  0.70317957  0.52525448  0.60477228  1  0.650676  0  0.293947  0.353794  0  0.99473  0
H  H29  1  0.70318561  0.47474612  0.39522729  1  0.650643  0  0.29392  0.353745  0  0.994818  0
H  H30  1  0.29681427  0.02525530  0.89522729  1  0.650577  0  0.293921  0.353738  0  0.994809  0
H  H31  1  0.29682837  0.97474531  0.10477485  1  0.650678  0  0.293961  0.353897  0  0.994559  0
H  H32  1  0.15641516  0.41870446  0.64381380  1  0.628375  0  0.316262  0.361114  0  0.935389  0
H  H33  1  0.15642321  0.58129279  0.35618577  1  0.62833  0  0.316259  0.361056  0  0.93547  0
H  H34  1  0.84357868  0.91870700  0.85618534  1  0.628342  0  0.316287  0.361125  0  0.935513  0
H  H35  1  0.84358674  0.08129361  0.14381551  1  0.628409  0  0.31627  0.361112  0  0.935371  0
H  H36  1  0.35357518  0.20996791  0.75774870  1  0.646659  0  0.292708  0.335072  0  1.009839  0
H  H37  1  0.35359531  0.79003046  0.24225045  1  0.646725  0  0.292649  0.335019  0  1.009987  0
H  H38  1  0.64640658  0.70996709  0.74225130  1  0.646732  0  0.292641  0.335028  0  1.009985  0
H  H39  1  0.64641867  0.29003575  0.25774998  1  0.646691  0  0.292673  0.335083  0  1.009842  0
H  H40  1  0.97168286  0.12789294  0.80176204  1  0.642046  0  0.306366  0.349573  0  0.964108  0
H  H41  1  0.97170501  0.87210318  0.19823796  1  0.642003  0  0.30639  0.349564  0  0.964171  0
H  H42  1  0.02830091  0.62789549  0.69823796  1  0.641991  0  0.30636  0.349553  0  0.964158  0
H  H43  1  0.02831702  0.37211184  0.30176375  1  0.641891  0  0.306321  0.349475  0  0.964203  0
H  H44  1  0.97448174  0.44731690  0.89220934  1  0.63771  0  0.301747  0.34539  0  0.984551  0
H  H45  1  0.97449181  0.55267699  0.10779023  1  0.637591  0  0.30175  0.34538  0  0.984462  0
H  H46  1  0.02551412  0.94732057  0.60778981  1  0.637658  0  0.301746  0.345404  0  0.98449  0
H  H47  1  0.02551210  0.05268228  0.39220934  1  0.637617  0  0.30173  0.345397  0  0.98453  0
H  H48  1  0.00491918  0.71265259  0.59159145  1  0.643192  0  0.293804  0.376443  0  0.970357  0
H  H49  1  0.00492321  0.28734802  0.40840813  1  0.643186  0  0.293763  0.376385  0  0.970418  0
H  H50  1  0.99507264  0.21265229  0.90840855  1  0.64319  0  0.293803  0.376449  0  0.970383  0
H  H51  1  0.99509077  0.78734720  0.09159359  1  0.643263  0  0.293809  0.376435  0  0.970383  0
H  H52  1  0.81731350  0.67389369  0.53964100  1  0.647748  0  0.293939  0.375988  0  0.972083  0
H  H53  1  0.81731552  0.32610915  0.46035815  1  0.647739  0  0.293984  0.376054  0  0.971987  0
H  H54  1  0.18268437  0.17389451  0.96035815  1  0.647726  0  0.293974  0.376057  0  0.971982  0
H  H55  1  0.18269444  0.82610386  0.03964271  1  0.647677  0  0.293983  0.376039  0  0.972002  0
C  C56  1  0.64898397  0.31284063  0.62866410  1  0.453498  0  -0.00109  -0.012677  0  3.920971  0
C  C57  1  0.64898397  0.68715885  0.37133461  1  0.453452  0  -0.001092  -0.012568  0  3.920723  0
C  C58  1  0.35101390  0.81284206  0.87133461  1  0.453639  0  -0.001082  -0.012534  0  3.920796  0
C  C59  1  0.35102195  0.18715855  0.12866582  1  0.453692  0  -0.001096  -0.012595  0  3.920689  0
C  C60  1  0.84586209  0.31116822  0.67960357  1  0.475992  0  -0.005729  0.127513  0  3.871515  0
C  C61  1  0.84587417  0.68882903  0.32039600  1  0.475858  0  -0.00569  0.127416  0  3.871529  0
C  C62  1  0.15412773  0.81117076  0.82039600  1  0.475793  0  -0.005682  0.127308  0  3.871757  0
C  C63  1  0.15413578  0.18883321  0.17960486  1  0.475761  0  -0.005698  0.127498  0  3.871346  0
C  C64  1  0.68163825  0.32405613  0.73506440  1  0.455732  0  -0.011929  0.097462  0  3.85503  0
C  C65  1  0.68164631  0.67594224  0.26493517  1  0.455638  0  -0.012038  0.097359  0  3.854914  0
C  C66  1  0.31835358  0.82405755  0.76493517  1  0.455675  0  -0.012004  0.097483  0  3.854921  0
C  C67  1  0.31835962  0.17594641  0.23506569  1  0.45595  0  -0.011951  0.097335  0  3.855152  0
C  C68  1  0.86100021  0.34418224  0.78809477  1  0.454268  0  -0.013528  0.12406  0  3.876075  0
C  C69  1  0.86101632  0.65580942  0.21190609  1  0.454318  0  -0.013538  0.124145  0  3.875793  0
C  C70  1  0.13898961  0.84418590  0.71190523  1  0.454273  0  -0.013583  0.123986  0  3.875979  0
C  C71  1  0.13898961  0.15581471  0.28809477  1  0.454245  0  -0.013517  0.124253  0  3.875924  0
C  C72  1  0.68208728  0.36230457  0.84084038  1  0.426982  0  -0.080464  0.004985  0  3.890157  0
C  C73  1  0.68209332  0.63769379  0.15915962  1  0.426879  0  -0.080454  0.005005  0  3.890236  0
C  C74  1  0.31790857  0.86230600  0.65915962  1  0.426968  0  -0.080465  0.004986  0  3.890143  0
C  C75  1  0.31791059  0.13769461  0.34084038  1  0.426956  0  -0.080461  0.004949  0  3.890094  0
S  S76  1  0.80292645  0.21542510  0.56766708  1  3.089448  0  0.470121  1.117413  0  6.131374  0
S  S77  1  0.80293048  0.78458335  0.43232863  1  3.08955  0  0.470156  1.117453  0  6.131188  0
S  S78  1  0.19708552  0.71541197  0.93233078  1  3.089368  0  0.470217  1.117563  0  6.131036  0
S  S79  1  0.19708753  0.28458640  0.06766965  1  3.089341  0  0.470201  1.117629  0  6.131046  0
O  O80  1  0.54930555  0.45399762  0.61452453  1  -1.18112  0  -0.420823  -0.501757  0  2.364898  0
O  O81  1  0.54930958  0.54600075  0.38547462  1  -1.181076  0  -0.4208  -0.501732  0  2.36488  0
O  O82  1  0.45069030  0.95400016  0.88547462  1  -1.181095  0  -0.420792  -0.501723  0  2.364871  0
O  O83  1  0.45070440  0.04600380  0.11452752  1  -1.181134  0  -0.420841  -0.501901  0  2.364826  0
O  O84  1  0.03802048  0.42992443  0.67721251  1  -1.143513  0  -0.383663  -0.489921  0  2.315848  0
O  O85  1  0.03803055  0.57007282  0.32278835  1  -1.143608  0  -0.383648  -0.489833  0  2.316083  0
O  O86  1  0.96197135  0.92992809  0.82278878  1  -1.143607  0  -0.383671  -0.48988  0  2.316218  0
O  O87  1  0.96198746  0.07007251  0.17721422  1  -1.14354  0  -0.383678  -0.489905  0  2.315841  0
O  O88  1  0.52861195  0.18889589  0.73860732  1  -1.16231  0  -0.412736  -0.527888  0  2.291413  0
O  O89  1  0.52862001  0.81110359  0.26139096  1  -1.162332  0  -0.412644  -0.527791  0  2.291499  0
O  O90  1  0.47137786  0.68889620  0.76139096  1  -1.162349  0  -0.412646  -0.527841  0  2.291506  0
O  O91  1  0.47137987  0.31110665  0.23860989  1  -1.162359  0  -0.412658  -0.527853  0  2.291483  0
O  O92  1  0.05517420  0.22653313  0.79432935  1  -1.172641  0  -0.391913  -0.498645  0  2.33278  0
O  O93  1  0.05518628  0.77346412  0.20566979  1  -1.17258  0  -0.391991  -0.498741  0  2.332818  0
O  O94  1  0.94481360  0.72653567  0.70566936  1  -1.172633  0  -0.39193  -0.498641  0  2.332745  0
O  O95  1  0.94482166  0.27346381  0.29432978  1  -1.172515  0  -0.391947  -0.498677  0  2.332843  0
O  O96  1  0.83015412  0.37022001  0.89350421  1  -1.17511  0  -0.440354  -0.504476  0  2.368561  0
O  O97  1  0.83016620  0.62977500  0.10649750  1  -1.175051  0  -0.440326  -0.504424  0  2.368462  0
O  O98  1  0.16983368  0.87022367  0.60649621  1  -1.175088  0  -0.440342  -0.50447  0  2.368416  0
O  O99  1  0.16983771  0.12977917  0.39350336  1  -1.175055  0  -0.440346  -0.504476  0  2.368514  0
O  O100  1  0.08778418  0.25895274  0.56362145  1  -1.34309  0  -0.412902  -0.651526  0  2.278885  0
O  O101  1  0.08778418  0.74105235  0.43637726  1  -1.343075  0  -0.412942  -0.651563  0  2.278937  0
O  O102  1  0.91220161  0.75894968  0.93637640  1  -1.343017  0  -0.413015  -0.651731  0  2.278527  0
O  O103  1  0.91220765  0.24105204  0.06362445  1  -1.342976  0  -0.413023  -0.651741  0  2.278606  0
O  O104  1  0.64579043  0.25881057  0.51628229  1  -1.347924  0  -0.441371  -0.654516  0  2.306859  0
O  O105  1  0.64579043  0.74119340  0.48371814  1  -1.347875  0  -0.441407  -0.654529  0  2.306563  0
O  O106  1  0.35420140  0.75880863  0.98371686  1  -1.347836  0  -0.44137  -0.654479  0  2.306729  0
O  O107  1  0.35420342  0.24118973  0.01628357  1  -1.347839  0  -0.441372  -0.654525  0  2.306727  0
O  O108  1  0.76791829  0.05408492  0.58040602  1  -1.345687  0  -0.379885  -0.633539  0  2.249255  0
O  O109  1  0.76791225  0.94591345  0.41959141  1  -1.345789  0  -0.379862  -0.633531  0  2.249477  0
O  O110  1  0.23208160  0.55408970  0.91959355  1  -1.34587  0  -0.379902  -0.633524  0  2.249516  0
O  O111  1  0.23208965  0.44591091  0.08040730  1  -1.345852  0  -0.379877  -0.633547  0  2.249498  0
O  O112  1  0.91580592  0.62616598  0.57189084  1  -1.301209  0  -0.641036  -0.802179  0  2.071171  0
O  O113  1  0.91581196  0.37383687  0.42810873  1  -1.301168  0  -0.641027  -0.802148  0  2.071187  0
O  O114  1  0.08418591  0.12616456  0.92810873  1  -1.301078  0  -0.641052  -0.802234  0  2.071101  0
O  O115  1  0.08420000  0.87383493  0.07189341  1  -1.301175  0  -0.641076  -0.80225  0  2.07116  0
