# generated using pymatgen
data_Al2H6C19NO11
_symmetry_space_group_name_H-M   'P 1'
_cell_length_a   6.66376577
_cell_length_b   18.39404543
_cell_length_c   22.31121816
_cell_angle_alpha   86.76037728
_cell_angle_beta   86.70402774
_cell_angle_gamma   87.10170273
_symmetry_Int_Tables_number   1
_chemical_formula_structural   Al2H6C19NO11
_chemical_formula_sum   'Al4 H12 C38 N2 O22'
_cell_volume   2722.80695651
_cell_formula_units_Z   2
loop_
 _symmetry_equiv_pos_site_id
 _symmetry_equiv_pos_as_xyz
  1  'x, y, z'
loop_
 _atom_site_type_symbol
 _atom_site_label
 _atom_site_symmetry_multiplicity
 _atom_site_fract_x
 _atom_site_fract_y
 _atom_site_fract_z
 _atom_site_occupancy
 _atom_site_pbe_bader_charge
 _atom_site_pbe_bader_spin_density
 _atom_site_pbe_cm5_charge
 _atom_site_pbe_ddec_charge
 _atom_site_pbe_ddec_spin_density
 _atom_site_pbe_ddec_sum_bond_order
 _atom_site_pbe_magmom
Al  Al0  1  0.77105720  0.26621405  0.25903535  1  2.504244  0  0.405884  1.644651  0  2.581435  0
Al  Al1  1  0.22897777  0.73374290  0.74096511  1  2.504377  0  0.405724  1.644475  0  2.581548  0
Al  Al2  1  0.26990626  0.26708350  0.25964755  1  2.497353  0  0.406728  1.643862  0  2.576198  0
Al  Al3  1  0.73013252  0.73287398  0.74039005  1  2.497597  0  0.406765  1.644017  0  2.575752  0
H  H4  1  0.15968990  0.10835396  0.95124875  1  0.079283  0  0.110306  0.126667  0  0.97689  0
H  H5  1  0.84007586  0.89166117  0.04877019  1  0.079368  0  0.110196  0.126738  0  0.976564  0
H  H6  1  0.63425157  0.09085398  0.95324139  1  0.605171  0  0.313125  0.337148  0  0.931622  0
H  H7  1  0.36553086  0.90915125  0.04681635  1  0.60735  0  0.313319  0.33758  0  0.931801  0
H  H8  1  0.46208416  0.98807936  0.93032748  1  0.461112  0  0.285946  0.284808  0  0.999398  0
H  H9  1  0.34040361  0.91658976  0.91095349  1  0.45009  0  0.298533  0.299676  0  0.955054  0
H  H10  1  0.53771718  0.01194156  0.06971632  1  0.460836  0  0.286125  0.284929  0  0.999109  0
H  H11  1  0.65944708  0.08341999  0.08908574  1  0.44921  0  0.29854  0.299809  0  0.955002  0
H  H12  1  0.52699742  0.17558540  0.28427202  1  0.64514  0  0.359831  0.442327  0  0.838234  0
H  H13  1  0.47305639  0.82440086  0.71582369  1  0.645252  0  0.359572  0.442005  0  0.838089  0
H  H14  1  0.00131833  0.35605519  0.28148237  1  0.640838  0  0.359906  0.442383  0  0.837571  0
H  H15  1  0.99876034  0.64391404  0.71852238  1  0.639851  0  0.359988  0.442629  0  0.837305  0
C  C16  1  0.52771071  0.35325983  0.17479110  1  1.680258  0  0.279715  0.69984  0  4.1806  0
C  C17  1  0.47227731  0.64666851  0.82520900  1  1.680392  0  0.279956  0.700611  0  4.180193  0
C  C18  1  0.49130460  0.35184704  0.33961152  1  1.707331  0  0.275688  0.704238  0  4.179403  0
C  C19  1  0.50879170  0.64823324  0.66030407  1  1.700096  0  0.27581  0.704563  0  4.178564  0
C  C20  1  0.01362562  0.17444436  0.34248591  1  1.682037  0  0.275575  0.703382  0  4.180616  0
C  C21  1  0.98632007  0.82553979  0.65756099  1  1.680162  0  0.275577  0.703352  0  4.180661  0
C  C22  1  0.05234184  0.18418553  0.17931708  1  1.684362  0  0.276055  0.720375  0  4.166317  0
C  C23  1  0.94771158  0.81575715  0.82072416  1  1.6817  0  0.276491  0.720711  0  4.166498  0
C  C24  1  0.87526348  0.03359191  0.96058114  1  0.59599  0  0.084709  0.234317  0  3.736958  0
C  C25  1  0.12456109  0.96642234  0.03943534  1  0.596666  0  0.084347  0.233791  0  3.737451  0
C  C26  1  0.08926091  0.06026709  0.97247259  1  -0.05077  0  -0.076706  -0.209584  0  3.60926  0
C  C27  1  0.91053025  0.93974626  0.02755151  1  -0.069456  0  -0.076649  -0.209731  0  3.609402  0
C  C28  1  0.06231258  0.13750653  0.12969431  1  0.187877  0  -0.044398  -0.215772  0  3.964918  0
C  C29  1  0.93765615  0.86247368  0.87032425  1  0.188996  0  -0.044546  -0.215856  0  3.965193  0
C  C30  1  0.82381435  0.02050273  0.02956705  1  0.447479  0  0.086761  0.184837  0  3.801116  0
C  C31  1  0.17597980  0.97950952  0.97045886  1  0.429132  0  0.086522  0.185131  0  3.799432  0
C  C32  1  0.03726707  0.04841219  0.04293447  1  0.09963  0  -0.000527  0.013161  0  3.819409  0
C  C33  1  0.96254875  0.95159448  0.95708918  1  0.100496  0  -0.000414  0.013189  0  3.818519  0
C  C34  1  0.06133393  0.09675548  0.08843690  1  -0.501786  0  -0.022291  -0.00216  0  4.091837  0
C  C35  1  0.93855914  0.90323006  0.91158277  1  -0.501013  0  -0.022275  -0.002192  0  4.091487  0
C  C36  1  0.98731796  0.87931229  0.60809520  1  0.240307  0  0.000791  -0.135472  0  3.824846  0
C  C37  1  0.01251153  0.12063929  0.39193442  1  0.242327  0  0.00049  -0.135627  0  3.823837  0
C  C38  1  0.99173078  0.92571322  0.56640824  1  -0.312827  0  -0.005683  0.030651  0  4.252912  0
C  C39  1  0.00784430  0.07420601  0.43360396  1  -0.312924  0  -0.005543  0.030687  0  4.251485  0
C  C40  1  0.99691926  0.97652604  0.52089588  1  0.08269  0  0.004089  0.001348  0  4.182005  0
C  C41  1  0.00244724  0.02338075  0.47910640  1  -0.110528  0  0.004303  0.001377  0  4.181351  0
C  C42  1  0.52464542  0.40014619  0.12093234  1  0.293451  0  0.005369  -0.129975  0  3.816035  0
C  C43  1  0.47545685  0.59980930  0.87907545  1  0.293799  0  0.005141  -0.129943  0  3.816529  0
C  C44  1  0.51571396  0.43868639  0.07438297  1  -0.327268  0  -0.004388  0.03072  0  4.249868  0
C  C45  1  0.48463341  0.56127098  0.92561731  1  -0.326461  0  -0.004488  0.029985  0  4.250193  0
C  C46  1  0.50568102  0.48074144  0.02346289  1  0.069167  0  0.003077  -0.000411  0  4.185031  0
C  C47  1  0.49505090  0.51922139  0.97652848  1  -0.139083  0  0.003915  0.000613  0  4.18513  0
C  C48  1  0.48489588  0.39833542  0.38957239  1  0.127284  0  0.000958  -0.13587  0  3.823139  0
C  C49  1  0.51533843  0.60187974  0.61023894  1  0.140265  0  0.001355  -0.136189  0  3.822746  0
C  C50  1  0.49014141  0.43767422  0.43200922  1  -0.22262  0  -0.004747  0.03156  0  4.251054  0
C  C51  1  0.51039109  0.56260082  0.56774691  1  -0.248014  0  -0.004765  0.032291  0  4.25238  0
C  C52  1  0.49674337  0.48044732  0.47851788  1  0.088016  0  0.00372  0.000834  0  4.180884  0
C  C53  1  0.50405459  0.51987035  0.52120441  1  -0.096198  0  0.004421  0.001399  0  4.181886  0
N  N54  1  0.35982290  0.95047767  0.94459891  1  -1.245455  0  -0.610493  -0.658142  0  3.27389  0
N  N55  1  0.64000519  0.04953112  0.05544288  1  -1.245156  0  -0.610632  -0.65819  0  3.274524  0
O  O56  1  0.32431512  0.33063436  0.32371161  1  -1.221708  0  -0.227268  -0.581461  0  2.273538  0
O  O57  1  0.67579489  0.66936249  0.67627939  1  -1.22085  0  -0.227399  -0.581628  0  2.273109  0
O  O58  1  0.69922401  0.33067108  0.19225413  1  -1.227428  0  -0.218754  -0.56275  0  2.281176  0
O  O59  1  0.30079165  0.66921462  0.80769874  1  -1.228125  0  -0.218663  -0.562983  0  2.281269  0
O  O60  1  0.87693166  0.19820254  0.20313211  1  -1.243167  0  -0.230249  -0.589141  0  2.294425  0
O  O61  1  0.12312694  0.80171124  0.79694268  1  -1.242014  0  -0.230148  -0.588897  0  2.294245  0
O  O62  1  0.66631787  0.33690500  0.31603504  1  -1.235039  0  -0.226504  -0.586444  0  2.288437  0
O  O63  1  0.33376425  0.66311761  0.68390445  1  -1.235452  0  -0.226609  -0.58659  0  2.288232  0
O  O64  1  0.84186876  0.19820905  0.32564862  1  -1.229035  0  -0.226112  -0.581704  0  2.283924  0
O  O65  1  0.15809775  0.80178860  0.67438082  1  -1.229254  0  -0.226076  -0.581588  0  2.283734  0
O  O66  1  0.35706097  0.33920086  0.20015200  1  -1.232533  0  -0.221026  -0.570186  0  2.291319  0
O  O67  1  0.64295311  0.66074476  0.79988957  1  -1.231632  0  -0.221355  -0.570739  0  2.290788  0
O  O68  1  0.52544465  0.22288568  0.26271079  1  -1.444557  0  -0.445995  -0.995901  0  2.190886  0
O  O69  1  0.47455373  0.77706549  0.73733386  1  -1.444673  0  -0.445602  -0.995391  0  2.190558  0
O  O70  1  0.18570302  0.19223961  0.32011919  1  -1.231459  0  -0.22708  -0.585788  0  2.281252  0
O  O71  1  0.81426111  0.80772046  0.67993218  1  -1.230307  0  -0.227306  -0.586028  0  2.281479  0
O  O72  1  0.21667582  0.20678007  0.19600413  1  -1.240438  0  -0.226943  -0.577692  0  2.282966  0
O  O73  1  0.78338382  0.79319744  0.80400494  1  -1.240421  0  -0.227364  -0.578097  0  2.28303  0
O  O74  1  0.01351796  0.31076843  0.26100137  1  -1.439016  0  -0.445044  -0.993529  0  2.185521  0
O  O75  1  0.98653798  0.68919549  0.73901510  1  -1.43828  0  -0.444981  -0.993779  0  2.18542  0
O  O76  1  0.73114462  0.06673255  0.92477029  1  -1.144946  0  -0.373148  -0.465489  0  2.233702  0
O  O77  1  0.26864628  0.93330423  0.07527335  1  -1.147092  0  -0.373153  -0.465746  0  2.234084  0
